#	Name: ASD00431150
#	Creating user name:	WinNT
#	Creation time:	15. 06. 2019 18:35

#	Modifying user name:	WinNT
#	Modification time:	15. 06. 2019 18:35

#	Program:	/corina/corina34_cracker 3.40 0067  02.08.2006

@<TRIPOS>MOLECULE
ASD00431150
  49   51    0    0    0
SMALL
NO_CHARGES


@<TRIPOS>ATOM
   1 C1            -0.2518     1.5910    -0.1637 C.2     
   2 C2            -0.2561     0.0844    -0.1975 C.3     
   3 O3             0.8001     2.1947    -0.1703 O.2     
   4 N4            -1.4169     2.2677    -0.1317 N.am    
   5 C5            -1.4127     3.7323    -0.0988 C.3     
   6 C6            -1.3062     4.2742    -1.5256 C.3     
   7 O7            -3.9192     3.7207     0.3457 O.3     
   8 N8            -4.7535     4.3202     0.9833 N.2     
   9 C9            -4.2143     5.2963     1.6773 C.2     
  10 C10           -2.8179     5.2574     1.3925 C.2     
  11 C11           -2.6901     4.2243     0.5314 C.2     
  12 C12           -4.9122     6.2415     2.5705 C.2     
  13 C13           -6.2383     6.2456     2.8149 C.2     
  14 C14           -6.6621     7.2252     3.6862 C.2     
  15 C15           -5.6892     8.0240     4.1570 C.2     
  16 S16           -4.1407     7.5304     3.4852 S.3     
  17 O17           -5.8731     9.0520     5.0238 O.3     
  18 C18           -4.7722     9.7036     5.4839 C.ar    
  19 C19           -3.9879    10.4427     4.6101 C.ar    
  20 C20           -2.8694    11.1046     5.0776 C.ar    
  21 C21           -2.5301    11.0301     6.4205 C.ar    
  22 C22           -3.3139    10.2908     7.2941 C.ar    
  23 C23           -4.4361     9.6342     6.8281 C.ar    
  24 O24           -1.4287    11.6814     6.8805 O.3     
  25 C25           -0.5914    12.3079     5.9066 C.3     
  26 C26           -1.0034    13.7727     5.7463 C.3     
  27 C27            0.8665    12.2353     6.3649 C.3     
  28 H28            0.7703    -0.2814    -0.2255 H       
  29 H29           -0.7538    -0.2976     0.6938 H       
  30 H30           -0.7880    -0.2575    -1.0854 H       
  31 H31           -2.2583     1.7850    -0.1304 H       
  32 H32           -0.5614     4.0802     0.4864 H       
  33 H33           -0.3822     3.9184    -1.9814 H       
  34 H34           -2.1574     3.9264    -2.1109 H       
  35 H35           -1.3030     5.3639    -1.5012 H       
  36 H36           -2.0424     5.9039     1.7758 H       
  37 H37           -6.9156     5.5364     2.3626 H       
  38 H38           -7.6977     7.3426     3.9691 H       
  39 H39           -4.2517    10.5002     3.5644 H       
  40 H40           -2.2589    11.6800     4.3975 H       
  41 H41           -3.0493    10.2325     8.3396 H       
  42 H42           -5.0490     9.0625     7.5092 H       
  43 H43           -0.6980    11.7939     4.9513 H       
  44 H44           -0.8968    14.2867     6.7016 H       
  45 H45           -0.3647    14.2505     5.0034 H       
  46 H46           -2.0420    13.8244     5.4198 H       
  47 H47            1.1600    11.1918     6.4791 H       
  48 H48            1.5051    12.7132     5.6220 H       
  49 H49            0.9730    12.7493     7.3202 H       
@<TRIPOS>BOND
   1    1    2 1
   2    1    3 2
   3    1    4 am
   4    2   28 1
   5    2   29 1
   6    2   30 1
   7    4    5 1
   8    4   31 1
   9    5    6 1
  10    5   11 1
  11    5   32 1
  12    6   33 1
  13    6   34 1
  14    6   35 1
  15    7    8 1
  16    7   11 1
  17    8    9 2
  18    9   10 1
  19    9   12 1
  20   10   11 2
  21   10   36 1
  22   12   13 2
  23   12   16 1
  24   13   14 1
  25   13   37 1
  26   14   15 2
  27   14   38 1
  28   15   16 1
  29   15   17 1
  30   17   18 1
  31   18   19 ar
  32   18   23 ar
  33   19   20 ar
  34   19   39 1
  35   20   21 ar
  36   20   40 1
  37   21   22 ar
  38   21   24 1
  39   22   23 ar
  40   22   41 1
  41   23   42 1
  42   24   25 1
  43   25   26 1
  44   25   27 1
  45   25   43 1
  46   26   44 1
  47   26   45 1
  48   26   46 1
  49   27   47 1
  50   27   48 1
  51   27   49 1

#	End of record

