#	Name: ASD00170351
#	Creating user name:	WinNT
#	Creation time:	15. 06. 2019 18:32

#	Modifying user name:	WinNT
#	Modification time:	15. 06. 2019 18:32

#	Program:	/corina/corina34_cracker 3.40 0067  02.08.2006

@<TRIPOS>MOLECULE
ASD00170351
  39   40    0    0    0
SMALL
NO_CHARGES


@<TRIPOS>ATOM
   1 C1             0.1062     1.1372    -0.0355 C.ar    
   2 C2            -0.0717    -0.2509    -0.0485 C.ar    
   3 N3            -1.2946    -0.7653    -0.0587 N.ar    
   4 C4            -2.3510     0.0385    -0.0564 C.ar    
   5 C5            -2.1689     1.4300    -0.0434 C.ar    
   6 N6            -0.9376     1.9381    -0.0282 N.ar    
   7 C7            -3.3404     2.3294    -0.0408 C.2     
   8 N8            -3.1695     3.6527     0.0932 N.2     
   9 C9            -3.7540     4.2979     1.0904 C.2     
  10 N10           -4.4388     3.6032     2.0439 N.pl3   
  11 N11           -3.6282    -0.4942    -0.0674 N.pl3   
  12 N12            1.0307    -1.0891    -0.0513 N.3     
  13 Cl13           1.7089     1.8042    -0.0217 Cl      
  14 O14           -4.4624     1.8690    -0.1606 O.2     
  15 N15           -3.6714     5.6575     1.1645 N.pl3   
  16 C16            1.0909    -1.8415     1.1251 C.3     
  17 C17            2.4240    -2.6119     1.2447 C.3     
  18 C18            2.3745    -3.8221     0.3471 C.3     
  19 C19            2.9643    -3.5478    -1.0507 C.3     
  20 C20            2.5388    -2.1736    -1.5953 C.3     
  21 C21            1.0898    -1.8814    -1.2956 C.3     
  22 H22           -4.5585     2.6449     1.9535 H       
  23 H23           -4.8060     4.0676     2.8123 H       
  24 H24           -3.7538    -1.4512    -0.1640 H       
  25 H25           -4.3979     0.0894     0.0214 H       
  26 H26           -3.1844     6.1515     0.4864 H       
  27 H27           -4.0997     6.1303     1.8952 H       
  28 H28            0.9891    -1.1730     1.9800 H       
  29 H29            0.2666    -2.5546     1.1333 H       
  30 H30            3.2473    -1.9656     0.9404 H       
  31 H31            2.5703    -2.9294     2.2771 H       
  32 H32            2.9369    -4.6305     0.8143 H       
  33 H33            1.3366    -4.1361     0.2361 H       
  34 H34            4.0520    -3.5837    -0.9898 H       
  35 H35            2.6234    -4.3224    -1.7376 H       
  36 H36            3.1590    -1.4023    -1.1387 H       
  37 H37            2.6893    -2.1566    -2.6747 H       
  38 H38            0.5454    -2.8164    -1.1631 H       
  39 H39            0.6517    -1.3125    -2.1157 H       
@<TRIPOS>BOND
   1    1    2 ar
   2    1   13 1
   3    1    6 ar
   4    2    3 ar
   5    2   12 1
   6    3    4 ar
   7    4    5 ar
   8    4   11 1
   9    5    6 ar
  10    5    7 1
  11    7    8 1
  12    7   14 2
  13    8    9 2
  14    9   10 1
  15    9   15 1
  16   10   22 1
  17   10   23 1
  18   11   24 1
  19   11   25 1
  20   12   16 1
  21   12   21 1
  22   15   26 1
  23   15   27 1
  24   16   17 1
  25   16   28 1
  26   16   29 1
  27   17   18 1
  28   17   30 1
  29   17   31 1
  30   18   19 1
  31   18   32 1
  32   18   33 1
  33   19   20 1
  34   19   34 1
  35   19   35 1
  36   20   21 1
  37   20   36 1
  38   20   37 1
  39   21   38 1
  40   21   39 1

#	End of record

