#	Name: ASD02038634
#	Creating user name:	WinNT
#	Creation time:	15. 06. 2019 20:17

#	Modifying user name:	WinNT
#	Modification time:	15. 06. 2019 20:17

#	Program:	/corina/corina34_cracker 3.40 0067  02.08.2006

@<TRIPOS>MOLECULE
ASD02038634
  50   51    0    0    0
SMALL
NO_CHARGES


@<TRIPOS>ATOM
   1 C1            -0.0285     1.3582     0.7525 C.ar    
   2 C2            -0.0073    -0.0222     0.6442 C.ar    
   3 C3            -1.1922    -0.7262     0.5378 C.ar    
   4 C4            -2.4037    -0.0477     0.5398 C.ar    
   5 C5            -2.4214     1.3372     0.6486 C.ar    
   6 C6            -1.2352     2.0355     0.7599 C.ar    
   7 N7            -3.6031    -0.7566     0.4320 N.pl3   
   8 C8            -4.8806    -0.0396     0.4342 C.3     
   9 C9            -6.0287    -1.0426     0.3052 C.3     
  10 N10           -7.3062    -0.3255     0.3073 N.am    
  11 C11           -8.4629    -1.0093     0.2034 C.2     
  12 O12           -9.6370    -0.3503     0.2054 O.3     
  13 C13          -10.8427    -1.1511     0.0900 C.3     
  14 C14          -12.0492    -0.2484     0.1100 C.ar    
  15 C15          -12.5503     0.2597    -1.0745 C.ar    
  16 C16          -12.6561     0.0655     1.3122 C.ar    
  17 C17          -13.7619     0.8924     1.3341 C.ar    
  18 C18          -14.2645     1.4091     0.1466 C.ar    
  19 C19          -13.6558     1.0873    -1.0598 C.ar    
  20 N20          -15.3827     2.2458     0.1651 N.pl3   
  21 Cl21           1.5082    -0.8689     0.6413 Cl      
  22 Cl22           1.4609     2.2399     0.8865 Cl      
  23 O23           -8.4463    -2.2205     0.1078 O.2     
  24 S24          -15.2338     3.8160     0.6697 S.o2    
  25 C25          -13.9438     4.6433    -0.3010 C.3     
  26 C26          -16.5858     4.5546     0.4700 C.2     
  27 C27          -14.8467     3.8421     2.1740 C.2     
  28 H28           -1.1756    -1.8027     0.4530 H       
  29 H29           -3.3625     1.8670     0.6500 H       
  30 H30           -1.2489     3.1120     0.8449 H       
  31 H31           -3.5897    -1.7235     0.3557 H       
  32 H32           -4.9849     0.5141     1.3673 H       
  33 H33           -4.9088     0.6549    -0.4055 H       
  34 H34           -5.9243    -1.5962    -0.6280 H       
  35 H35           -6.0004    -1.7371     1.1448 H       
  36 H36           -7.3195     0.6414     0.3836 H       
  37 H37          -10.8208    -1.7078    -0.8469 H       
  38 H38          -10.8969    -1.8487     0.9258 H       
  39 H39          -12.0763     0.0094    -2.0121 H       
  40 H40          -12.2651    -0.3369     2.2350 H       
  41 H41          -14.2357     1.1369     2.2734 H       
  42 H42          -14.0438     1.4876    -1.9848 H       
  43 H43          -16.2466     1.9071    -0.1175 H       
  44 H44          -14.1705     4.5475    -1.3628 H       
  45 H45          -13.9066     5.6987    -0.0311 H       
  46 H46          -12.9791     4.1806    -0.0923 H       
  47 H47          -17.4329     4.0279     0.0558 H       
  48 H48          -16.6788     5.5948     0.7454 H       
  49 H49          -13.9243     4.3091     2.4863 H       
  50 H50          -15.5000     3.3932     2.9075 H       
@<TRIPOS>BOND
   1    1    2 ar
   2    1   22 1
   3    1    6 ar
   4    2    3 ar
   5    2   21 1
   6    3    4 ar
   7    3   28 1
   8    4    5 ar
   9    4    7 1
  10    5    6 ar
  11    5   29 1
  12    6   30 1
  13    7    8 1
  14    7   31 1
  15    8    9 1
  16    8   32 1
  17    8   33 1
  18    9   10 1
  19    9   34 1
  20    9   35 1
  21   10   11 am
  22   10   36 1
  23   11   12 1
  24   11   23 2
  25   12   13 1
  26   13   14 1
  27   13   37 1
  28   13   38 1
  29   14   15 ar
  30   14   16 ar
  31   15   19 ar
  32   15   39 1
  33   16   17 ar
  34   16   40 1
  35   17   18 ar
  36   17   41 1
  37   18   19 ar
  38   18   20 1
  39   19   42 1
  40   20   24 1
  41   20   43 1
  42   24   25 1
  43   24   26 2
  44   24   27 2
  45   25   44 1
  46   25   45 1
  47   25   46 1
  48   26   47 1
  49   26   48 1
  50   27   49 1
  51   27   50 1

#	End of record

