#	Name: ASD02198870
#	Creating user name:	WinNT
#	Creation time:	15. 06. 2019 20:20

#	Modifying user name:	WinNT
#	Modification time:	15. 06. 2019 20:20

#	Program:	/corina/corina34_cracker 3.40 0067  02.08.2006

@<TRIPOS>MOLECULE
ASD02198870
  52   56    0    0    0
SMALL
NO_CHARGES


@<TRIPOS>ATOM
   1 F1             2.2520    -1.7103     2.4728 F       
   2 C2            -0.0435     1.5031    -0.1144 C.2     
   3 C3            -0.0736     0.1634     0.0982 C.2     
   4 N4             1.0705    -0.5384     0.2609 N.pl3   
   5 N5             2.2351    -0.0040     0.2268 N.2     
   6 C6             2.4070     1.2853     0.0280 C.2     
   7 C7             1.2215     2.1368    -0.1601 C.2     
   8 C8             0.9786    -1.9175     0.4781 C.ar    
   9 C9             1.5791    -2.4877     1.5965 C.ar    
  10 C10            1.4869    -3.8502     1.8097 C.ar    
  11 C11            0.7955    -4.6484     0.9082 C.ar    
  12 C12            0.1963    -4.0784    -0.2080 C.ar    
  13 C13            0.2828    -2.7176    -0.4197 C.ar    
  14 C14            3.7641     1.8672    -0.0048 C.2     
  15 N15            4.3063     2.6067    -1.0182 N.pl3   
  16 N16            5.6084     2.9577    -0.6407 N.2     
  17 C17            5.8522     2.4584     0.5447 C.2     
  18 C18            4.7198     1.7718     0.9829 C.2     
  19 C19            3.6733     2.9511    -2.2193 C.ar    
  20 C20            2.9108     2.0103    -2.8985 C.ar    
  21 C21            2.2879     2.3530    -4.0828 C.ar    
  22 C22            2.4232     3.6313    -4.5921 C.ar    
  23 C23            3.1820     4.5707    -3.9179 C.ar    
  24 C24            3.8025     4.2360    -2.7305 C.ar    
  25 O25            1.3247     3.3398    -0.3484 O.2     
  26 N26            0.7025    -6.0300     1.1243 N.pl3   
  27 C27            0.0532    -6.9224     0.3154 C.2     
  28 C28            0.1854    -8.1529     0.8540 C.2     
  29 C29            0.9427    -8.0188     2.0374 C.2     
  30 C30            1.2508    -6.7121     2.1760 C.2     
  31 F31           -0.3160    -9.3027     0.3523 F       
  32 F32            1.2990    -9.0169     2.8752 F       
  33 C33            7.1409     2.6064     1.3118 C.3     
  34 C34            3.3272     5.9627    -4.4767 C.3     
  35 F35            2.6100     6.0618    -5.6738 F       
  36 F36            2.8274     6.8895    -3.5556 F       
  37 F37            4.6789     6.2291    -4.7196 F       
  38 H38           -0.9548     2.0670    -0.2489 H       
  39 H39           -1.0236    -0.3488     0.1383 H       
  40 H40            1.9529    -4.2939     2.6771 H       
  41 H41           -0.3409    -4.7003    -0.9087 H       
  42 H42           -0.1837    -2.2755    -1.2876 H       
  43 H43            4.6137     1.2530     1.9242 H       
  44 H44            2.8051     1.0115    -2.5014 H       
  45 H45            1.6950     1.6216    -4.6118 H       
  46 H46            1.9355     3.8967    -5.5184 H       
  47 H47            4.3950     4.9700    -2.2045 H       
  48 H48           -0.4743    -6.6834    -0.5962 H       
  49 H49            1.8249    -6.2788     2.9816 H       
  50 H50            7.0935     3.5010     1.9326 H       
  51 H51            7.2890     1.7319     1.9454 H       
  52 H52            7.9722     2.6931     0.6121 H       
@<TRIPOS>BOND
   1    1    9 1
   2    2    3 2
   3    2    7 1
   4    2   38 1
   5    3    4 1
   6    3   39 1
   7    4    5 1
   8    4    8 1
   9    5    6 2
  10    6    7 1
  11    6   14 1
  12    7   25 2
  13    8    9 ar
  14    8   13 ar
  15    9   10 ar
  16   10   11 ar
  17   10   40 1
  18   11   12 ar
  19   11   26 1
  20   12   13 ar
  21   12   41 1
  22   13   42 1
  23   14   15 1
  24   14   18 2
  25   15   16 1
  26   15   19 1
  27   16   17 2
  28   17   18 1
  29   17   33 1
  30   18   43 1
  31   19   20 ar
  32   19   24 ar
  33   20   21 ar
  34   20   44 1
  35   21   22 ar
  36   21   45 1
  37   22   23 ar
  38   22   46 1
  39   23   24 ar
  40   23   34 1
  41   24   47 1
  42   26   27 1
  43   26   30 1
  44   27   28 2
  45   27   48 1
  46   28   29 1
  47   28   31 1
  48   29   30 2
  49   29   32 1
  50   30   49 1
  51   33   50 1
  52   33   51 1
  53   33   52 1
  54   34   35 1
  55   34   36 1
  56   34   37 1

#	End of record

