#	Name: ASD01812678
#	Creating user name:	WinNT
#	Creation time:	15. 06. 2019 19:29

#	Modifying user name:	WinNT
#	Modification time:	15. 06. 2019 19:29

#	Program:	/corina/corina34_cracker 3.40 0067  02.08.2006

@<TRIPOS>MOLECULE
ASD01812678
  49   53    0    0    0
SMALL
NO_CHARGES


@<TRIPOS>ATOM
   1 O1            -0.0163     1.3522     0.0095 O.3     
   2 C2             0.0021    -0.0041     0.0020 C.ar    
   3 C3             1.2105    -0.6847    -0.0132 C.ar    
   4 C4             1.2312    -2.0655    -0.0208 C.ar    
   5 C5             0.0448    -2.7828    -0.0128 C.ar    
   6 C6            -1.1604    -2.1223     0.0022 C.ar    
   7 C7            -1.2004    -0.7252     0.0155 C.ar    
   8 C8            -2.5947    -2.5891     0.0135 C.3     
   9 N9            -3.4200    -1.3759     0.0279 N.am    
  10 C10           -2.6104    -0.3028     0.0372 C.2     
  11 C11           -4.8845    -1.3401     0.0414 C.3     
  12 O12           -2.9891     0.8526     0.0482 O.2     
  13 C13           -5.3737    -1.3360     1.4668 C.ar    
  14 C14           -5.5681    -0.1352     2.1251 C.ar    
  15 C15           -6.0166    -0.1257     3.4305 C.ar    
  16 C16           -6.2734    -1.3283     4.0848 C.ar    
  17 C17           -6.0759    -2.5348     3.4171 C.ar    
  18 C18           -5.6322    -2.5328     2.1101 C.ar    
  19 C19           -6.7554    -1.3242     5.4892 C.2     
  20 C20           -6.9979    -0.1860     6.2826 C.2     
  21 N21           -7.4114    -0.5889     7.4548 N.2     
  22 N22           -7.4491    -1.9886     7.4563 N.pl3   
  23 C23           -7.0497    -2.4221     6.2438 C.2     
  24 C24            1.1735     2.0057     0.0016 C.ar    
  25 C25            1.7790     2.3512    -1.2142 C.ar    
  26 C26            3.0033     3.0241    -1.2095 C.ar    
  27 C27            3.6081     3.3441    -0.0129 C.ar    
  28 C28            3.0081     3.0014     1.1873 C.ar    
  29 C29            1.7934     2.3401     1.1980 C.ar    
  30 F30            1.2122     2.0149     2.3734 F       
  31 C31            1.1465     2.0159    -2.4544 C.1     
  32 N32            0.6447     1.7498    -3.4382 N.1     
  33 H33            2.1387    -0.1327    -0.0195 H       
  34 H34            2.1758    -2.5889    -0.0333 H       
  35 H35            0.0677    -3.8626    -0.0188 H       
  36 H36           -2.8051    -3.1749    -0.8813 H       
  37 H37           -2.7880    -3.1845     0.9058 H       
  38 H38           -5.2306    -0.4386    -0.4642 H       
  39 H39           -5.2741    -2.2180    -0.4739 H       
  40 H40           -5.3684     0.7967     1.6170 H       
  41 H41           -6.1677     0.8125     3.9438 H       
  42 H42           -6.2736    -3.4700     3.9199 H       
  43 H43           -5.4827    -3.4675     1.5902 H       
  44 H44           -6.8648     0.8409     5.9757 H       
  45 H45           -7.7193    -2.5494     8.2002 H       
  46 H46           -6.9739    -3.4521     5.9278 H       
  47 H47            3.4757     3.2931    -2.1427 H       
  48 H48            4.5545     3.8644    -0.0112 H       
  49 H49            3.4895     3.2554     2.1201 H       
@<TRIPOS>BOND
   1    1    2 1
   2    1   24 1
   3    2    3 ar
   4    2    7 ar
   5    3    4 ar
   6    3   33 1
   7    4    5 ar
   8    4   34 1
   9    5    6 ar
  10    5   35 1
  11    6    8 1
  12    6    7 ar
  13    7   10 1
  14    8    9 1
  15    8   36 1
  16    8   37 1
  17    9   10 am
  18    9   11 1
  19   10   12 2
  20   11   13 1
  21   11   38 1
  22   11   39 1
  23   13   14 ar
  24   13   18 ar
  25   14   15 ar
  26   14   40 1
  27   15   16 ar
  28   15   41 1
  29   16   17 ar
  30   16   19 1
  31   17   18 ar
  32   17   42 1
  33   18   43 1
  34   19   20 1
  35   19   23 2
  36   20   21 2
  37   20   44 1
  38   21   22 1
  39   22   23 1
  40   22   45 1
  41   23   46 1
  42   24   25 ar
  43   24   29 ar
  44   25   26 ar
  45   25   31 1
  46   26   27 ar
  47   26   47 1
  48   27   28 ar
  49   27   48 1
  50   28   29 ar
  51   28   49 1
  52   29   30 1
  53   31   32 3

#	End of record

