#	Name: ASD00311360
#	Creating user name:	WinNT
#	Creation time:	15. 06. 2019 18:34

#	Modifying user name:	WinNT
#	Modification time:	15. 06. 2019 18:34

#	Program:	/corina/corina34_cracker 3.40 0067  02.08.2006

@<TRIPOS>MOLECULE
ASD00311360
  38   41    0    0    0
SMALL
NO_CHARGES


@<TRIPOS>ATOM
   1 C1            -0.0167     1.3781     0.0096 C.2     
   2 C2             0.0021    -0.0041     0.0020 C.2     
   3 C3             1.2588    -0.6765    -0.0139 C.2     
   4 C4             2.4315     0.0676    -0.0214 C.2     
   5 C5             2.3575     1.4755    -0.0131 C.2     
   6 N6             1.1649     2.0908     0.0022 N.am    
   7 C7            -1.3431    -0.5748     0.0126 C.2     
   8 C8            -2.3221     0.3256     0.0274 C.2     
   9 S9            -1.6795     1.9561     0.0358 S.3     
  10 O10            3.3824     2.1375    -0.0192 O.2     
  11 C11            3.7476    -0.6116    -0.0375 C.ar    
  12 C12            4.5931    -0.4742    -1.1382 C.ar    
  13 C13            5.8180    -1.1095    -1.1473 C.ar    
  14 C14            6.2080    -1.8815    -0.0675 C.ar    
  15 C15            5.3737    -2.0216     1.0272 C.ar    
  16 C16            4.1489    -1.3866     1.0505 C.ar    
  17 C17           -1.5956    -2.0353     0.0069 C.ar    
  18 C18           -1.7277    -2.7207    -1.2040 C.ar    
  19 C19           -1.9632    -4.0860    -1.2008 C.ar    
  20 C20           -2.0675    -4.7705    -0.0039 C.ar    
  21 C21           -1.9380    -4.0997     1.1984 C.ar    
  22 C22           -1.6971    -2.7355     1.2123 C.ar    
  23 O23           -1.5645    -2.0790     2.3947 O.3     
  24 O24           -1.6259    -2.0496    -2.3813 O.3     
  25 O25            1.3089    -2.0290    -0.0212 O.3     
  26 H26            1.1328     3.0602     0.0077 H       
  27 H27           -3.3746     0.0836     0.0362 H       
  28 H28            4.2896     0.1279    -1.9818 H       
  29 H29            6.4734    -1.0041    -1.9992 H       
  30 H30            7.1675    -2.3770    -0.0794 H       
  31 H31            5.6837    -2.6256     1.8671 H       
  32 H32            3.5004    -1.4931     1.9075 H       
  33 H33           -2.0658    -4.6170    -2.1356 H       
  34 H34           -2.2514    -5.8347    -0.0080 H       
  35 H35           -2.0211    -4.6415     2.1290 H       
  36 H36           -2.3965    -1.7386     2.7511 H       
  37 H37           -0.7260    -2.0053    -2.7323 H       
  38 H38            2.2062    -2.3893    -0.0320 H       
@<TRIPOS>BOND
   1    1    2 2
   2    1    6 1
   3    1    9 1
   4    2    3 1
   5    2    7 1
   6    3    4 2
   7    3   25 1
   8    4    5 1
   9    4   11 1
  10    5    6 am
  11    5   10 2
  12    6   26 1
  13    7    8 2
  14    7   17 1
  15    8    9 1
  16    8   27 1
  17   11   12 ar
  18   11   16 ar
  19   12   13 ar
  20   12   28 1
  21   13   14 ar
  22   13   29 1
  23   14   15 ar
  24   14   30 1
  25   15   16 ar
  26   15   31 1
  27   16   32 1
  28   17   18 ar
  29   17   22 ar
  30   18   19 ar
  31   18   24 1
  32   19   20 ar
  33   19   33 1
  34   20   21 ar
  35   20   34 1
  36   21   22 ar
  37   21   35 1
  38   22   23 1
  39   23   36 1
  40   24   37 1
  41   25   38 1

#	End of record

