#	Name: ASD05430268
#	Creating user name:	WinNT
#	Creation time:	15. 06. 2019 21:00

#	Modifying user name:	WinNT
#	Modification time:	15. 06. 2019 21:00

#	Program:	/corina/corina34_cracker 3.40 0067  02.08.2006

@<TRIPOS>MOLECULE
ASD05430268
  64   69    0    0    0
SMALL
NO_CHARGES


@<TRIPOS>ATOM
   1 C1             0.0523     1.1915     0.3783 C.ar    
   2 C2             0.0204    -0.0139    -0.3218 C.ar    
   3 C3             1.1738    -0.5042    -0.9201 C.ar    
   4 C4             2.3556     0.1981    -0.8245 C.ar    
   5 C5             2.3953     1.4081    -0.1238 C.ar    
   6 C6             1.2338     1.9017     0.4782 C.ar    
   7 C7             4.8670    -0.0050     0.2181 C.3     
   8 C8             4.8285     1.4999     0.0679 C.2     
   9 C9             3.6566     2.1594    -0.0200 C.2     
  10 C10            6.2112    -0.4229     0.8215 C.3     
  11 C11            6.8979     0.6142     1.7172 C.3     
  12 N12            7.0922     1.8452     0.9480 N.pl3   
  13 C13            6.1096     2.2210     0.0211 C.2     
  14 N14           -1.1792    -0.7332    -0.4216 N.pl3   
  15 C15           -1.7371    -1.2318    -1.5701 C.2     
  16 C16           -2.8794    -1.8494    -1.2127 C.2     
  17 N17           -3.0197    -1.7339     0.1161 N.2     
  18 C18           -2.0047    -1.0724     0.6021 C.2     
  19 C19           -3.8347    -2.5491    -2.1448 C.3     
  20 O20           -1.0802     1.6711     0.9579 O.3     
  21 C21           -0.9747     2.9117     1.6593 C.3     
  22 C22            8.2640     2.6978     1.1473 C.3     
  23 C23            8.7463     3.2026    -0.2173 C.3     
  24 N24            7.6070     3.7309    -0.9713 N.pl3   
  25 N25            6.3413     3.1447    -0.8589 N.2     
  26 C26            7.8929     3.8709     2.0174 C.ar    
  27 C27            8.8705     4.5069     2.7587 C.ar    
  28 C28            7.1909     5.9863     3.5777 C.ar    
  29 C29            6.2685     5.3029     2.8034 C.ar    
  30 N30            6.6402     4.2812     2.0577 N.ar    
  31 C31            8.5200     5.5855     3.5560 C.ar    
  32 F32            6.8038     7.0328     4.3394 F       
  33 C33            6.3843    -1.8966     1.1970 C.3     
  34 C34            7.1113    -1.3273    -0.0229 C.3     
  35 C35            7.7946     4.8860    -1.8527 C.3     
  36 H36            1.1446    -1.4383    -1.4614 H       
  37 H37            3.2512    -0.1860    -1.2901 H       
  38 H38            1.2599     2.8355     1.0202 H       
  39 H39            4.0584    -0.3255     0.8750 H       
  40 H40            4.7471    -0.4711    -0.7599 H       
  41 H41            3.6429     3.2393    -0.0142 H       
  42 H42            6.2709     0.8204     2.5847 H       
  43 H43            7.8645     0.2315     2.0448 H       
  44 H44           -1.3376    -1.1455    -2.5698 H       
  45 H45           -1.8510    -0.8288     1.6430 H       
  46 H46           -3.5489    -3.5968    -2.2386 H       
  47 H47           -4.8465    -2.4830    -1.7449 H       
  48 H48           -3.7997    -2.0738    -3.1251 H       
  49 H49           -0.2514     2.8111     2.4686 H       
  50 H50           -0.6449     3.6907     0.9720 H       
  51 H51           -1.9472     3.1794     2.0723 H       
  52 H52            9.0571     2.1226     1.6251 H       
  53 H53            9.4841     3.9919    -0.0728 H       
  54 H54            9.1982     2.3793    -0.7705 H       
  55 H55            9.8949     4.1675     2.7178 H       
  56 H56            5.2331     5.6099     2.8108 H       
  57 H57            9.2628     6.1013     4.1463 H       
  58 H58            6.9831    -2.1243     2.0789 H       
  59 H59            5.5425    -2.5646     1.0148 H       
  60 H60            6.7479    -1.6210    -1.0077 H       
  61 H61            8.1885    -1.1806     0.0564 H       
  62 H62            8.0645     4.5414    -2.8509 H       
  63 H63            6.8682     5.4581    -1.9039 H       
  64 H64            8.5906     5.5180    -1.4589 H       
@<TRIPOS>BOND
   1    1    2 ar
   2    1    6 ar
   3    1   20 1
   4    2    3 ar
   5    2   14 1
   6    3    4 ar
   7    3   36 1
   8    4    5 ar
   9    4   37 1
  10    5    6 ar
  11    5    9 1
  12    6   38 1
  13    7    8 1
  14    7   10 1
  15    7   39 1
  16    7   40 1
  17    8    9 2
  18    8   13 1
  19    9   41 1
  20   10   11 1
  21   10   33 1
  22   10   34 1
  23   11   12 1
  24   11   42 1
  25   11   43 1
  26   12   13 1
  27   12   22 1
  28   13   25 2
  29   14   15 1
  30   14   18 1
  31   15   16 2
  32   15   44 1
  33   16   17 1
  34   16   19 1
  35   17   18 2
  36   18   45 1
  37   19   46 1
  38   19   47 1
  39   19   48 1
  40   20   21 1
  41   21   49 1
  42   21   50 1
  43   21   51 1
  44   22   23 1
  45   22   26 1
  46   22   52 1
  47   23   24 1
  48   23   53 1
  49   23   54 1
  50   24   25 1
  51   24   35 1
  52   26   27 ar
  53   26   30 ar
  54   27   31 ar
  55   27   55 1
  56   28   29 ar
  57   28   32 1
  58   28   31 ar
  59   29   30 ar
  60   29   56 1
  61   31   57 1
  62   33   34 1
  63   33   58 1
  64   33   59 1
  65   34   60 1
  66   34   61 1
  67   35   62 1
  68   35   63 1
  69   35   64 1

#	End of record

