#	Name: ASD05130029
#	Creating user name:	WinNT
#	Creation time:	15. 06. 2019 20:56

#	Modifying user name:	WinNT
#	Modification time:	15. 06. 2019 20:56

#	Program:	/corina/corina34_cracker 3.40 0067  02.08.2006

@<TRIPOS>MOLECULE
ASD05130029
  60   64    0    0    0
SMALL
NO_CHARGES


@<TRIPOS>ATOM
   1 N1             0.0528     1.2400     0.0399 N.am    
   2 C2             0.0609     0.0510     0.6743 C.2     
   3 O3             1.1044    -0.4020     1.1036 O.2     
   4 N4            -1.0878    -0.6361     0.8328 N.am    
   5 C5            -1.0634    -1.9197     1.3815 C.ar    
   6 C6             0.0757    -2.6909     1.2958 C.ar    
   7 C7             0.1103    -3.9718     1.8388 C.ar    
   8 C8            -0.9763    -4.4979     2.4686 C.ar    
   9 C9            -2.1571    -3.7442     2.5778 C.ar    
  10 C10           -3.2945    -4.2616     3.2220 C.ar    
  11 C11           -4.4219    -3.5042     3.3095 C.ar    
  12 C12           -4.4673    -2.2205     2.7693 C.ar    
  13 C13           -3.3849    -1.6873     2.1385 C.ar    
  14 C14           -2.2027    -2.4369     2.0336 C.ar    
  15 C15            1.2294     1.9960    -0.0466 C.ar    
  16 C16            1.1592     3.3783    -0.1931 C.ar    
  17 C17            2.3189     4.1282    -0.2789 C.ar    
  18 C18            3.5524     3.5086    -0.2190 C.ar    
  19 C19            3.6308     2.1232    -0.0717 C.ar    
  20 C20            2.4623     1.3683     0.0195 C.ar    
  21 F21           -0.0442     3.9893    -0.2523 F       
  22 N22            6.9663     0.9393     1.2683 N.am    
  23 C23            5.7643     1.5454     1.2087 C.2     
  24 C24            4.9526     1.4568    -0.0073 C.2     
  25 C25            5.4226     0.7543    -1.0832 C.2     
  26 C26            6.6879     0.1266    -0.9961 C.ar    
  27 C27            7.2079    -0.6024    -2.0727 C.ar    
  28 N28            8.3855    -1.1797    -1.9753 N.ar    
  29 C29            9.1238    -1.1008    -0.8733 C.ar    
  30 C30            8.6842    -0.3985     0.2399 C.ar    
  31 C31            7.4461     0.2310     0.1907 C.ar    
  32 O32            5.3511     2.1694     2.1699 O.2     
  33 N33           10.3579    -1.7333    -0.8347 N.pl3   
  34 C34           11.1835    -1.6555     0.3730 C.3     
  35 C35            7.7711     1.0400     2.4882 C.3     
  36 C36            7.4240    -0.1186     3.4253 C.3     
  37 Cl37           5.0046     4.4536    -0.3275 Cl      
  38 H38           -0.7666     1.5706    -0.3603 H       
  39 H39           -1.9314    -0.2387     0.5658 H       
  40 H40            0.9512    -2.2969     0.8013 H       
  41 H41            1.0137    -4.5582     1.7592 H       
  42 H42           -0.9306    -5.4940     2.8836 H       
  43 H43           -3.2738    -5.2551     3.6450 H       
  44 H44           -5.2944    -3.9042     3.8046 H       
  45 H45           -5.3744    -1.6401     2.8519 H       
  46 H46           -3.4343    -0.6910     1.7245 H       
  47 H47            2.2596     5.2005    -0.3932 H       
  48 H48            2.5183     0.2962     0.1377 H       
  49 H49            4.8357     0.6796    -1.9867 H       
  50 H50            6.6393    -0.6912    -2.9866 H       
  51 H51            9.2938    -0.3424     1.1297 H       
  52 H52           10.6742    -2.2270    -1.6074 H       
  53 H53           11.4154    -0.6123     0.5881 H       
  54 H54           10.6399    -2.0875     1.2132 H       
  55 H55           12.1095    -2.2087     0.2164 H       
  56 H56            8.8292     0.9942     2.2303 H       
  57 H57            7.5592     1.9861     2.9863 H       
  58 H58            6.3660    -0.0729     3.6832 H       
  59 H59            7.6360    -1.0647     2.9272 H       
  60 H60            8.0229    -0.0437     4.3329 H       
@<TRIPOS>BOND
   1    1    2 am
   2    1   15 1
   3    1   38 1
   4    2    3 2
   5    2    4 am
   6    4    5 1
   7    4   39 1
   8    5    6 ar
   9    5   14 ar
  10    6    7 ar
  11    6   40 1
  12    7    8 ar
  13    7   41 1
  14    8    9 ar
  15    8   42 1
  16    9   10 ar
  17    9   14 ar
  18   10   11 ar
  19   10   43 1
  20   11   12 ar
  21   11   44 1
  22   12   13 ar
  23   12   45 1
  24   13   14 ar
  25   13   46 1
  26   15   16 ar
  27   15   20 ar
  28   16   17 ar
  29   16   21 1
  30   17   18 ar
  31   17   47 1
  32   18   19 ar
  33   18   37 1
  34   19   20 ar
  35   19   24 1
  36   20   48 1
  37   22   23 am
  38   22   31 1
  39   22   35 1
  40   23   24 1
  41   23   32 2
  42   24   25 2
  43   25   26 1
  44   25   49 1
  45   26   27 ar
  46   26   31 ar
  47   27   28 ar
  48   27   50 1
  49   28   29 ar
  50   29   30 ar
  51   29   33 1
  52   30   31 ar
  53   30   51 1
  54   33   34 1
  55   33   52 1
  56   34   53 1
  57   34   54 1
  58   34   55 1
  59   35   36 1
  60   35   56 1
  61   35   57 1
  62   36   58 1
  63   36   59 1
  64   36   60 1

#	End of record

