#	Name: ASD01911797
#	Creating user name:	WinNT
#	Creation time:	15. 06. 2019 19:58

#	Modifying user name:	WinNT
#	Modification time:	15. 06. 2019 19:58

#	Program:	/corina/corina34_cracker 3.40 0067  02.08.2006

@<TRIPOS>MOLECULE
ASD01911797
  52   55    0    0    0
SMALL
NO_CHARGES


@<TRIPOS>ATOM
   1 C1            -0.3487     1.5378     0.0103 C.2     
   2 N2            -0.2707     0.1899     0.3401 N.pl3   
   3 C3             1.7596     1.8539     1.0768 C.2     
   4 N4             1.7847     0.5454     1.3697 N.2     
   5 C5             0.8260    -0.2631     1.0267 C.2     
   6 C6            -1.3839    -0.4375    -0.1247 C.2     
   7 C7            -2.1835     0.5084    -0.7567 C.2     
   8 C8            -1.5103     1.7533    -0.6667 C.2     
   9 N9            -1.6717    -1.7858     0.0085 N.pl3   
  10 C10           -0.9247    -2.7332    -0.6984 C.ar    
  11 C11           -1.2553    -4.0826    -0.6190 C.ar    
  12 C12            0.1451    -2.3294    -1.4857 C.ar    
  13 C13            0.8810    -3.2680    -2.1834 C.ar    
  14 C14            0.5539    -4.6085    -2.0988 C.ar    
  15 C15           -0.5143    -5.0156    -1.3198 C.ar    
  16 F16           -2.2983    -4.4801     0.1422 F       
  17 C17            1.3596    -5.6283    -2.8616 C.3     
  18 C18           -3.4797     0.2631    -1.4016 C.2     
  19 N19           -4.1486     1.2809    -1.9787 N.am    
  20 O20           -3.9500    -0.8592    -1.4149 O.2     
  21 O21           -5.3986     1.0443    -2.6005 O.3     
  22 C22           -5.9945     2.2115    -3.1703 C.3     
  23 C23           -7.3332     1.8397    -3.8109 C.3     
  24 C24           -8.0290     3.1074    -4.3106 C.3     
  25 C25            0.7146     2.3908     0.4001 C.2     
  26 C26           -7.0898     0.8936    -4.9885 C.3     
  27 O27           -9.3285     2.7748    -4.8033 O.3     
  28 C28            2.0651    -6.7193    -2.0536 C.3     
  29 C29            0.8333    -7.0646    -2.8929 C.3     
  30 H30            2.5799     2.4862     1.3830 H       
  31 H31            0.8946    -1.3089     1.2873 H       
  32 H32           -1.8578     2.6985    -1.0568 H       
  33 H33           -2.3913    -2.0728     0.5921 H       
  34 H34            0.4017    -1.2825    -1.5531 H       
  35 H35            1.7130    -2.9537    -2.7961 H       
  36 H36           -0.7669    -6.0637    -1.2557 H       
  37 H37            1.8640    -5.2572    -3.7538 H       
  38 H38           -3.7738     2.1755    -1.9681 H       
  39 H39           -6.1592     2.9536    -2.3890 H       
  40 H40           -5.3306     2.6246    -3.9296 H       
  41 H41           -7.9647     1.3457    -3.0725 H       
  42 H42           -8.1226     3.8182    -3.4896 H       
  43 H43           -7.4399     3.5534    -5.1119 H       
  44 H44            0.6928     3.4442     0.1630 H       
  45 H45           -6.5941    -0.0095    -4.6325 H       
  46 H46           -8.0435     0.6287    -5.4449 H       
  47 H47           -6.4583     1.3877    -5.7269 H       
  48 H48           -9.8283     3.5323    -5.1372 H       
  49 H49            3.0333    -7.0663    -2.4143 H       
  50 H50            1.9464    -6.6995    -0.9702 H       
  51 H51           -0.0957    -7.2719    -2.3618 H       
  52 H52            0.9913    -7.6387    -3.8059 H       
@<TRIPOS>BOND
   1    1    2 1
   2    1   25 1
   3    1    8 2
   4    2    6 1
   5    2    5 1
   6    3    4 1
   7    3   25 2
   8    3   30 1
   9    4    5 2
  10    5   31 1
  11    6    7 2
  12    6    9 1
  13    7    8 1
  14    7   18 1
  15    8   32 1
  16    9   10 1
  17    9   33 1
  18   10   11 ar
  19   10   12 ar
  20   11   16 1
  21   11   15 ar
  22   12   13 ar
  23   12   34 1
  24   13   14 ar
  25   13   35 1
  26   14   15 ar
  27   14   17 1
  28   15   36 1
  29   17   28 1
  30   17   29 1
  31   17   37 1
  32   18   19 am
  33   18   20 2
  34   19   21 1
  35   19   38 1
  36   21   22 1
  37   22   23 1
  38   22   39 1
  39   22   40 1
  40   23   24 1
  41   23   26 1
  42   23   41 1
  43   24   27 1
  44   24   42 1
  45   24   43 1
  46   25   44 1
  47   26   45 1
  48   26   46 1
  49   26   47 1
  50   27   48 1
  51   28   29 1
  52   28   49 1
  53   28   50 1
  54   29   51 1
  55   29   52 1

#	End of record

