#	Name: ASD06610014
#	Creating user name:	WinNT
#	Creation time:	15. 06. 2019 21:07

#	Modifying user name:	WinNT
#	Modification time:	15. 06. 2019 21:07

#	Program:	/corina/corina34_cracker 3.40 0067  02.08.2006

@<TRIPOS>MOLECULE
ASD06610014
 340  341    0    0    0
SMALL
NO_CHARGES


@<TRIPOS>ATOM
   1 C1            -4.3811   -11.2204    -9.2508 C.2     
   2 O2            -4.4872   -12.4071    -9.0239 O.2     
   3 N3            -2.0532   -11.7044    -9.7361 N.am    
   4 C4            -3.0891   -10.6704    -9.7979 C.3     
   5 C5            -3.2934   -10.2393   -11.2516 C.3     
   6 C6            -1.9887    -9.6568   -11.7989 C.3     
   7 O7            -3.6750   -11.3718   -12.0351 O.3     
   8 C8            -7.8135    -9.9934    -8.9750 C.2     
   9 O9            -7.5507    -8.9618    -9.5561 O.2     
  10 N10           -5.4205   -10.3944    -9.0188 N.am    
  11 C11           -6.7087   -10.9417    -8.5862 C.3     
  12 C12           -6.7021   -11.1216    -7.0668 C.3     
  13 C13           -5.5804   -12.0844    -6.6722 C.3     
  14 C14           -6.4717    -9.7670    -6.3939 C.3     
  15 C15          -11.3461    -9.5679    -8.1366 C.2     
  16 O16          -11.2940   -10.3977    -7.2536 O.2     
  17 N17           -9.0936   -10.2915    -8.6768 N.am    
  18 C18          -10.1676    -9.3696    -9.0547 C.3     
  19 C19          -10.5931    -9.6465   -10.4980 C.3     
  20 C20           -9.4504    -9.3301   -11.4281 C.ar    
  21 C21           -8.5330   -10.3113   -11.7546 C.ar    
  22 C22           -7.4848   -10.0211   -12.6077 C.ar    
  23 C23           -7.3542    -8.7498   -13.1348 C.ar    
  24 C24           -8.2722    -7.7689   -12.8090 C.ar    
  25 C25           -9.3228    -8.0603   -11.9593 C.ar    
  26 C26          -14.8642    -8.5756    -8.1029 C.2     
  27 O27          -14.8109    -8.1432    -9.2348 O.2     
  28 N28          -12.4579    -8.8232    -8.2968 N.am    
  29 C29          -13.6036    -9.0160    -7.4044 C.3     
  30 C30          -13.4069    -8.1847    -6.1351 C.3     
  31 C31          -12.1976    -8.7137    -5.3613 C.3     
  32 C32          -12.0008    -7.8824    -4.0920 C.3     
  33 N33          -10.8429    -8.3889    -3.3512 N.pl3   
  34 C34          -10.4699    -7.7949    -2.1687 C.2     
  35 N35           -9.4396    -8.2456    -1.5096 N.2     
  36 N36          -11.1835    -6.7256    -1.6815 N.pl3   
  37 C37          -18.3093    -7.8446    -7.1230 C.2     
  38 O38          -18.0476    -7.9175    -5.9410 O.2     
  39 N39          -16.0509    -8.6622    -7.4698 N.am    
  40 C40          -17.2763    -8.2340    -8.1489 C.3     
  41 C41          -17.8142    -9.3836    -9.0033 C.3     
  42 O42          -18.2097   -10.4632    -8.1546 O.3     
  43 C43          -21.9058    -7.1904    -7.1127 C.2     
  44 O44          -22.0361    -7.5780    -8.2545 O.2     
  45 N45          -19.5239    -7.4153    -7.5190 N.am    
  46 C46          -20.5281    -7.0367    -6.5217 C.3     
  47 C47          -20.3107    -5.5802    -6.1066 C.3     
  48 O48          -20.5490    -4.7251    -7.2265 O.3     
  49 C49          -25.2914    -6.1309    -6.2305 C.2     
  50 O50          -24.8950    -5.4231    -5.3289 O.2     
  51 N51          -22.9932    -6.8972    -6.3723 N.am    
  52 C52          -24.3325    -7.0466    -6.9468 C.3     
  53 C53          -24.7966    -8.4958    -6.7884 C.3     
  54 C54          -23.8959    -9.4134    -7.6176 C.3     
  55 C55          -24.3600   -10.8626    -7.4592 C.3     
  56 N56          -23.4975   -11.7412    -8.2532 N.pl3   
  57 C57          -23.7237   -13.0972    -8.2669 C.2     
  58 N58          -24.7055   -13.6012    -7.5734 N.2     
  59 N59          -22.9143   -13.9217    -9.0120 N.pl3   
  60 C60          -28.9211    -5.7546    -6.0135 C.2     
  61 O61          -29.1202    -6.7860    -6.6197 O.2     
  62 N62          -26.5894    -6.0984    -6.5918 N.am    
  63 C63          -27.5216    -5.2083    -5.8954 C.3     
  64 C64          -27.4632    -3.8151    -6.5252 C.3     
  65 C65          -26.0771    -3.2093    -6.2957 C.3     
  66 C66          -26.0195    -1.8371    -6.9160 C.2     
  67 O67          -26.9878    -1.3896    -7.4834 O.2     
  68 O68          -24.8926    -1.1121    -6.8381 O.3     
  69 C69          -32.3040    -4.5025    -5.4211 C.2     
  70 O70          -31.9132    -3.3682    -5.2435 O.2     
  71 N71          -29.9513    -5.0971    -5.4455 N.am    
  72 C72          -31.3118    -5.6283    -5.5603 C.3     
  73 C73          -31.5518    -6.6591    -4.4555 C.3     
  74 C74          -30.6288    -7.8604    -4.6697 C.3     
  75 C75          -30.8688    -8.8913    -3.5648 C.3     
  76 C76          -29.9458   -10.0926    -3.7790 C.3     
  77 N77          -30.1762   -11.0824    -2.7182 N.3     
  78 C78          -35.9055    -4.2094    -4.8675 C.2     
  79 O79          -36.0254    -5.3969    -4.6517 O.2     
  80 N80          -33.6257    -4.7563    -5.4940 N.am    
  81 C81          -34.5902    -3.6619    -5.3586 C.3     
  82 C82          -34.7932    -2.9900    -6.7181 C.3     
  83 C83          -33.4871    -2.3262    -7.1591 C.3     
  84 C84          -33.6902    -1.6543    -8.5185 C.3     
  85 N85          -32.4396    -1.0187    -8.9408 N.pl3   
  86 C86          -32.3797    -0.3484   -10.1397 C.2     
  87 N87          -33.4356    -0.2786   -10.9007 N.2     
  88 N88          -31.2061     0.2480   -10.5359 N.pl3   
  89 C89          -39.3439    -2.9940    -4.6165 C.2     
  90 O90          -39.0961    -1.9937    -5.2561 O.2     
  91 N91          -36.9485    -3.3796    -4.6680 N.am    
  92 C92          -38.2272    -3.9118    -4.1905 C.3     
  93 C93          -38.2011    -4.0087    -2.6638 C.3     
  94 C94          -37.1502    -5.0351    -2.2358 C.3     
  95 C95          -37.1241    -5.1320    -0.7091 C.3     
  96 N96          -36.1179    -6.1148    -0.2993 N.pl3   
  97 C97          -35.9134    -6.3735     1.0354 C.2     
  98 N98          -35.0181    -7.2479     1.4000 N.2     
  99 N99          -36.6530    -5.7100     1.9855 N.pl3   
 100 C100         -42.8695    -2.5490    -3.7592 C.2     
 101 O101         -42.8005    -3.3291    -2.8332 O.2     
 102 N102         -40.6180    -3.2847    -4.2869 N.am    
 103 C103         -41.7036    -2.3924    -4.7011 C.3     
 104 C104         -42.1441    -2.7505    -6.1219 C.3     
 105 O105         -42.7098    -4.0627    -6.1287 O.3     
 106 C106         -46.3947    -1.5817    -3.7362 C.2     
 107 O107         -46.3582    -1.2111    -4.8905 O.2     
 108 N108         -43.9890    -1.8221    -3.9460 N.am    
 109 C109         -45.1225    -1.9744    -3.0304 C.3     
 110 C110         -44.9172    -1.0739    -1.8105 C.3     
 111 C111         -49.8335    -0.8233    -2.7552 C.2     
 112 O112         -49.5572    -0.8300    -1.5743 O.2     
 113 N113         -47.5730    -1.6422    -3.0848 N.am    
 114 C114         -48.8098    -1.2605    -3.7710 C.3     
 115 C115         -49.3488    -2.4587    -4.5551 C.3     
 116 C116         -53.4115    -0.2851    -2.5917 C.2     
 117 O117         -53.5896    -0.9464    -3.5926 O.2     
 118 N118         -51.0561    -0.4249    -3.1590 N.am    
 119 C119         -52.0136     0.1031    -2.1840 C.3     
 120 C120         -51.9019     1.6282    -2.1340 C.3     
 121 C121         -52.0443     2.1966    -3.5474 C.3     
 122 C122         -53.4706     1.9635    -4.0495 C.3     
 123 C123         -50.5387     2.0213    -1.5613 C.3     
 124 C124         -56.8293     0.6089    -1.6522 C.2     
 125 O125         -56.4665     1.6060    -1.0649 O.2     
 126 N126         -54.4637     0.1026    -1.8440 N.am    
 127 C127         -55.8102    -0.3719    -2.1725 C.3     
 128 C128         -56.0412    -1.7389    -1.5253 C.3     
 129 C129         -55.1030    -2.7483    -2.1351 C.ar    
 130 C130         -53.8539    -2.9545    -1.5800 C.ar    
 131 C131         -52.9933    -3.8804    -2.1393 C.ar    
 132 C132         -53.3819    -4.6005    -3.2535 C.ar    
 133 C133         -54.6313    -4.3950    -3.8080 C.ar    
 134 C134         -55.4936    -3.4722    -3.2461 C.ar    
 135 C135         -59.4342     1.0252     0.1109 C.2     
 136 O136         -58.8775     0.1051     0.6617 O.2     
 137 N137         -58.1438     0.3779    -1.8396 N.am    
 138 C138         -59.1345     1.3313    -1.3339 C.3     
 139 C139         -60.4192     1.2165    -2.1567 C.3     
 140 C140         -61.4083     2.2954    -1.7112 C.3     
 141 C141         -62.6418     2.2614    -2.6158 C.3     
 142 C142         -61.0406    -0.1650    -1.9420 C.3     
 143 O143         -60.3197     1.7748     0.7860 O.3     
 144 C144          -0.7532   -11.3534    -9.6792 C.2     
 145 O145          -0.4409   -10.1815    -9.6791 O.2     
 146 C146          17.5342   -15.3445    -8.7669 C.3     
 147 C147          16.4523   -14.2646    -8.8314 C.3     
 148 C148          15.0739   -14.9263    -8.8882 C.3     
 149 C149          13.9920   -13.8464    -8.9527 C.3     
 150 C150          12.6137   -14.5081    -9.0094 C.3     
 151 C151          11.5318   -13.4282    -9.0739 C.3     
 152 C152          10.1535   -14.0899    -9.1307 C.3     
 153 C153           9.0716   -13.0100    -9.1952 C.3     
 154 C154           7.6932   -13.6717    -9.2519 C.3     
 155 C155           6.6113   -12.5918    -9.3164 C.3     
 156 C156           5.2330   -13.2535    -9.3732 C.3     
 157 C157           4.1511   -12.1736    -9.4377 C.3     
 158 C158           2.7727   -12.8353    -9.4944 C.3     
 159 C159           1.6908   -11.7554    -9.5589 C.3     
 160 C160           0.3125   -12.4171    -9.6157 C.3     
 161 H161          -2.3029   -12.6417    -9.7362 H       
 162 H162          -2.7799    -9.8104    -9.2039 H       
 163 H163          -4.0772    -9.4834   -11.2997 H       
 164 H164          -1.2341   -10.4416   -11.8511 H       
 165 H165          -2.1617    -9.2521   -12.7961 H       
 166 H166          -1.6410    -8.8616   -11.1394 H       
 167 H167          -4.4956   -11.7927   -11.7444 H       
 168 H168          -5.3156    -9.4375    -9.1383 H       
 169 H169          -6.8729   -11.9068    -9.0656 H       
 170 H170          -7.6605   -11.5288    -6.7450 H       
 171 H171          -5.7446   -13.0495    -7.1515 H       
 172 H172          -4.6220   -11.6772    -6.9940 H       
 173 H173          -5.5757   -12.2126    -5.5897 H       
 174 H174          -7.2707    -9.0810    -6.6751 H       
 175 H175          -6.4669    -9.8951    -5.3115 H       
 176 H176          -5.5132    -9.3597    -6.7158 H       
 177 H177          -9.3038   -11.1165    -8.2119 H       
 178 H178          -9.8111    -8.3429    -8.9716 H       
 179 H179         -10.8656   -10.6968   -10.6013 H       
 180 H180         -11.4504    -9.0223   -10.7501 H       
 181 H181          -8.6350   -11.3045   -11.3428 H       
 182 H182          -6.7676   -10.7874   -12.8622 H       
 183 H183          -6.5349    -8.5229   -13.8008 H       
 184 H184          -8.1700    -6.7756   -13.2206 H       
 185 H185         -10.0421    -7.2949   -11.7077 H       
 186 H186         -12.4996    -8.1596    -9.0031 H       
 187 H187         -13.6844   -10.0702    -7.1394 H       
 188 H188         -13.2374    -7.1426    -6.4059 H       
 189 H189         -14.2977    -8.2578    -5.5112 H       
 190 H190         -12.3670    -9.7558    -5.0905 H       
 191 H191         -11.3067    -8.6406    -5.9852 H       
 192 H192         -11.8314    -6.8403    -4.3628 H       
 193 H193         -12.8916    -7.9555    -3.4681 H       
 194 H194         -10.3394    -9.1434    -3.6949 H       
 195 H195          -9.1765    -7.8265    -0.6753 H       
 196 H196         -11.9502    -6.3902    -2.1720 H       
 197 H197         -10.9204    -6.3065    -0.8473 H       
 198 H198         -16.0935    -9.0080    -6.5646 H       
 199 H199         -17.0578    -7.3781    -8.7875 H       
 200 H200         -18.6745    -9.0384    -9.5768 H       
 201 H201         -17.0356    -9.7244    -9.6857 H       
 202 H202         -18.5615   -11.2284    -8.6298 H       
 203 H203         -19.7332    -7.3570    -8.4644 H       
 204 H204         -20.4335    -7.6815    -5.6480 H       
 205 H205         -20.9999    -5.3252    -5.3016 H       
 206 H206         -19.2850    -5.4499    -5.7617 H       
 207 H207         -20.4295    -3.7847    -7.0357 H       
 208 H208         -22.8890    -6.5872    -5.4591 H       
 209 H209         -24.3049    -6.7876    -8.0052 H       
 210 H210         -24.7396    -8.7829    -5.7384 H       
 211 H211         -25.8261    -8.5876    -7.1347 H       
 212 H212         -23.9529    -9.1263    -8.6676 H       
 213 H213         -22.8664    -9.3216    -7.2713 H       
 214 H214         -24.3029   -11.1497    -6.4092 H       
 215 H215         -25.3894   -10.9544    -7.8055 H       
 216 H216         -22.7668   -11.3662    -8.7693 H       
 217 H217         -24.8651   -14.5579    -7.5830 H       
 218 H218         -22.1836   -13.5467    -9.5281 H       
 219 H219         -23.0739   -14.8784    -9.0216 H       
 220 H220         -26.9064    -6.6645    -7.3129 H       
 221 H221         -27.2445    -5.1433    -4.8432 H       
 222 H222         -27.6533    -3.8920    -7.5957 H       
 223 H223         -28.2189    -3.1772    -6.0669 H       
 224 H224         -25.8869    -3.1324    -5.2251 H       
 225 H225         -25.3213    -3.8472    -6.7540 H       
 226 H226         -24.9037    -0.2378    -7.2510 H       
 227 H227         -29.7921    -4.2722    -4.9607 H       
 228 H228         -31.4355    -6.1033    -6.5335 H       
 229 H229         -31.3417    -6.2079    -3.4857 H       
 230 H230         -32.5903    -6.9889    -4.4855 H       
 231 H231         -30.8389    -8.3116    -5.6394 H       
 232 H232         -29.5903    -7.5307    -4.6396 H       
 233 H233         -30.6587    -8.4401    -2.5951 H       
 234 H234         -31.9073    -9.2210    -3.5949 H       
 235 H235         -30.1559   -10.5438    -4.7487 H       
 236 H236         -28.9073    -9.7629    -3.7490 H       
 237 H237         -29.5780   -11.8861    -2.8375 H       
 238 H238         -30.0506   -10.6703    -1.8058 H       
 239 H239         -33.9382    -5.6634    -5.6360 H       
 240 H240         -34.2118    -2.9303    -4.6447 H       
 241 H241         -35.0863    -3.7392    -7.4535 H       
 242 H242         -35.5752    -2.2350    -6.6371 H       
 243 H243         -33.1940    -1.5770    -6.4236 H       
 244 H244         -32.7051    -3.0812    -7.2401 H       
 245 H245         -33.9833    -2.4035    -9.2540 H       
 246 H246         -34.4722    -0.8993    -8.4375 H       
 247 H247         -31.6538    -1.0707    -8.3744 H       
 248 H248         -33.3934     0.1943   -11.7465 H       
 249 H249         -30.4203     0.1960    -9.9696 H       
 250 H250         -31.1639     0.7209   -11.3818 H       
 251 H251         -36.8526    -2.4299    -4.8405 H       
 252 H252         -38.3894    -4.9027    -4.6147 H       
 253 H253         -37.9509    -3.0352    -2.2421 H       
 254 H254         -39.1812    -4.3201    -2.3026 H       
 255 H255         -37.4004    -6.0086    -2.6574 H       
 256 H256         -36.1700    -4.7238    -2.5969 H       
 257 H257         -36.8740    -4.1585    -0.2875 H       
 258 H258         -38.1043    -5.4434    -0.3480 H       
 259 H259         -35.5960    -6.5830    -0.9696 H       
 260 H260         -34.8738    -7.4305     2.3417 H       
 261 H261         -37.3193    -5.0593     1.7142 H       
 262 H262         -36.5087    -5.8925     2.9272 H       
 263 H263         -40.8162    -4.0847    -3.7754 H       
 264 H264         -41.3542    -1.3602    -4.6783 H       
 265 H265         -42.8891    -2.0318    -6.4633 H       
 266 H266         -41.2813    -2.7233    -6.7875 H       
 267 H267         -43.0116    -4.3564    -6.9992 H       
 268 H268         -44.0443    -1.1982    -4.6866 H       
 269 H269         -45.1918    -3.0132    -2.7076 H       
 270 H270         -44.8479    -0.0351    -2.1333 H       
 271 H271         -45.7605    -1.1872    -1.1293 H       
 272 H272         -43.9970    -1.3579    -1.3000 H       
 273 H273         -47.6022    -1.9386    -2.1617 H       
 274 H274         -48.6056    -0.4391    -4.4578 H       
 275 H275         -50.2690    -2.1747    -5.0656 H       
 276 H276         -48.6083    -2.7749    -5.2898 H       
 277 H277         -49.5530    -3.2802    -3.8683 H       
 278 H278         -51.3021    -0.4879    -4.0952 H       
 279 H279         -51.7944    -0.3097    -1.1993 H       
 280 H280         -52.6920     2.0298    -1.4996 H       
 281 H281         -51.8348     3.2662    -3.5317 H       
 282 H282         -51.3390     1.6980    -4.2123 H       
 283 H283         -53.5897     0.9177    -4.3329 H       
 284 H284         -54.1790     2.2084    -3.2581 H       
 285 H285         -53.6593     2.5983    -4.9153 H       
 286 H286         -49.7486     1.5707    -2.1620 H       
 287 H287         -50.4357     3.1062    -1.5803 H       
 288 H288         -50.4606     1.6669    -0.5334 H       
 289 H289         -54.3294     0.6959    -1.0884 H       
 290 H290         -55.9104    -0.4604    -3.2543 H       
 291 H291         -55.8541    -1.6698    -0.4537 H       
 292 H292         -57.0715    -2.0517    -1.6949 H       
 293 H293         -53.5503    -2.3919    -0.7095 H       
 294 H294         -52.0171    -4.0410    -1.7061 H       
 295 H295         -52.7092    -5.3234    -3.6909 H       
 296 H296         -54.9349    -4.9573    -4.6787 H       
 297 H297         -56.4712    -3.3142    -3.6771 H       
 298 H298         -58.4339    -0.4196    -2.3094 H       
 299 H299         -58.7394     2.3438    -1.4164 H       
 300 H300         -60.1872     1.3503    -3.2133 H       
 301 H301         -61.7087     2.1095    -0.6800 H       
 302 H302         -60.9338     3.2743    -1.7805 H       
 303 H303         -63.1163     1.2826    -2.5464 H       
 304 H304         -63.3465     3.0301    -2.2984 H       
 305 H305         -62.3414     2.4473    -3.6469 H       
 306 H306         -61.2727    -0.2988    -0.8854 H       
 307 H307         -61.9559    -0.2468    -2.5282 H       
 308 H308         -60.3360    -0.9337    -2.2594 H       
 309 H309         -60.4791     1.5401     1.7105 H       
 310 H310          18.5161   -14.8731    -8.7265 H       
 311 H311          17.3867   -15.9538    -7.8752 H       
 312 H312          17.4705   -15.9760    -9.6531 H       
 313 H313          16.5160   -13.6331    -7.9453 H       
 314 H314          16.5998   -13.6553    -9.7231 H       
 315 H315          15.0103   -15.5578    -9.7743 H       
 316 H316          14.9264   -15.5356    -7.9965 H       
 317 H317          14.0557   -13.2149    -8.0665 H       
 318 H318          14.1396   -13.2371    -9.8444 H       
 319 H319          12.5500   -15.1396    -9.8956 H       
 320 H320          12.4662   -15.1174    -8.1177 H       
 321 H321          11.5955   -12.7967    -8.1878 H       
 322 H322          11.6793   -12.8189    -9.9656 H       
 323 H323          10.0898   -14.7214   -10.0168 H       
 324 H324          10.0059   -14.6992    -8.2390 H       
 325 H325           9.1352   -12.3785    -8.3090 H       
 326 H326           9.2191   -12.4007   -10.0869 H       
 327 H327           7.6295   -14.3032   -10.1381 H       
 328 H328           7.5457   -14.2810    -8.3602 H       
 329 H329           6.6750   -11.9603    -8.4303 H       
 330 H330           6.7588   -11.9825   -10.2081 H       
 331 H331           5.1693   -13.8850   -10.2593 H       
 332 H332           5.0855   -13.8628    -8.4815 H       
 333 H333           4.2147   -11.5421    -8.5515 H       
 334 H334           4.2986   -11.5643   -10.3294 H       
 335 H335           2.7091   -13.4668   -10.3806 H       
 336 H336           2.6252   -13.4446    -8.6027 H       
 337 H337           1.7545   -11.1239    -8.6728 H       
 338 H338           1.8383   -11.1461   -10.4506 H       
 339 H339           0.1650   -13.0264    -8.7240 H       
 340 H340           0.2488   -13.0486   -10.5018 H       
@<TRIPOS>BOND
   1    1    2 2
   2    1    4 1
   3    1   10 am
   4    3  144 am
   5    3    4 1
   6    3  161 1
   7    4    5 1
   8    4  162 1
   9    5    6 1
  10    5    7 1
  11    5  163 1
  12    6  164 1
  13    6  165 1
  14    6  166 1
  15    7  167 1
  16    8    9 2
  17    8   11 1
  18    8   17 am
  19   10   11 1
  20   10  168 1
  21   11   12 1
  22   11  169 1
  23   12   13 1
  24   12   14 1
  25   12  170 1
  26   13  171 1
  27   13  172 1
  28   13  173 1
  29   14  174 1
  30   14  175 1
  31   14  176 1
  32   15   16 2
  33   15   18 1
  34   15   28 am
  35   17   18 1
  36   17  177 1
  37   18   19 1
  38   18  178 1
  39   19   20 1
  40   19  179 1
  41   19  180 1
  42   20   21 ar
  43   20   25 ar
  44   21   22 ar
  45   21  181 1
  46   22   23 ar
  47   22  182 1
  48   23   24 ar
  49   23  183 1
  50   24   25 ar
  51   24  184 1
  52   25  185 1
  53   26   27 2
  54   26   29 1
  55   26   39 am
  56   28   29 1
  57   28  186 1
  58   29   30 1
  59   29  187 1
  60   30   31 1
  61   30  188 1
  62   30  189 1
  63   31   32 1
  64   31  190 1
  65   31  191 1
  66   32   33 1
  67   32  192 1
  68   32  193 1
  69   33   34 1
  70   33  194 1
  71   34   35 2
  72   34   36 1
  73   35  195 1
  74   36  196 1
  75   36  197 1
  76   37   38 2
  77   37   40 1
  78   37   45 am
  79   39   40 1
  80   39  198 1
  81   40   41 1
  82   40  199 1
  83   41   42 1
  84   41  200 1
  85   41  201 1
  86   42  202 1
  87   43   44 2
  88   43   46 1
  89   43   51 am
  90   45   46 1
  91   45  203 1
  92   46   47 1
  93   46  204 1
  94   47   48 1
  95   47  205 1
  96   47  206 1
  97   48  207 1
  98   49   50 2
  99   49   52 1
 100   49   62 am
 101   51   52 1
 102   51  208 1
 103   52   53 1
 104   52  209 1
 105   53   54 1
 106   53  210 1
 107   53  211 1
 108   54   55 1
 109   54  212 1
 110   54  213 1
 111   55   56 1
 112   55  214 1
 113   55  215 1
 114   56   57 1
 115   56  216 1
 116   57   58 2
 117   57   59 1
 118   58  217 1
 119   59  218 1
 120   59  219 1
 121   60   61 2
 122   60   63 1
 123   60   71 am
 124   62   63 1
 125   62  220 1
 126   63   64 1
 127   63  221 1
 128   64   65 1
 129   64  222 1
 130   64  223 1
 131   65   66 1
 132   65  224 1
 133   65  225 1
 134   66   67 2
 135   66   68 1
 136   68  226 1
 137   69   70 2
 138   69   72 1
 139   69   80 am
 140   71   72 1
 141   71  227 1
 142   72   73 1
 143   72  228 1
 144   73   74 1
 145   73  229 1
 146   73  230 1
 147   74   75 1
 148   74  231 1
 149   74  232 1
 150   75   76 1
 151   75  233 1
 152   75  234 1
 153   76   77 1
 154   76  235 1
 155   76  236 1
 156   77  237 1
 157   77  238 1
 158   78   79 2
 159   78   81 1
 160   78   91 am
 161   80   81 1
 162   80  239 1
 163   81   82 1
 164   81  240 1
 165   82   83 1
 166   82  241 1
 167   82  242 1
 168   83   84 1
 169   83  243 1
 170   83  244 1
 171   84   85 1
 172   84  245 1
 173   84  246 1
 174   85   86 1
 175   85  247 1
 176   86   87 2
 177   86   88 1
 178   87  248 1
 179   88  249 1
 180   88  250 1
 181   89   90 2
 182   89   92 1
 183   89  102 am
 184   91   92 1
 185   91  251 1
 186   92   93 1
 187   92  252 1
 188   93   94 1
 189   93  253 1
 190   93  254 1
 191   94   95 1
 192   94  255 1
 193   94  256 1
 194   95   96 1
 195   95  257 1
 196   95  258 1
 197   96   97 1
 198   96  259 1
 199   97   98 2
 200   97   99 1
 201   98  260 1
 202   99  261 1
 203   99  262 1
 204  100  101 2
 205  100  103 1
 206  100  108 am
 207  102  103 1
 208  102  263 1
 209  103  104 1
 210  103  264 1
 211  104  105 1
 212  104  265 1
 213  104  266 1
 214  105  267 1
 215  106  107 2
 216  106  109 1
 217  106  113 am
 218  108  109 1
 219  108  268 1
 220  109  110 1
 221  109  269 1
 222  110  270 1
 223  110  271 1
 224  110  272 1
 225  111  112 2
 226  111  114 1
 227  111  118 am
 228  113  114 1
 229  113  273 1
 230  114  115 1
 231  114  274 1
 232  115  275 1
 233  115  276 1
 234  115  277 1
 235  116  117 2
 236  116  119 1
 237  116  126 am
 238  118  119 1
 239  118  278 1
 240  119  120 1
 241  119  279 1
 242  120  121 1
 243  120  123 1
 244  120  280 1
 245  121  122 1
 246  121  281 1
 247  121  282 1
 248  122  283 1
 249  122  284 1
 250  122  285 1
 251  123  286 1
 252  123  287 1
 253  123  288 1
 254  124  125 2
 255  124  127 1
 256  124  137 am
 257  126  127 1
 258  126  289 1
 259  127  128 1
 260  127  290 1
 261  128  129 1
 262  128  291 1
 263  128  292 1
 264  129  130 ar
 265  129  134 ar
 266  130  131 ar
 267  130  293 1
 268  131  132 ar
 269  131  294 1
 270  132  133 ar
 271  132  295 1
 272  133  134 ar
 273  133  296 1
 274  134  297 1
 275  135  136 2
 276  135  138 1
 277  135  143 1
 278  137  138 1
 279  137  298 1
 280  138  139 1
 281  138  299 1
 282  139  140 1
 283  139  142 1
 284  139  300 1
 285  140  141 1
 286  140  301 1
 287  140  302 1
 288  141  303 1
 289  141  304 1
 290  141  305 1
 291  142  306 1
 292  142  307 1
 293  142  308 1
 294  143  309 1
 295  144  145 2
 296  144  160 1
 297  146  147 1
 298  146  310 1
 299  146  311 1
 300  146  312 1
 301  147  148 1
 302  147  313 1
 303  147  314 1
 304  148  149 1
 305  148  315 1
 306  148  316 1
 307  149  150 1
 308  149  317 1
 309  149  318 1
 310  150  151 1
 311  150  319 1
 312  150  320 1
 313  151  152 1
 314  151  321 1
 315  151  322 1
 316  152  153 1
 317  152  323 1
 318  152  324 1
 319  153  154 1
 320  153  325 1
 321  153  326 1
 322  154  155 1
 323  154  327 1
 324  154  328 1
 325  155  156 1
 326  155  329 1
 327  155  330 1
 328  156  157 1
 329  156  331 1
 330  156  332 1
 331  157  158 1
 332  157  333 1
 333  157  334 1
 334  158  159 1
 335  158  335 1
 336  158  336 1
 337  159  160 1
 338  159  337 1
 339  159  338 1
 340  160  339 1
 341  160  340 1

#	End of record

