#	Name: ASD09200044
#	Creating user name:	WinNT
#	Creation time:	15. 06. 2019 21:21

#	Modifying user name:	WinNT
#	Modification time:	15. 06. 2019 21:21

#	Program:	/corina/corina34_cracker 3.40 0067  02.08.2006

@<TRIPOS>MOLECULE
ASD09200044
  65   70    0    0    0
SMALL
NO_CHARGES


@<TRIPOS>ATOM
   1 C1            -0.4049     1.9402    -2.6327 C.ar    
   2 C2            -0.2426     0.5821    -2.8773 C.ar    
   3 C3            -0.3347    -0.3259    -1.8337 C.ar    
   4 C4            -0.5884     0.1135    -0.5464 C.ar    
   5 C5            -0.7516     1.4591    -0.2898 C.ar    
   6 C6            -0.6557     2.3848    -1.3304 C.ar    
   7 O7             0.0061     0.1435    -4.1404 O.3     
   8 C8             0.1620    -1.2657    -4.3190 C.3     
   9 O9            -0.3148     2.8333    -3.6535 O.3     
  10 C10           -0.8299     3.8270    -1.0591 C.2     
  11 N11            0.0972     4.7555    -1.1352 N.2     
  12 N12           -0.4021     5.9005    -0.8336 N.2     
  13 C13           -1.6803     5.7763    -0.5456 C.2     
  14 N14           -1.9927     4.4545    -0.6852 N.pl3   
  15 N15           -2.6317     6.7050    -0.1698 N.am    
  16 C16           -3.9052     6.3343     0.0781 C.2     
  17 C17           -4.2722     4.9131    -0.0588 C.ar    
  18 C18           -3.2818     3.9962    -0.4493 C.ar    
  19 C19           -5.5715     4.4730     0.1838 C.ar    
  20 C20           -5.8749     3.1346     0.0443 C.ar    
  21 C21           -4.8957     2.2303    -0.3343 C.ar    
  22 C22           -3.6056     2.6549    -0.5845 C.ar    
  23 O23           -4.7361     7.1586     0.4091 O.2     
  24 C24           -2.2519     8.1138    -0.0379 C.3     
  25 C25           -1.6272     8.3412     1.3145 C.ar    
  26 C26           -0.2522     8.2914     1.4551 C.ar    
  27 C27            0.3264     8.4992     2.6904 C.ar    
  28 C28           -0.4786     8.7600     3.8001 C.ar    
  29 C29           -1.8657     8.8091     3.6527 C.ar    
  30 C30           -2.4321     8.6048     2.4103 C.ar    
  31 Cl31          -4.1570     8.6652     2.2239 Cl      
  32 C32            0.1353     8.9830     5.1266 C.2     
  33 N33           -0.4988     9.7400     6.0439 N.am    
  34 O34            1.2117     8.4836     5.3898 O.2     
  35 C35            0.0466    10.1409     7.3490 C.3     
  36 C36           -1.0175    11.0192     8.0401 C.3     
  37 C37           -1.8721    11.5305     6.8502 C.3     
  38 C38           -1.8516    10.3084     5.9021 C.3     
  39 C39            0.3244     8.9186     8.1857 C.2     
  40 O40            0.0927     7.8183     7.7435 O.2     
  41 O41            0.8292     9.0523     9.4223 O.3     
  42 H42            0.9641    10.7122     7.2077 H       
  43 H43           -0.2082    -1.3811    -2.0264 H       
  44 H44           -0.6594    -0.6002     0.2611 H       
  45 H45           -0.9494     1.7968     0.7168 H       
  46 H46           -0.7499    -1.7746    -4.0064 H       
  47 H47            0.3554    -1.4796    -5.3701 H       
  48 H48            0.9993    -1.6178    -3.7165 H       
  49 H49           -1.1568     3.0140    -4.0935 H       
  50 H50           -6.3366     5.1755     0.4796 H       
  51 H51           -6.8811     2.7897     0.2315 H       
  52 H52           -5.1449     1.1847    -0.4399 H       
  53 H53           -2.8491     1.9428    -0.8794 H       
  54 H54           -1.5348     8.3712    -0.8173 H       
  55 H55           -3.1384     8.7400    -0.1386 H       
  56 H56            0.3702     8.0892     0.5959 H       
  57 H57            1.4003     8.4596     2.7984 H       
  58 H58           -2.4942     9.0105     4.5076 H       
  59 H59           -1.6241    10.4246     8.7231 H       
  60 H60           -0.5489    11.8521     8.5643 H       
  61 H61           -2.8881    11.7622     7.1700 H       
  62 H62           -1.4062    12.3952     6.3777 H       
  63 H63           -2.0287    10.6232     4.8737 H       
  64 H64           -2.5989     9.5770     6.2098 H       
  65 H65            0.9906     8.2396     9.9208 H       
@<TRIPOS>BOND
   1    1    2 ar
   2    1    9 1
   3    1    6 ar
   4    2    3 ar
   5    2    7 1
   6    3    4 ar
   7    3   43 1
   8    4    5 ar
   9    4   44 1
  10    5    6 ar
  11    5   45 1
  12    6   10 1
  13    7    8 1
  14    8   46 1
  15    8   47 1
  16    8   48 1
  17    9   49 1
  18   10   11 2
  19   10   14 1
  20   11   12 1
  21   12   13 2
  22   13   14 1
  23   13   15 1
  24   14   18 1
  25   15   16 am
  26   15   24 1
  27   16   17 1
  28   16   23 2
  29   17   18 ar
  30   17   19 ar
  31   18   22 ar
  32   19   20 ar
  33   19   50 1
  34   20   21 ar
  35   20   51 1
  36   21   22 ar
  37   21   52 1
  38   22   53 1
  39   24   25 1
  40   24   54 1
  41   24   55 1
  42   25   26 ar
  43   25   30 ar
  44   26   27 ar
  45   26   56 1
  46   27   28 ar
  47   27   57 1
  48   28   29 ar
  49   28   32 1
  50   29   30 ar
  51   29   58 1
  52   30   31 1
  53   32   33 am
  54   32   34 2
  55   33   35 1
  56   33   38 1
  57   35   36 1
  58   35   39 1
  59   35   42 1
  60   36   37 1
  61   36   59 1
  62   36   60 1
  63   37   38 1
  64   37   61 1
  65   37   62 1
  66   38   63 1
  67   38   64 1
  68   39   40 2
  69   39   41 1
  70   41   65 1

#	End of record

