#	Name: ASD01915056
#	Creating user name:	WinNT
#	Creation time:	15. 06. 2019 20:04

#	Modifying user name:	WinNT
#	Modification time:	15. 06. 2019 20:04

#	Program:	/corina/corina34_cracker 3.40 0067  02.08.2006

@<TRIPOS>MOLECULE
ASD01915056
  28   30    0    0    0
SMALL
NO_CHARGES


@<TRIPOS>ATOM
   1 C1            -0.0180     1.4737     0.0101 C.2     
   2 C2             0.0021    -0.0041     0.0020 C.ar    
   3 C3             1.2187    -0.6885    -0.0133 C.ar    
   4 C4             1.2301    -2.0690    -0.0203 C.ar    
   5 C5             0.0380    -2.7739    -0.0127 C.ar    
   6 C6            -1.1703    -2.1008     0.0025 C.ar    
   7 C7            -1.1953    -0.7213     0.0154 C.ar    
   8 O8             1.0263     2.0957     0.0035 O.2     
   9 N9            -1.1942     2.1317     0.0193 N.am    
  10 Cl10           2.7415    -2.9229    -0.0393 Cl      
  11 S11           -2.6699     4.4997     0.0392 S.3     
  12 C12           -1.2130     3.5158     0.0269 C.2     
  13 N13           -0.1655     4.2655     0.0268 N.2     
  14 C14           -0.3454     5.6008     0.0355 C.ar    
  15 C15           -1.6950     5.9674     0.0436 C.ar    
  16 C16           -2.0601     7.3111     0.0528 C.ar    
  17 C17           -1.0930     8.2918     0.0535 C.ar    
  18 C18            0.2490     7.9420     0.0456 C.ar    
  19 C19            0.6271     6.6230     0.0373 C.ar    
  20 H20            2.1487    -0.1395    -0.0199 H       
  21 H21            0.0519    -3.8538    -0.0190 H       
  22 H22           -2.0964    -2.6565     0.0080 H       
  23 H23           -2.1396    -0.1975     0.0315 H       
  24 H24           -2.0276     1.6353     0.0206 H       
  25 H25           -3.1048     7.5851     0.0590 H       
  26 H26           -1.3797     9.3330     0.0600 H       
  27 H27            1.0034     8.7148     0.0462 H       
  28 H28            1.6760     6.3656     0.0312 H       
@<TRIPOS>BOND
   1    1    2 1
   2    1    8 2
   3    1    9 am
   4    2    3 ar
   5    2    7 ar
   6    3    4 ar
   7    3   20 1
   8    4    5 ar
   9    4   10 1
  10    5    6 ar
  11    5   21 1
  12    6    7 ar
  13    6   22 1
  14    7   23 1
  15    9   12 1
  16    9   24 1
  17   11   12 1
  18   11   15 1
  19   12   13 2
  20   13   14 1
  21   14   15 ar
  22   14   19 ar
  23   15   16 ar
  24   16   17 ar
  25   16   25 1
  26   17   18 ar
  27   17   26 1
  28   18   19 ar
  29   18   27 1
  30   19   28 1

#	End of record

