#	Name: ASD04010001
#	Creating user name:	WinNT
#	Creation time:	15. 06. 2019 20:48

#	Modifying user name:	WinNT
#	Modification time:	15. 06. 2019 20:48

#	Program:	/corina/corina34_cracker 3.40 0067  02.08.2006

@<TRIPOS>MOLECULE
ASD04010001
  27   29    0    0    0
SMALL
NO_CHARGES


@<TRIPOS>ATOM
   1 O1             5.0750    -2.1234    -1.4869 O.2     
   2 Cl2            2.1883     0.6154     1.8635 Cl      
   3 C3             4.1381     1.0912    -3.9060 C.2     
   4 N4             3.4280     1.6724    -2.9428 N.2     
   5 C5             3.4448     0.9198    -1.8516 C.2     
   6 N6             4.1955    -0.1799    -2.1386 N.am    
   7 C7             2.9628     0.2917     0.3440 C.2     
   8 N8             4.6260    -0.0382    -3.4671 N.2     
   9 C9             3.7765    -0.9706     0.1416 C.3     
  10 N10            2.8597     1.1225    -0.6416 N.2     
  11 C11            4.4083    -1.1502    -1.2257 C.2     
  12 C12            4.8927    -0.9900     1.1879 C.3     
  13 C13            5.6216    -2.3073     1.1203 C.ar    
  14 C14            6.8013    -2.4086     0.4068 C.ar    
  15 C15            7.4699    -3.6169     0.3448 C.ar    
  16 C16            6.9591    -4.7237     0.9967 C.ar    
  17 C17            5.7800    -4.6222     1.7109 C.ar    
  18 C18            5.1136    -3.4128     1.7765 C.ar    
  19 H19            4.2847     1.4895    -4.8991 H       
  20 H20            3.1278    -1.8260     0.3303 H       
  21 H21            5.5914    -0.1775     0.9889 H       
  22 H22            4.4619    -0.8637     2.1811 H       
  23 H23            7.2003    -1.5438    -0.1025 H       
  24 H24            8.3912    -3.6962    -0.2132 H       
  25 H25            7.4812    -5.6679     0.9476 H       
  26 H26            5.3807    -5.4870     2.2199 H       
  27 H27            4.1943    -3.3325     2.3376 H       
@<TRIPOS>BOND
   1    1   11 2
   2    2    7 1
   3    3    4 1
   4    3    8 2
   5    3   19 1
   6    4    5 2
   7    5    6 1
   8    5   10 1
   9    6    8 1
  10    6   11 am
  11    7    9 1
  12    7   10 2
  13    9   11 1
  14    9   12 1
  15    9   20 1
  16   12   13 1
  17   12   21 1
  18   12   22 1
  19   13   14 ar
  20   13   18 ar
  21   14   15 ar
  22   14   23 1
  23   15   16 ar
  24   15   24 1
  25   16   17 ar
  26   16   25 1
  27   17   18 ar
  28   17   26 1
  29   18   27 1

#	End of record

