#	Name: ASD02038195
#	Creating user name:	WinNT
#	Creation time:	15. 06. 2019 20:16

#	Modifying user name:	WinNT
#	Modification time:	15. 06. 2019 20:16

#	Program:	/corina/corina34_cracker 3.40 0067  02.08.2006

@<TRIPOS>MOLECULE
ASD02038195
  38   39    0    0    0
SMALL
NO_CHARGES


@<TRIPOS>ATOM
   1 C1            -0.0167     1.3785     0.0096 C.ar    
   2 C2             0.0021    -0.0041     0.0020 C.ar    
   3 C3             1.1727     2.0874     0.0021 C.ar    
   4 C4             2.3812     1.4139    -0.0135 C.ar    
   5 C5             2.4034     0.0328    -0.0211 C.ar    
   6 C6             1.2130    -0.6799    -0.0132 C.ar    
   7 Cl7           -1.5318     2.2258     0.0214 Cl      
   8 Cl8            1.1475     3.8232     0.0116 Cl      
   9 O9             1.2336    -2.0389    -0.0202 O.3     
  10 C10           -0.0296    -2.7070    -0.0113 C.3     
  11 C11            0.1939    -4.2205    -0.0210 C.3     
  12 N12            0.8548    -4.6246     1.2224 N.am    
  13 C13            1.1534    -5.9214     1.4362 C.2     
  14 O14            0.8750    -6.7538     0.5992 O.2     
  15 C15            1.8333    -6.3371     2.7153 C.3     
  16 O16            2.0419    -7.7507     2.7062 O.3     
  17 C17            2.6493    -8.2921     3.7957 C.ar    
  18 C18            2.8826    -9.6582     3.8524 C.ar    
  19 C19            3.0406    -7.4776     4.8479 C.ar    
  20 C20            3.6576    -8.0275     5.9546 C.ar    
  21 C21            3.8853    -9.3944     6.0140 C.ar    
  22 C22            3.4995   -10.2082     4.9592 C.ar    
  23 O23            4.4930    -9.9357     7.1034 O.3     
  24 H24           -0.9255    -0.5572     0.0082 H       
  25 H25            3.3079     1.9685    -0.0201 H       
  26 H26            3.3472    -0.4921    -0.0337 H       
  27 H27           -0.5823    -2.4271     0.8855 H       
  28 H28           -0.5996    -2.4181    -0.8943 H       
  29 H29           -0.7667    -4.7291    -0.1038 H       
  30 H30            0.8218    -4.4896    -0.8703 H       
  31 H31            1.0774    -3.9589     1.8918 H       
  32 H32            2.7938    -5.8285     2.7981 H       
  33 H33            1.2053    -6.0680     3.5646 H       
  34 H34            2.5815   -10.2919     3.0313 H       
  35 H35            2.8633    -6.4132     4.8017 H       
  36 H36            3.9629    -7.3931     6.7736 H       
  37 H37            3.6765   -11.2725     5.0055 H       
  38 H38            3.8809   -10.2070     7.8010 H       
@<TRIPOS>BOND
   1    1    2 ar
   2    1    3 ar
   3    1    7 1
   4    2    6 ar
   5    2   24 1
   6    3    4 ar
   7    3    8 1
   8    4    5 ar
   9    4   25 1
  10    5    6 ar
  11    5   26 1
  12    6    9 1
  13    9   10 1
  14   10   11 1
  15   10   27 1
  16   10   28 1
  17   11   12 1
  18   11   29 1
  19   11   30 1
  20   12   13 am
  21   12   31 1
  22   13   14 2
  23   13   15 1
  24   15   16 1
  25   15   32 1
  26   15   33 1
  27   16   17 1
  28   17   18 ar
  29   17   19 ar
  30   18   22 ar
  31   18   34 1
  32   19   20 ar
  33   19   35 1
  34   20   21 ar
  35   20   36 1
  36   21   22 ar
  37   21   23 1
  38   22   37 1
  39   23   38 1

#	End of record

