#	Name: ASD01410491
#	Creating user name:	WinNT
#	Creation time:	15. 06. 2019 19:17

#	Modifying user name:	WinNT
#	Modification time:	15. 06. 2019 19:17

#	Program:	/corina/corina34_cracker 3.40 0067  02.08.2006

@<TRIPOS>MOLECULE
ASD01410491
  68   71    0    0    0
SMALL
NO_CHARGES


@<TRIPOS>ATOM
   1 C1             2.4189     5.4702    -2.2892 C.ar    
   2 C2             2.6522     4.6683    -3.3977 C.ar    
   3 C3             3.6189     3.6845    -3.3286 C.ar    
   4 N4             4.3188     3.5006    -2.2255 N.ar    
   5 C5             4.1256     4.2445    -1.1486 C.ar    
   6 C6             3.1697     5.2523    -1.1470 C.ar    
   7 O7             4.8680     4.0208    -0.0354 O.3     
   8 C8             5.7207     2.9612    -0.0389 C.ar    
   9 C9             6.9722     3.0793    -0.6384 C.ar    
  10 C10            7.8461     2.0080    -0.6466 C.ar    
  11 C11            7.4804     0.8070    -0.0564 C.ar    
  12 C12            6.2200     0.6827     0.5493 C.ar    
  13 C13            5.3450     1.7732     0.5572 C.ar    
  14 F14            7.3339     4.2463    -1.2152 F       
  15 N15            8.3610    -0.2725    -0.0652 N.am    
  16 C16            9.3567    -0.3373     0.8408 C.2     
  17 C17            8.2046    -1.3373    -1.0592 C.3     
  18 O18           10.1374    -1.2689     0.8203 O.2     
  19 C19            9.4994     0.7240     1.8590 C.ar    
  20 C20           10.7147     0.8988     2.5237 C.ar    
  21 C21           10.8416     1.8910     3.4730 C.ar    
  22 C22            9.7666     2.7128     3.7677 C.ar    
  23 C23            8.5586     2.5444     3.1119 C.ar    
  24 C24            8.4211     1.5598     2.1562 C.ar    
  25 C25            6.9568    -1.0683    -1.9027 C.3     
  26 C26            1.8587     4.8686    -4.6631 C.3     
  27 Br27           9.9488     4.0701     5.0717 Br      
  28 N28            2.5481     5.8326    -5.5244 N.pl3   
  29 N29            2.3635     7.1048    -5.4910 N.2     
  30 O30           10.5564    -1.8669    -1.2305 O.3     
  31 C31            9.4358    -1.3725    -1.9668 C.3     
  32 C32           11.7645    -1.9402    -1.9902 C.3     
  33 O33            5.7922    -1.1960    -1.0845 O.3     
  34 C34            4.5653    -0.9633    -1.7793 C.3     
  35 N35            3.4244     5.5223    -6.4130 N.2     
  36 C36            3.8379     6.6227    -6.9997 C.2     
  37 C37            3.1378     7.6670    -6.3912 C.2     
  38 C38            2.9530     6.0972     0.0819 C.3     
  39 F39            1.9447     7.0341    -0.1681 F       
  40 F40            2.5736     5.2776     1.1503 F       
  41 F41            4.1398     6.7642     0.4045 F       
  42 C42            5.8233    -0.5886     1.1777 C.2     
  43 O43            6.6263    -1.4958     1.2730 O.2     
  44 O44            4.5698    -0.7459     1.6473 O.3     
  45 H45            1.6717     6.2495    -2.3187 H       
  46 H46            3.8041     3.0576    -4.1882 H       
  47 H47            8.8150     2.1063    -1.1136 H       
  48 H48            4.3741     1.6844     1.0218 H       
  49 H49            8.1001    -2.2960    -0.5513 H       
  50 H50           11.5536     0.2581     2.2952 H       
  51 H51           11.7811     2.0273     3.9879 H       
  52 H52            7.7238     3.1882     3.3464 H       
  53 H53            7.4785     1.4293     1.6453 H       
  54 H54            7.0050    -0.0589    -2.3111 H       
  55 H55            6.9080    -1.7887    -2.7192 H       
  56 H56            1.7631     3.9173    -5.1865 H       
  57 H57            0.8675     5.2477    -4.4143 H       
  58 H58            9.2422    -2.0269    -2.8167 H       
  59 H59            9.6520    -0.3660    -2.3251 H       
  60 H60           11.6191    -2.6064    -2.8406 H       
  61 H61           12.0289    -0.9455    -2.3490 H       
  62 H62           12.5669    -2.3245    -1.3606 H       
  63 H63            4.5639     0.0483    -2.1852 H       
  64 H64            4.4669    -1.6815    -2.5933 H       
  65 H65            3.7294    -1.0791    -1.0894 H       
  66 H66            4.5712     6.7035    -7.7884 H       
  67 H67            3.2162     8.7206    -6.6154 H       
  68 H68            4.3562    -1.5980     2.0515 H       
@<TRIPOS>BOND
   1    1    2 ar
   2    1    6 ar
   3    1   45 1
   4    2    3 ar
   5    2   26 1
   6    3    4 ar
   7    3   46 1
   8    4    5 ar
   9    5    6 ar
  10    5    7 1
  11    6   38 1
  12    7    8 1
  13    8    9 ar
  14    8   13 ar
  15    9   10 ar
  16    9   14 1
  17   10   11 ar
  18   10   47 1
  19   11   12 ar
  20   11   15 1
  21   12   13 ar
  22   12   42 1
  23   13   48 1
  24   15   16 am
  25   15   17 1
  26   16   18 2
  27   16   19 1
  28   17   25 1
  29   17   31 1
  30   17   49 1
  31   19   20 ar
  32   19   24 ar
  33   20   21 ar
  34   20   50 1
  35   21   22 ar
  36   21   51 1
  37   22   23 ar
  38   22   27 1
  39   23   24 ar
  40   23   52 1
  41   24   53 1
  42   25   33 1
  43   25   54 1
  44   25   55 1
  45   26   28 1
  46   26   56 1
  47   26   57 1
  48   28   35 1
  49   28   29 1
  50   29   37 2
  51   30   31 1
  52   30   32 1
  53   31   58 1
  54   31   59 1
  55   32   60 1
  56   32   61 1
  57   32   62 1
  58   33   34 1
  59   34   63 1
  60   34   64 1
  61   34   65 1
  62   35   36 2
  63   36   37 1
  64   36   66 1
  65   37   67 1
  66   38   39 1
  67   38   40 1
  68   38   41 1
  69   42   43 2
  70   42   44 1
  71   44   68 1

#	End of record

