#	Name: ASD01913372
#	Creating user name:	WinNT
#	Creation time:	15. 06. 2019 20:01

#	Modifying user name:	WinNT
#	Modification time:	15. 06. 2019 20:01

#	Program:	/corina/corina34_cracker 3.40 0067  02.08.2006

@<TRIPOS>MOLECULE
ASD01913372
  37   39    0    0    0
SMALL
NO_CHARGES


@<TRIPOS>ATOM
   1 C1            -0.0167     1.3789     0.0096 C.2     
   2 C2             0.0021    -0.0041     0.0020 C.2     
   3 C3             1.2507    -0.6673    -0.0135 C.2     
   4 N4             2.3633     0.0254    -0.0204 N.2     
   5 C5             2.3483     1.3645    -0.0130 C.2     
   6 N6             1.1652     2.0483     0.0019 N.pl3   
   7 N7             3.3231     2.2675    -0.0175 N.2     
   8 C8             2.8044     3.4880    -0.0060 C.2     
   9 N9             1.4951     3.4102     0.0061 N.2     
  10 C10           -1.2202    -0.7502     0.0101 C.1     
  11 C11           -2.2222    -1.3619     0.0168 C.1     
  12 C12           -3.4444    -2.1080     0.0249 C.ar    
  13 C13           -3.4139    -3.5045     0.0172 C.ar    
  14 C14           -4.5974    -4.2174     0.0256 C.ar    
  15 C15           -5.8469    -2.1661     0.0548 C.ar    
  16 C16           -4.6731    -1.4422     0.0466 C.ar    
  17 C17           -5.8114    -3.5493     0.0417 C.ar    
  18 C18            3.5982     4.7689    -0.0071 C.3     
  19 C19            5.0929     4.4426    -0.0242 C.3     
  20 C20            3.2411     5.5892    -1.2483 C.3     
  21 C21            3.2667     5.5755     1.2500 C.3     
  22 F22           -4.5711    -5.5681     0.0176 F       
  23 H23           -0.9534     1.9164     0.0170 H       
  24 H24            1.2876    -1.7467    -0.0192 H       
  25 H25           -2.4680    -4.0254     0.0042 H       
  26 H26           -6.7965    -1.6520     0.0719 H       
  27 H27           -4.7032    -0.3627     0.0572 H       
  28 H28           -6.7340    -4.1107     0.0482 H       
  29 H29            5.3291     3.8679    -0.9199 H       
  30 H30            5.6671     5.3691    -0.0251 H       
  31 H31            5.3474     3.8582     0.8600 H       
  32 H32            2.1762     5.8217    -1.2361 H       
  33 H33            3.8153     6.5157    -1.2491 H       
  34 H34            3.4773     5.0145    -2.1439 H       
  35 H35            3.5212     4.9911     2.1342 H       
  36 H36            3.8409     6.5020     1.2492 H       
  37 H37            2.2019     5.8080     1.2622 H       
@<TRIPOS>BOND
   1    1    2 2
   2    1    6 1
   3    1   23 1
   4    2    3 1
   5    2   10 1
   6    3    4 2
   7    3   24 1
   8    4    5 1
   9    5    6 1
  10    5    7 2
  11    6    9 1
  12    7    8 1
  13    8    9 2
  14    8   18 1
  15   10   11 3
  16   11   12 1
  17   12   13 ar
  18   12   16 ar
  19   13   14 ar
  20   13   25 1
  21   14   17 ar
  22   14   22 1
  23   15   16 ar
  24   15   17 ar
  25   15   26 1
  26   16   27 1
  27   17   28 1
  28   18   19 1
  29   18   20 1
  30   18   21 1
  31   19   29 1
  32   19   30 1
  33   19   31 1
  34   20   32 1
  35   20   33 1
  36   20   34 1
  37   21   35 1
  38   21   36 1
  39   21   37 1

#	End of record

