#	Name: ASD05430160
#	Creating user name:	WinNT
#	Creation time:	15. 06. 2019 20:59

#	Modifying user name:	WinNT
#	Modification time:	15. 06. 2019 20:59

#	Program:	/corina/corina34_cracker 3.40 0067  02.08.2006

@<TRIPOS>MOLECULE
ASD05430160
  61   67    0    0    0
SMALL
NO_CHARGES


@<TRIPOS>ATOM
   1 C1            -0.0028     1.3297     0.0566 C.ar    
   2 C2             0.0203    -0.0144    -0.3180 C.ar    
   3 C3             1.2264    -0.6447    -0.5937 C.ar    
   4 C4             2.4088     0.0549    -0.4988 C.ar    
   5 C5             2.3925     1.4015    -0.1241 C.ar    
   6 C6             1.1707     2.0353     0.1540 C.ar    
   7 O7             4.8735     0.1324     0.2062 O.3     
   8 C8             4.8293     1.4915     0.0670 C.2     
   9 C9             3.6528     2.1529    -0.0208 C.2     
  10 C10            6.0866    -0.4371     0.6895 C.3     
  11 C11            6.9046     0.4884     1.5902 C.3     
  12 N12            7.1246     1.7541     0.8848 N.pl3   
  13 C13            6.1185     2.2066     0.0169 C.2     
  14 N14           -1.1800    -0.7319    -0.4159 N.pl3   
  15 C15           -1.5845    -1.5029    -1.4748 C.2     
  16 C16           -2.7909    -2.0069    -1.1521 C.2     
  17 N17           -3.1187    -1.5592     0.0689 N.2     
  18 C18           -2.1593    -0.7993     0.5229 C.2     
  19 C19           -3.6282    -2.9162    -2.0142 C.3     
  20 C20            8.3293     2.5557     1.0848 C.3     
  21 C21            8.7654     3.1408    -0.2634 C.3     
  22 N22            7.6098     3.7477    -0.9284 N.pl3   
  23 N23            6.3358     3.1805    -0.8070 N.2     
  24 C24            8.0360     3.6754     2.0499 C.ar    
  25 C25            8.9720     4.0274     3.0045 C.ar    
  26 C26            6.8337     4.3537     1.9761 C.ar    
  27 C27            6.5640     5.3813     2.8600 C.ar    
  28 C28            7.4985     5.7311     3.8199 C.ar    
  29 C29            8.7043     5.0543     3.8897 C.ar    
  30 F30            7.2359     6.7355     4.6845 F       
  31 C31            0.4644     3.3002     0.5634 C.3     
  32 C32           -0.8376     2.5193     0.4508 C.3     
  33 C33            5.9073    -1.8471     1.2754 C.3     
  34 O34            6.2068    -2.3129    -0.0564 O.3     
  35 C35            6.9254    -1.1124    -0.4071 C.3     
  36 H36            1.2373    -1.6852    -0.8827 H       
  37 H37            3.3467    -0.4359    -0.7130 H       
  38 H38            3.6387     3.2328    -0.0150 H       
  39 H39            6.3588     0.6751     2.5150 H       
  40 H40            7.8645     0.0241     1.8164 H       
  41 H41           -1.0402    -1.6732    -2.3920 H       
  42 H42           -2.1494    -0.3013     1.4812 H       
  43 H43           -3.3750    -3.9545    -1.7999 H       
  44 H44           -4.6839    -2.7483    -1.8012 H       
  45 H45           -3.4312    -2.7036    -3.0649 H       
  46 H46            9.1246     1.9262     1.4840 H       
  47 H47            9.5305     3.8997    -0.0998 H       
  48 H48            9.1697     2.3463    -0.8906 H       
  49 H49            7.7288     4.5512    -1.4586 H       
  50 H50            9.9125     3.4993     3.0588 H       
  51 H51            6.1049     4.0806     1.2273 H       
  52 H52            5.6249     5.9114     2.8017 H       
  53 H53            9.4338     5.3261     4.6383 H       
  54 H54            0.6977     3.6214     1.5785 H       
  55 H55            0.5518     4.1048    -0.1667 H       
  56 H56           -1.4940     2.8773    -0.3424 H       
  57 H57           -1.3533     2.3912     1.4025 H       
  58 H58            6.6600    -2.1159     2.0165 H       
  59 H59            4.8897    -2.0638     1.6002 H       
  60 H60            6.7126    -0.7485    -1.4123 H       
  61 H61            7.9914    -1.1551    -0.1838 H       
@<TRIPOS>BOND
   1    1    2 ar
   2    1    6 ar
   3    1   32 1
   4    2    3 ar
   5    2   14 1
   6    3    4 ar
   7    3   36 1
   8    4    5 ar
   9    4   37 1
  10    5    6 ar
  11    5    9 1
  12    6   31 1
  13    7    8 1
  14    7   10 1
  15    8    9 2
  16    8   13 1
  17    9   38 1
  18   10   11 1
  19   10   33 1
  20   10   35 1
  21   11   12 1
  22   11   39 1
  23   11   40 1
  24   12   13 1
  25   12   20 1
  26   13   23 2
  27   14   15 1
  28   14   18 1
  29   15   16 2
  30   15   41 1
  31   16   17 1
  32   16   19 1
  33   17   18 2
  34   18   42 1
  35   19   43 1
  36   19   44 1
  37   19   45 1
  38   20   21 1
  39   20   24 1
  40   20   46 1
  41   21   22 1
  42   21   47 1
  43   21   48 1
  44   22   23 1
  45   22   49 1
  46   24   25 ar
  47   24   26 ar
  48   25   29 ar
  49   25   50 1
  50   26   27 ar
  51   26   51 1
  52   27   28 ar
  53   27   52 1
  54   28   29 ar
  55   28   30 1
  56   29   53 1
  57   31   32 1
  58   31   54 1
  59   31   55 1
  60   32   56 1
  61   32   57 1
  62   33   34 1
  63   33   58 1
  64   33   59 1
  65   34   35 1
  66   35   60 1
  67   35   61 1

#	End of record

