#	Name: ASD00170040
#	Creating user name:	WinNT
#	Creation time:	15. 06. 2019 18:31

#	Modifying user name:	WinNT
#	Modification time:	15. 06. 2019 18:31

#	Program:	/corina/corina34_cracker 3.40 0067  02.08.2006

@<TRIPOS>MOLECULE
ASD00170040
  38   40    0    0    0
SMALL
NO_CHARGES


@<TRIPOS>ATOM
   1 C1            -0.0611     1.3601     0.4525 C.ar    
   2 C2            -0.0618    -0.0581     0.4472 C.ar    
   3 C3            -1.2773    -0.7536     0.3092 C.ar    
   4 C4            -2.4414    -0.0677     0.1820 C.ar    
   5 C5            -2.4537     1.3387     0.1854 C.ar    
   6 C6            -1.2735     2.0520     0.3146 C.ar    
   7 C7             1.1575     2.0493     0.5903 C.ar    
   8 C8             2.3171     1.3489     0.7165 C.ar    
   9 C9             2.3166    -0.0460     0.7114 C.ar    
  10 C10            1.1552    -0.7465     0.5799 C.ar    
  11 C11           -3.7358     2.0614     0.0443 C.2     
  12 C12           -3.7707     3.5189     0.1633 C.2     
  13 C13           -3.9365     4.2176     1.4204 C.2     
  14 C14           -3.9376     5.5350     1.2887 C.2     
  15 S15           -3.7346     5.9968    -0.3916 S.3     
  16 C16           -3.6438     4.3746    -0.9064 C.2     
  17 O17           -4.7627     1.4432    -0.1710 O.2     
  18 N18           -3.4725     3.9745    -2.2161 N.pl3   
  19 C19           -4.0929     3.5162     2.7451 C.3     
  20 C20           -4.0930     6.5076     2.4293 C.3     
  21 C21           -1.2863    -2.2606     0.3021 C.3     
  22 Cl22           3.8179    -0.9022     0.8744 Cl      
  23 H23           -3.3701    -0.6088     0.0765 H       
  24 H24           -1.2873     3.1319     0.3167 H       
  25 H25            1.1726     3.1292     0.5956 H       
  26 H26            3.2513     1.8805     0.8218 H       
  27 H27            1.1704    -1.8264     0.5780 H       
  28 H28           -3.4716     4.6332    -2.9282 H       
  29 H29           -3.3531     3.0348    -2.4246 H       
  30 H30           -3.1109     3.3601     3.1917 H       
  31 H31           -4.7016     4.1283     3.4106 H       
  32 H32           -4.5793     2.5530     2.5910 H       
  33 H33           -3.1108     6.7556     2.8316 H       
  34 H34           -4.5780     7.4150     2.0696 H       
  35 H35           -4.7025     6.0555     3.2118 H       
  36 H36           -1.4021    -2.6281     1.3218 H       
  37 H37           -2.1162    -2.6161    -0.3086 H       
  38 H38           -0.3472    -2.6276    -0.1119 H       
@<TRIPOS>BOND
   1    1    2 ar
   2    1    7 ar
   3    1    6 ar
   4    2    3 ar
   5    2   10 ar
   6    3    4 ar
   7    3   21 1
   8    4    5 ar
   9    4   23 1
  10    5    6 ar
  11    5   11 1
  12    6   24 1
  13    7    8 ar
  14    7   25 1
  15    8    9 ar
  16    8   26 1
  17    9   10 ar
  18    9   22 1
  19   10   27 1
  20   11   12 1
  21   11   17 2
  22   12   13 1
  23   12   16 2
  24   13   14 2
  25   13   19 1
  26   14   15 1
  27   14   20 1
  28   15   16 1
  29   16   18 1
  30   18   28 1
  31   18   29 1
  32   19   30 1
  33   19   31 1
  34   19   32 1
  35   20   33 1
  36   20   34 1
  37   20   35 1
  38   21   36 1
  39   21   37 1
  40   21   38 1

#	End of record

