#	Name: ASD01410454
#	Creating user name:	WinNT
#	Creation time:	15. 06. 2019 19:17

#	Modifying user name:	WinNT
#	Modification time:	15. 06. 2019 19:17

#	Program:	/corina/corina34_cracker 3.40 0067  02.08.2006

@<TRIPOS>MOLECULE
ASD01410454
  48   51    0    0    0
SMALL
NO_CHARGES


@<TRIPOS>ATOM
   1 S1            -0.0153     1.7581    -0.0869 S.3     
   2 C2            -0.0021     0.0045     0.1725 C.2     
   3 N3             1.2484    -0.3470     0.3609 N.2     
   4 C4             2.2049     0.5548     0.3328 C.2     
   5 C5             1.7441     1.9317     0.0799 C.2     
   6 O6             3.3804     0.2741     0.5026 O.2     
   7 S7            -0.8926    -2.4495     0.4365 S.o2    
   8 O8            -2.1934    -3.0211     0.4142 O.2     
   9 O9             0.1557    -2.8693    -0.4261 O.2     
  10 N10           -1.0907    -0.8261     0.1761 N.am    
  11 C11           -0.2916    -2.6444     2.0813 C.ar    
  12 C12           -1.1810    -2.7936     3.1290 C.ar    
  13 C13           -0.7095    -2.9465     4.4194 C.ar    
  14 C14            0.6513    -2.9506     4.6621 C.ar    
  15 C15            1.5407    -2.8023     3.6143 C.ar    
  16 C16            1.0693    -2.6538     2.3234 C.ar    
  17 C17            1.1653    -3.1162     6.0691 C.3     
  18 C18            2.4877     3.0632    -0.0056 C.2     
  19 C19            0.5819     6.8322    -0.2857 C.ar    
  20 C20           -0.1131     5.7366     0.2291 C.ar    
  21 C21            0.4995     4.5191     0.3204 C.ar    
  22 C22            1.8264     4.3707    -0.1031 C.ar    
  23 C23            2.5216     5.4718    -0.6193 C.ar    
  24 C24            1.9043     6.6870    -0.7084 C.ar    
  25 C25           -0.0873     8.1508    -0.3889 C.ar    
  26 C26            0.6033     9.2478    -0.9024 C.ar    
  27 C27           -0.0250    10.4727    -0.9965 C.ar    
  28 C28           -1.3374    10.6137    -0.5820 C.ar    
  29 C29           -2.0276     9.5288    -0.0716 C.ar    
  30 C30           -1.4116     8.2976     0.0219 C.ar    
  31 H31           -1.9779    -0.4637     0.0261 H       
  32 H32           -2.2442    -2.7904     2.9394 H       
  33 H33           -1.4044    -3.0623     5.2381 H       
  34 H34            2.6040    -2.8052     3.8040 H       
  35 H35            1.7643    -2.5416     1.5043 H       
  36 H36            1.3088    -4.1758     6.2811 H       
  37 H37            2.1159    -2.5930     6.1726 H       
  38 H38            0.4430    -2.6998     6.7711 H       
  39 H39            3.5660     3.0024    -0.0021 H       
  40 H40           -1.1362     5.8515     0.5554 H       
  41 H41           -0.0385     3.6719     0.7194 H       
  42 H42            3.5446     5.3599    -0.9468 H       
  43 H43            2.4397     7.5362    -1.1067 H       
  44 H44            1.6281     9.1391    -1.2257 H       
  45 H45            0.5088    11.3232    -1.3941 H       
  46 H46           -1.8248    11.5745    -0.6569 H       
  47 H47           -3.0520     9.6448     0.2504 H       
  48 H48           -1.9529     7.4503     0.4164 H       
@<TRIPOS>BOND
   1    1    2 1
   2    1    5 1
   3    2    3 2
   4    2   10 1
   5    3    4 1
   6    4    5 1
   7    4    6 2
   8    5   18 2
   9    7    8 2
  10    7    9 2
  11    7   10 am
  12    7   11 1
  13   10   31 1
  14   11   12 ar
  15   11   16 ar
  16   12   13 ar
  17   12   32 1
  18   13   14 ar
  19   13   33 1
  20   14   15 ar
  21   14   17 1
  22   15   16 ar
  23   15   34 1
  24   16   35 1
  25   17   36 1
  26   17   37 1
  27   17   38 1
  28   18   22 1
  29   18   39 1
  30   19   20 ar
  31   19   24 ar
  32   19   25 1
  33   20   21 ar
  34   20   40 1
  35   21   22 ar
  36   21   41 1
  37   22   23 ar
  38   23   24 ar
  39   23   42 1
  40   24   43 1
  41   25   26 ar
  42   25   30 ar
  43   26   27 ar
  44   26   44 1
  45   27   28 ar
  46   27   45 1
  47   28   29 ar
  48   28   46 1
  49   29   30 ar
  50   29   47 1
  51   30   48 1

#	End of record

