#	Name: ASD01900603
#	Creating user name:	WinNT
#	Creation time:	15. 06. 2019 19:52

#	Modifying user name:	WinNT
#	Modification time:	15. 06. 2019 19:52

#	Program:	/corina/corina34_cracker 3.40 0067  02.08.2006

@<TRIPOS>MOLECULE
ASD01900603
  40   43    0    0    0
SMALL
NO_CHARGES


@<TRIPOS>ATOM
   1 C1            -0.0165     1.3648     0.0095 C.2     
   2 N2             0.0021    -0.0041     0.0020 N.pl3   
   3 C3             1.3261    -0.3943    -0.0127 C.ar    
   4 C4             2.0846     0.7907    -0.0136 C.ar    
   5 N5             1.2102     1.8251     0.0003 N.2     
   6 C6             3.4811     0.7126    -0.0269 C.ar    
   7 C7             4.0944    -0.5079    -0.0390 C.ar    
   8 C8             3.3463    -1.6765    -0.0386 C.ar    
   9 C9             1.9682    -1.6247    -0.0251 C.ar    
  10 C10           -1.2380     2.1989     0.0201 C.ar    
  11 C11           -1.1267     3.5912     0.0271 C.ar    
  12 C12           -2.2825     4.3581     0.0365 C.ar    
  13 C13           -3.5075     3.7083     0.0385 C.ar    
  14 C14           -3.5431     2.3248     0.0312 C.ar    
  15 N15           -2.4323     1.6186     0.0173 N.ar    
  16 F16            0.0882     4.1820     0.0252 F       
  17 S17            5.8540    -0.5992    -0.0557 S.o2    
  18 O18            6.1342    -1.8495    -0.6701 O.2     
  19 O19            6.2625     0.6211    -0.6585 O.2     
  20 C20            6.3223    -0.6317     1.6965 C.3     
  21 C21            7.8226    -0.7102     1.8141 C.ar    
  22 C22            8.5737     0.4504     1.8737 C.ar    
  23 C23            9.9509     0.3776     1.9821 C.ar    
  24 C24           10.5759    -0.8544     2.0309 C.ar    
  25 C25            9.8251    -2.0134     1.9708 C.ar    
  26 C26            8.4482    -1.9413     1.8681 C.ar    
  27 Cl27           7.7882     1.9973     1.8119 Cl      
  28 H28           -0.7708    -0.5903     0.0067 H       
  29 H29            4.0733     1.6157    -0.0281 H       
  30 H30            3.8467    -2.6335    -0.0489 H       
  31 H31            1.3911    -2.5376    -0.0241 H       
  32 H32           -2.2295     5.4368     0.0424 H       
  33 H33           -4.4257     4.2769     0.0461 H       
  34 H34           -4.4963     1.8170     0.0332 H       
  35 H35            5.9665     0.2756     2.1846 H       
  36 H36            5.8742    -1.5019     2.1762 H       
  37 H37           10.5376     1.2831     2.0284 H       
  38 H38           11.6510    -0.9114     2.1155 H       
  39 H39           10.3139    -2.9757     2.0082 H       
  40 H40            7.8617    -2.8472     1.8257 H       
@<TRIPOS>BOND
   1    1    2 1
   2    1    5 2
   3    1   10 1
   4    2    3 1
   5    2   28 1
   6    3    4 ar
   7    3    9 ar
   8    4    5 1
   9    4    6 ar
  10    6    7 ar
  11    6   29 1
  12    7    8 ar
  13    7   17 1
  14    8    9 ar
  15    8   30 1
  16    9   31 1
  17   10   11 ar
  18   10   15 ar
  19   11   12 ar
  20   11   16 1
  21   12   13 ar
  22   12   32 1
  23   13   14 ar
  24   13   33 1
  25   14   15 ar
  26   14   34 1
  27   17   18 2
  28   17   19 2
  29   17   20 1
  30   20   21 1
  31   20   35 1
  32   20   36 1
  33   21   22 ar
  34   21   26 ar
  35   22   23 ar
  36   22   27 1
  37   23   24 ar
  38   23   37 1
  39   24   25 ar
  40   24   38 1
  41   25   26 ar
  42   25   39 1
  43   26   40 1

#	End of record

