#	Name: ASD07931958
#	Creating user name:	WinNT
#	Creation time:	15. 06. 2019 21:13

#	Modifying user name:	WinNT
#	Modification time:	15. 06. 2019 21:13

#	Program:	/corina/corina34_cracker 3.40 0067  02.08.2006

@<TRIPOS>MOLECULE
ASD07931958
  52   55    0    0    0
SMALL
NO_CHARGES


@<TRIPOS>ATOM
   1 C1             0.0599     1.5186     0.5826 C.ar    
   2 C2             0.1599     0.2599     1.1746 C.ar    
   3 N3             1.1244     2.0644    -0.0028 N.ar    
   4 N4             1.3097    -0.3889     1.1539 N.ar    
   5 C5             2.3686     0.1562     0.5706 C.ar    
   6 C6             2.2690     1.4160    -0.0221 C.ar    
   7 C7            -1.2286     2.2440     0.5995 C.2     
   8 O8            -2.2012     1.7432     1.1295 O.2     
   9 N9            -1.3246     3.4604     0.0271 N.am    
  10 O10            3.5480    -0.5103     0.5498 O.3     
  11 C11            3.5784    -1.7948     1.1752 C.3     
  12 C12            4.9829    -2.3890     1.0520 C.3     
  13 C13           -2.5674     4.0984    -0.0561 C.ar    
  14 C14           -2.6491     5.4800     0.0609 C.ar    
  15 C15           -3.8764     6.1074    -0.0215 C.ar    
  16 C16           -5.0254     5.3601    -0.2203 C.ar    
  17 C17           -4.9462     3.9827    -0.3368 C.ar    
  18 C18           -3.7198     3.3516    -0.2615 C.ar    
  19 F19           -6.2252     5.9760    -0.3002 F       
  20 S20           -2.6546     9.7982    -1.8115 S.3     
  21 C21           -2.0185     9.0615    -0.3442 C.2     
  22 N22           -2.6608     8.1831     0.3235 N.2     
  23 C23           -3.9657     7.6064     0.1054 C.3     
  24 C24           -4.7471     8.2251    -1.0629 C.3     
  25 C25           -3.8663     8.5281    -2.2602 C.3     
  26 O26           -5.3603     9.3255     0.9693 O.3     
  27 C27           -4.8734     8.0147     1.3019 C.3     
  28 C28           -5.3395     9.5061    -0.4543 C.3     
  29 C29           -6.7627     9.7199    -0.9734 C.3     
  30 F30           -7.5593     8.6275    -0.6140 F       
  31 F31           -7.2926    10.8876    -0.4140 F       
  32 F32           -6.7376     9.8403    -2.3670 F       
  33 N33           -0.7761     9.4490     0.1018 N.pl3   
  34 H34           -0.7025    -0.1837     1.6499 H       
  35 H35            3.1320     1.8586    -0.4972 H       
  36 H36           -0.5323     3.8937    -0.3270 H       
  37 H37            3.3184    -1.6922     2.2288 H       
  38 H38            2.8609    -2.4540     0.6865 H       
  39 H39            5.0061    -3.3688     1.5291 H       
  40 H40            5.2428    -2.4916    -0.0016 H       
  41 H41            5.7004    -1.7299     1.5407 H       
  42 H42           -1.7534     6.0630     0.2166 H       
  43 H43           -5.8435     3.4018    -0.4910 H       
  44 H44           -3.6580     2.2777    -0.3573 H       
  45 H45           -5.5544     7.5559    -1.3604 H       
  46 H46           -4.4833     8.8890    -3.0831 H       
  47 H47           -3.3454     7.6211    -2.5670 H       
  48 H48           -5.7041     7.3162     1.4026 H       
  49 H49           -4.2925     8.0490     2.2236 H       
  50 H50           -4.7153    10.3621    -0.7109 H       
  51 H51           -0.2703    10.1149    -0.3898 H       
  52 H52           -0.4060     9.0563     0.9078 H       
@<TRIPOS>BOND
   1    1    2 ar
   2    1    3 ar
   3    1    7 1
   4    2    4 ar
   5    2   34 1
   6    3    6 ar
   7    4    5 ar
   8    5    6 ar
   9    5   10 1
  10    6   35 1
  11    7    8 2
  12    7    9 am
  13    9   13 1
  14    9   36 1
  15   10   11 1
  16   11   12 1
  17   11   37 1
  18   11   38 1
  19   12   39 1
  20   12   40 1
  21   12   41 1
  22   13   14 ar
  23   13   18 ar
  24   14   15 ar
  25   14   42 1
  26   15   16 ar
  27   15   23 1
  28   16   17 ar
  29   16   19 1
  30   17   18 ar
  31   17   43 1
  32   18   44 1
  33   20   21 1
  34   20   25 1
  35   21   22 2
  36   21   33 1
  37   22   23 1
  38   23   27 1
  39   23   24 1
  40   24   25 1
  41   24   28 1
  42   24   45 1
  43   25   46 1
  44   25   47 1
  45   26   27 1
  46   26   28 1
  47   27   48 1
  48   27   49 1
  49   28   29 1
  50   28   50 1
  51   29   30 1
  52   29   31 1
  53   29   32 1
  54   33   51 1
  55   33   52 1

#	End of record

