#	Name: ASD01840284
#	Creating user name:	WinNT
#	Creation time:	15. 06. 2019 19:37

#	Modifying user name:	WinNT
#	Modification time:	15. 06. 2019 19:37

#	Program:	/corina/corina34_cracker 3.40 0067  02.08.2006

@<TRIPOS>MOLECULE
ASD01840284
  32   34    0    0    0
SMALL
NO_CHARGES


@<TRIPOS>ATOM
   1 C1            -0.0184     1.5028     0.0103 C.3     
   2 C2             0.0021    -0.0041     0.0020 C.ar    
   3 N3             0.0054    -0.6436    -1.1442 N.ar    
   4 C4             0.0236    -1.9759    -1.2142 C.ar    
   5 S5             0.0316    -3.0422    -2.6156 S.3     
   6 C6             0.0564    -4.4692    -1.5950 C.2     
   7 C7             0.0736    -5.8504    -2.0920 C.2     
   8 O8             0.0907    -6.7795    -1.3065 O.2     
   9 N9             0.0704    -6.0894    -3.4184 N.am    
  10 C10            0.0875    -7.4678    -3.9144 C.3     
  11 C11           -1.2432    -7.9182    -4.5459 C.3     
  12 O12           -0.6793    -7.4555    -5.7895 O.3     
  13 C13            0.6782    -7.6123    -5.3297 C.3     
  14 C14            0.0579    -4.1261    -0.3015 C.2     
  15 Cl15           0.0810    -5.3069     0.9708 Cl      
  16 C16            0.0400    -2.7457    -0.0434 C.ar    
  17 C17            0.0367    -2.0700     1.2013 C.ar    
  18 C18            0.0544    -2.8432     2.4947 C.3     
  19 C19            0.0229    -0.6939     1.2073 C.ar    
  20 Cl20           0.0248     0.1737     2.7110 Cl      
  21 H21            1.0042     1.8801     0.0026 H       
  22 H22           -0.5455     1.8639    -0.8728 H       
  23 H23           -0.5286     1.8543     0.9071 H       
  24 H24            0.0567    -5.3488    -4.0447 H       
  25 H25            0.4961    -8.1751    -3.1926 H       
  26 H26           -1.4064    -8.9953    -4.5094 H       
  27 H27           -2.1068    -7.3429    -4.2122 H       
  28 H28            1.3386    -6.7943    -5.6175 H       
  29 H29            1.1017    -8.5960    -5.5325 H       
  30 H30            1.0862    -3.0150     2.8013 H       
  31 H31           -0.4637    -2.2732     3.2659 H       
  32 H32           -0.4466    -3.8008     2.3524 H       
@<TRIPOS>BOND
   1    1    2 1
   2    1   21 1
   3    1   22 1
   4    1   23 1
   5    2   19 ar
   6    2    3 ar
   7    3    4 ar
   8    4   16 ar
   9    4    5 1
  10    5    6 1
  11    6    7 1
  12    6   14 2
  13    7    8 2
  14    7    9 am
  15    9   10 1
  16    9   24 1
  17   10   13 1
  18   10   11 1
  19   10   25 1
  20   11   12 1
  21   11   26 1
  22   11   27 1
  23   12   13 1
  24   13   28 1
  25   13   29 1
  26   14   15 1
  27   14   16 1
  28   16   17 ar
  29   17   18 1
  30   17   19 ar
  31   18   30 1
  32   18   31 1
  33   18   32 1
  34   19   20 1

#	End of record

