#	Name: ASD01885001
#	Creating user name:	WinNT
#	Creation time:	15. 06. 2019 19:49

#	Modifying user name:	WinNT
#	Modification time:	15. 06. 2019 19:49

#	Program:	/corina/corina34_cracker 3.40 0067  02.08.2006

@<TRIPOS>MOLECULE
ASD01885001
  42   44    0    0    0
SMALL
NO_CHARGES


@<TRIPOS>ATOM
   1 C1            -0.0173     1.4248     0.0099 C.3     
   2 O2             0.0021    -0.0041     0.0020 O.3     
   3 C3             0.6056    -0.6069    -1.0554 C.ar    
   4 C4             1.1724     0.1643    -2.0614 C.ar    
   5 C5             1.7861    -0.4432    -3.1366 C.ar    
   6 C6             1.8380    -1.8339    -3.2138 C.ar    
   7 C7             1.2678    -2.6078    -2.2007 C.ar    
   8 F8             1.3156    -3.9562    -2.2708 F       
   9 C9             0.6591    -1.9922    -1.1245 C.ar    
  10 C10            2.4966    -2.4900    -4.3686 C.ar    
  11 C11            3.8683    -2.3524    -4.5843 C.ar    
  12 C12            4.4456    -2.9858    -5.6816 C.ar    
  13 N13            3.7072    -3.7114    -6.5142 N.ar    
  14 C14            2.4127    -3.8642    -6.3440 C.ar    
  15 C15            1.7583    -3.2708    -5.2711 C.ar    
  16 O16            0.4225    -3.4398    -5.1015 O.3     
  17 C17           -0.2564    -4.2492    -6.0638 C.3     
  18 C18           -1.7207    -4.3222    -5.7153 C.ar    
  19 C19           -2.1944    -5.3217    -4.8796 C.ar    
  20 C20           -3.5494    -5.3495    -4.5860 C.ar    
  21 C21           -4.3766    -4.3868    -5.1322 C.ar    
  22 N22           -3.8910    -3.4502    -5.9236 N.ar    
  23 C23           -2.6076    -3.3899    -6.2202 C.ar    
  24 C24            5.8987    -2.8487    -5.9236 C.2     
  25 N25            6.4659    -3.4584    -6.9833 N.am    
  26 O26            6.5810    -2.1862    -5.1667 O.2     
  27 H27            1.0053     1.8021     0.0021 H       
  28 H28           -0.5445     1.7859    -0.8732 H       
  29 H29           -0.5275     1.7763     0.9067 H       
  30 H30            1.1322     1.2419    -2.0018 H       
  31 H31            2.2258     0.1582    -3.9185 H       
  32 H32            0.2212    -2.5891    -0.3381 H       
  33 H33            4.4729    -1.7633    -3.9106 H       
  34 H34            1.8505    -4.4629    -7.0453 H       
  35 H35           -0.1402    -3.8101    -7.0546 H       
  36 H36            0.1687    -5.2529    -6.0590 H       
  37 H37           -1.5241    -6.0614    -4.4674 H       
  38 H38           -3.9531    -6.1141    -3.9389 H       
  39 H39           -5.4331    -4.4017    -4.9087 H       
  40 H40           -2.2459    -2.6056    -6.8686 H       
  41 H41            5.9214    -3.9871    -7.5874 H       
  42 H42            7.4186    -3.3685    -7.1420 H       
@<TRIPOS>BOND
   1    1    2 1
   2    1   27 1
   3    1   28 1
   4    1   29 1
   5    2    3 1
   6    3    9 ar
   7    3    4 ar
   8    4    5 ar
   9    4   30 1
  10    5    6 ar
  11    5   31 1
  12    6    7 ar
  13    6   10 1
  14    7    8 1
  15    7    9 ar
  16    9   32 1
  17   10   15 ar
  18   10   11 ar
  19   11   12 ar
  20   11   33 1
  21   12   13 ar
  22   12   24 1
  23   13   14 ar
  24   14   15 ar
  25   14   34 1
  26   15   16 1
  27   16   17 1
  28   17   18 1
  29   17   35 1
  30   17   36 1
  31   18   23 ar
  32   18   19 ar
  33   19   20 ar
  34   19   37 1
  35   20   21 ar
  36   20   38 1
  37   21   22 ar
  38   21   39 1
  39   22   23 ar
  40   23   40 1
  41   24   25 am
  42   24   26 2
  43   25   41 1
  44   25   42 1

#	End of record

