#	Name: ASD02198561
#	Creating user name:	WinNT
#	Creation time:	15. 06. 2019 20:19

#	Modifying user name:	WinNT
#	Modification time:	15. 06. 2019 20:19

#	Program:	/corina/corina34_cracker 3.40 0067  02.08.2006

@<TRIPOS>MOLECULE
ASD02198561
  49   53    0    0    0
SMALL
NO_CHARGES


@<TRIPOS>ATOM
   1 C1             0.0072     1.5097     0.1335 C.2     
   2 C2             0.0745     0.1698    -0.0948 C.2     
   3 N3            -1.0521    -0.5606    -0.2641 N.pl3   
   4 N4            -2.2301    -0.0573    -0.2232 N.2     
   5 C5            -2.4378     1.2254    -0.0103 C.2     
   6 C6            -1.2793     2.1065     0.1922 C.2     
   7 C7            -0.9244    -1.9343    -0.4958 C.ar    
   8 C8            -1.3816    -3.8681    -1.8440 C.ar    
   9 C9            -0.6715    -4.6530    -0.9540 C.ar    
  10 C10           -0.0930    -4.0843     0.1658 C.ar    
  11 C11           -0.2173    -2.7282     0.3975 C.ar    
  12 C12           -3.8111     1.7681     0.0292 C.2     
  13 N13           -4.3735     2.4806     1.0507 N.pl3   
  14 N14           -5.6853     2.7987     0.6775 N.2     
  15 C15           -5.9154     2.3057    -0.5133 C.2     
  16 C16           -4.7641     1.6565    -0.9593 C.2     
  17 C17           -3.7499     2.8296     2.2555 C.ar    
  18 C18           -2.9565     1.9049     2.9216 C.ar    
  19 O19           -1.4174     3.3044     0.3939 O.2     
  20 C20           -3.9192     4.1029     2.7832 C.ar    
  21 C21           -3.3027     4.4440     3.9711 C.ar    
  22 C22           -2.5174     3.5193     4.6347 C.ar    
  23 C23           -2.3427     2.2522     4.1091 C.ar    
  24 C24           -1.5106    -2.5097    -1.6192 C.ar    
  25 F25           -2.2047    -1.7428    -2.4882 F       
  26 O26            1.1344     2.2509     0.3051 O.3     
  27 C27            2.3828     1.5591     0.2346 C.3     
  28 C28           -0.5333    -6.1330    -1.2018 C.3     
  29 C29            0.8813    -6.6933    -1.3633 C.3     
  30 C30            0.0854    -6.9809    -0.0886 C.3     
  31 H31            1.0379    -0.3161    -0.1417 H       
  32 H32           -1.8321    -4.3156    -2.7177 H       
  33 H33            0.4607    -4.7009     0.8584 H       
  34 H34            0.2354    -2.2857     1.2724 H       
  35 H35           -6.8419     2.3915    -1.0616 H       
  36 H36           -4.6437     1.1512    -1.9062 H       
  37 H37           -2.8199     0.9151     2.5118 H       
  38 H38           -4.5321     4.8257     2.2652 H       
  39 H39           -3.4336     5.4342     4.3818 H       
  40 H40           -2.0361     3.7886     5.5632 H       
  41 H41           -1.7291     1.5320     4.6299 H       
  42 H42            3.1988     2.2654     0.3881 H       
  43 H43            2.4168     0.7911     1.0073 H       
  44 H44            2.4851     1.0932    -0.7455 H       
  45 H45           -1.3251    -6.5857    -1.7987 H       
  46 H46            1.0200    -7.5147    -2.0661 H       
  47 H47            1.7119    -5.9913    -1.2903 H       
  48 H48            0.3925    -6.4683     0.8229 H       
  49 H49           -0.2994    -7.9917     0.0471 H       
@<TRIPOS>BOND
   1    1    2 2
   2    1   26 1
   3    1    6 1
   4    2    3 1
   5    2   31 1
   6    3    4 1
   7    3    7 1
   8    4    5 2
   9    5    6 1
  10    5   12 1
  11    6   19 2
  12    7   24 ar
  13    7   11 ar
  14    8    9 ar
  15    8   24 ar
  16    8   32 1
  17    9   10 ar
  18    9   28 1
  19   10   11 ar
  20   10   33 1
  21   11   34 1
  22   12   13 1
  23   12   16 2
  24   13   14 1
  25   13   17 1
  26   14   15 2
  27   15   16 1
  28   15   35 1
  29   16   36 1
  30   17   20 ar
  31   17   18 ar
  32   18   23 ar
  33   18   37 1
  34   20   21 ar
  35   20   38 1
  36   21   22 ar
  37   21   39 1
  38   22   23 ar
  39   22   40 1
  40   23   41 1
  41   24   25 1
  42   26   27 1
  43   27   42 1
  44   27   43 1
  45   27   44 1
  46   28   29 1
  47   28   30 1
  48   28   45 1
  49   29   30 1
  50   29   46 1
  51   29   47 1
  52   30   48 1
  53   30   49 1

#	End of record

