#	Name: ASD01870261
#	Creating user name:	WinNT
#	Creation time:	15. 06. 2019 19:38

#	Modifying user name:	WinNT
#	Modification time:	15. 06. 2019 19:38

#	Program:	/corina/corina34_cracker 3.40 0067  02.08.2006

@<TRIPOS>MOLECULE
ASD01870261
  57   61    0    0    0
SMALL
NO_CHARGES


@<TRIPOS>ATOM
   1 C1            -0.0390     1.2104    -1.0154 C.ar    
   2 C2             0.0330    -0.1769    -0.9155 C.ar    
   3 C3             1.1874    -0.7961    -0.5382 C.ar    
   4 C4             2.3216    -0.0268    -0.2461 C.ar    
   5 C5             2.2483     1.3887    -0.3487 C.ar    
   6 C6             1.0436     1.9909    -0.7393 C.ar    
   7 C7             3.5397    -0.6114     0.1475 C.ar    
   8 N8             4.5794     0.1354     0.4129 N.ar    
   9 C9             4.5546     1.4727     0.3292 C.ar    
  10 C10            3.3977     2.1318    -0.0511 C.ar    
  11 C11            5.6005     2.4879     0.5805 C.2     
  12 N12            5.1152     3.7225     0.3659 N.am    
  13 C13            3.7107     3.6055    -0.0431 C.3     
  14 C14            5.8618     4.9740     0.5161 C.3     
  15 C15            6.3539     5.1043     1.9589 C.3     
  16 C16            7.2659     3.9229     2.2954 C.3     
  17 C17            8.4656     3.9181     1.3459 C.3     
  18 C18            7.9735     3.7878    -0.0969 C.3     
  19 C19            7.0615     4.9692    -0.4334 C.3     
  20 C20            3.6463    -2.1100     0.2647 C.3     
  21 C21            4.0842    -2.6873    -1.0567 C.ar    
  22 C22            5.4269    -2.8482    -1.3387 C.ar    
  23 N23            5.8186    -3.3527    -2.4929 N.ar    
  24 C24            4.9530    -3.7219    -3.4178 C.ar    
  25 C25            3.5918    -3.5902    -3.2054 C.ar    
  26 C26            3.1438    -3.0689    -2.0023 C.ar    
  27 O27            6.7377     2.2406     0.9313 O.2     
  28 O28            5.2334     5.1088     2.8458 O.3     
  29 C29            3.5199     4.1916    -1.4434 C.3     
  30 Cl30           5.5281    -4.3796    -4.9180 Cl      
  31 C31            3.7661     5.7011    -1.4024 C.3     
  32 F32            3.4499     6.2591    -2.6457 F       
  33 H33           -0.9653     1.6743    -1.3207 H       
  34 H34           -0.8401    -0.7717    -1.1401 H       
  35 H35            1.2274    -1.8728    -0.4645 H       
  36 H36            0.9743     3.0656    -0.8215 H       
  37 H37            3.0682     4.1213     0.6706 H       
  38 H38            5.2120     5.8157     0.2764 H       
  39 H39            6.9093     6.0355     2.0706 H       
  40 H40            7.6165     4.0158     3.3233 H       
  41 H41            6.7104     2.9917     2.1837 H       
  42 H42            9.0211     4.8493     1.4576 H       
  43 H43            9.1154     3.0764     1.5856 H       
  44 H44            8.8282     3.7844    -0.7734 H       
  45 H45            7.4180     2.8566    -0.2087 H       
  46 H46            6.7109     4.8763    -1.4613 H       
  47 H47            7.6170     5.9004    -0.3217 H       
  48 H48            4.3777    -2.3634     1.0321 H       
  49 H49            2.6752    -2.5231     0.5377 H       
  50 H50            6.1648    -2.5571    -0.6057 H       
  51 H51            2.8877    -3.8934    -3.9662 H       
  52 H52            2.0874    -2.9549    -1.8085 H       
  53 H53            5.4712     5.1889     3.7796 H       
  54 H54            4.2263     3.7268    -2.1312 H       
  55 H55            2.5021     3.9985    -1.7825 H       
  56 H56            3.1392     6.1507    -0.6323 H       
  57 H57            4.8147     5.8922    -1.1745 H       
@<TRIPOS>BOND
   1    1    2 ar
   2    1    6 ar
   3    1   33 1
   4    2    3 ar
   5    2   34 1
   6    3    4 ar
   7    3   35 1
   8    4    5 ar
   9    4    7 ar
  10    5    6 ar
  11    5   10 ar
  12    6   36 1
  13    7    8 ar
  14    7   20 1
  15    8    9 ar
  16    9   10 ar
  17    9   11 1
  18   10   13 1
  19   11   12 am
  20   11   27 2
  21   12   13 1
  22   12   14 1
  23   13   29 1
  24   13   37 1
  25   14   15 1
  26   14   19 1
  27   14   38 1
  28   15   16 1
  29   15   28 1
  30   15   39 1
  31   16   17 1
  32   16   40 1
  33   16   41 1
  34   17   18 1
  35   17   42 1
  36   17   43 1
  37   18   19 1
  38   18   44 1
  39   18   45 1
  40   19   46 1
  41   19   47 1
  42   20   21 1
  43   20   48 1
  44   20   49 1
  45   21   22 ar
  46   21   26 ar
  47   22   23 ar
  48   22   50 1
  49   23   24 ar
  50   24   25 ar
  51   24   30 1
  52   25   26 ar
  53   25   51 1
  54   26   52 1
  55   28   53 1
  56   29   31 1
  57   29   54 1
  58   29   55 1
  59   31   32 1
  60   31   56 1
  61   31   57 1

#	End of record

