#	Name: ASD03731775
#	Creating user name:	WinNT
#	Creation time:	15. 06. 2019 20:46

#	Modifying user name:	WinNT
#	Modification time:	15. 06. 2019 20:46

#	Program:	/corina/corina34_cracker 3.40 0067  02.08.2006

@<TRIPOS>MOLECULE
ASD03731775
  37   38    0    0    0
SMALL
NO_CHARGES


@<TRIPOS>ATOM
   1 C1             0.3752     1.0902     1.9861 C.2     
   2 C2             0.2911    -0.2849     1.4552 C.ar    
   3 C3             1.3729    -0.8345     0.7696 C.ar    
   4 C4             1.2883    -2.1322     0.2714 C.ar    
   5 C5             0.1135    -2.8773     0.4636 C.ar    
   6 C6            -0.9582    -2.3195     1.1483 C.ar    
   7 C7            -0.8723    -1.0382     1.6455 C.ar    
   8 O8             1.3882     1.7431     1.8251 O.2     
   9 N9            -0.6729     1.6237     2.6443 N.am    
  10 O10            0.0255    -4.1404    -0.0195 O.3     
  11 C11           -1.1654    -4.7849     0.0930 C.ar    
  12 C12           -2.1193    -4.6624    -0.9075 C.ar    
  13 C13           -3.3291    -5.3185    -0.7907 C.ar    
  14 C14           -3.5904    -6.0966     0.3223 C.ar    
  15 C15           -2.6421    -6.2200     1.3206 C.ar    
  16 C16           -1.4277    -5.5712     1.2056 C.ar    
  17 C17           -4.3654    -5.1859    -1.8768 C.3     
  18 F18           -4.1762    -6.1945    -2.8276 F       
  19 F19           -5.6430    -5.3043    -1.3192 F       
  20 F20           -4.2391    -3.9356    -2.4917 F       
  21 S21           -0.5786     3.1661     3.2397 S.o2    
  22 O22           -1.8311     3.3723     3.8785 O.2     
  23 O23            0.6334     3.1819     3.9813 O.2     
  24 C24           -0.4362     4.2127     1.7649 C.3     
  25 C25            2.3950    -2.7045    -0.4346 C.1     
  26 N26            3.2728    -3.1585    -0.9947 N.1     
  27 H27            2.2734    -0.2560     0.6250 H       
  28 H28           -1.8608    -2.8940     1.2947 H       
  29 H29           -1.7077    -0.6118     2.1809 H       
  30 H30           -1.4825     1.1043     2.7692 H       
  31 H31           -1.9160    -4.0542    -1.7766 H       
  32 H32           -4.5371    -6.6086     0.4118 H       
  33 H33           -2.8489    -6.8278     2.1891 H       
  34 H34           -0.6852    -5.6720     1.9833 H       
  35 H35           -1.3141     4.0730     1.1341 H       
  36 H36           -0.3681     5.2580     2.0664 H       
  37 H37            0.4590     3.9360     1.2081 H       
@<TRIPOS>BOND
   1    1    2 1
   2    1    8 2
   3    1    9 am
   4    2    3 ar
   5    2    7 ar
   6    3    4 ar
   7    3   27 1
   8    4    5 ar
   9    4   25 1
  10    5    6 ar
  11    5   10 1
  12    6    7 ar
  13    6   28 1
  14    7   29 1
  15    9   21 am
  16    9   30 1
  17   10   11 1
  18   11   12 ar
  19   11   16 ar
  20   12   13 ar
  21   12   31 1
  22   13   14 ar
  23   13   17 1
  24   14   15 ar
  25   14   32 1
  26   15   16 ar
  27   15   33 1
  28   16   34 1
  29   17   18 1
  30   17   19 1
  31   17   20 1
  32   21   22 2
  33   21   23 2
  34   21   24 1
  35   24   35 1
  36   24   36 1
  37   24   37 1
  38   25   26 3

#	End of record

