#	Name: ASD00960001
#	Creating user name:	WinNT
#	Creation time:	15. 06. 2019 18:53

#	Modifying user name:	WinNT
#	Modification time:	15. 06. 2019 18:53

#	Program:	/corina/corina34_cracker 3.40 0067  02.08.2006

@<TRIPOS>MOLECULE
ASD00960001
  11   11    0    0    0
SMALL
NO_CHARGES


@<TRIPOS>ATOM
   1 C1            -0.0162     1.3406     0.0094 C.2     
   2 N2             0.0021    -0.0041     0.0020 N.2     
   3 C3             1.2414    -0.4049    -0.0120 C.2     
   4 O4             2.0417     0.6695    -0.0138 O.3     
   5 C5             1.2581     1.7656    -0.0005 C.2     
   6 C6             1.6994    -1.8405    -0.0233 C.3     
   7 H7            -0.8966     1.9660     0.0172 H       
   8 H8             1.5917     2.7928     0.0015 H       
   9 H9             1.7998    -2.1818    -1.0536 H       
  10 H10            2.6627    -1.9186     0.4808 H       
  11 H11            0.9670    -2.4597     0.4947 H       
@<TRIPOS>BOND
   1    1    2 1
   2    1    5 2
   3    1    7 1
   4    2    3 2
   5    3    4 1
   6    3    6 1
   7    4    5 1
   8    5    8 1
   9    6    9 1
  10    6   10 1
  11    6   11 1

#	End of record

