#	Name: ASD01730024
#	Creating user name:	WinNT
#	Creation time:	15. 06. 2019 19:23

#	Modifying user name:	WinNT
#	Modification time:	15. 06. 2019 19:23

#	Program:	/corina/corina34_cracker 3.40 0067  02.08.2006

@<TRIPOS>MOLECULE
ASD01730024
  28   29    0    0    0
SMALL
NO_CHARGES


@<TRIPOS>ATOM
   1 C1             0.2521     1.9284    -0.9037 C.2     
   2 C2             0.6672     0.9121    -1.9361 C.3     
   3 N3             1.0683     2.2437     0.0691 N.2     
   4 N4            -0.9689     2.5221    -0.9863 N.pl3   
   5 C5            -1.3725     3.5101     0.0173 C.3     
   6 N6             2.2170     0.2877     0.4280 N.2     
   7 C7             2.2340     1.5770     0.2156 C.2     
   8 S8             3.7571     2.4571     0.1172 S.3     
   9 C9             4.7341     1.4848     1.2914 C.3     
  10 C10            4.5525     0.0185     0.9921 C.ar    
  11 C11            3.3227    -0.4897     0.5792 C.ar    
  12 C12            5.6370    -0.8267     1.1335 C.ar    
  13 C13            5.5125    -2.1771     0.8644 C.ar    
  14 C14            4.2969    -2.6917     0.4498 C.ar    
  15 C15            3.2078    -1.8617     0.3063 C.ar    
  16 H16            0.4526    -0.0904    -1.5659 H       
  17 H17            0.1137     1.0849    -2.8590 H       
  18 H18            1.7357     1.0068    -2.1300 H       
  19 H19           -1.5725     2.2913    -1.7097 H       
  20 H20           -0.6723     4.3454     0.0070 H       
  21 H21           -2.3743     3.8729    -0.2123 H       
  22 H22           -1.3711     3.0470     1.0041 H       
  23 H23            5.7873     1.7485     1.1951 H       
  24 H24            4.3968     1.6937     2.3066 H       
  25 H25            6.5880    -0.4295     1.4561 H       
  26 H26            6.3649    -2.8307     0.9776 H       
  27 H27            4.2023    -3.7465     0.2380 H       
  28 H28            2.2609    -2.2681    -0.0172 H       
@<TRIPOS>BOND
   1    1    2 1
   2    1    3 2
   3    1    4 1
   4    2   16 1
   5    2   17 1
   6    2   18 1
   7    3    7 1
   8    4    5 1
   9    4   19 1
  10    5   20 1
  11    5   21 1
  12    5   22 1
  13    6    7 2
  14    6   11 1
  15    7    8 1
  16    8    9 1
  17    9   10 1
  18    9   23 1
  19    9   24 1
  20   10   11 ar
  21   10   12 ar
  22   11   15 ar
  23   12   13 ar
  24   12   25 1
  25   13   14 ar
  26   13   26 1
  27   14   15 ar
  28   14   27 1
  29   15   28 1

#	End of record

