#	Name: ASD03430430
#	Creating user name:	WinNT
#	Creation time:	15. 06. 2019 20:41

#	Modifying user name:	WinNT
#	Modification time:	15. 06. 2019 20:41

#	Program:	/corina/corina34_cracker 3.40 0067  02.08.2006

@<TRIPOS>MOLECULE
ASD03430430
  40   41    0    0    0
SMALL
NO_CHARGES


@<TRIPOS>ATOM
   1 O1            -0.0161     1.3379     0.0094 O.3     
   2 C2             0.0021    -0.0041     0.0020 C.2     
   3 N3             1.2786    -0.4359    -0.0125 N.am    
   4 C4             2.1022     0.6896    -0.0143 C.ar    
   5 C5             1.2589     1.8007    -0.0003 C.ar    
   6 C6             3.4770     0.8612    -0.0256 C.ar    
   7 C7             4.0112     2.1401    -0.0230 C.ar    
   8 C8             3.1707     3.2450    -0.0090 C.ar    
   9 C9             1.7999     3.0764     0.0021 C.ar    
  10 O10           -0.9811    -0.7196     0.0082 O.2     
  11 C11            1.7205    -1.8326    -0.0238 C.3     
  12 O12            5.3597     2.3128    -0.0336 O.3     
  13 Si13           6.0049     2.4055    -1.5287 Si      
  14 C14            5.6448     0.8321    -2.4591 C.3     
  15 C15            5.2586     3.8497    -2.4387 C.3     
  16 C16            7.8483     2.6406    -1.3962 C.3     
  17 C17            8.4612     1.4545    -0.6489 C.3     
  18 C18            8.4535     2.7275    -2.7987 C.3     
  19 C19            8.1440     3.9327    -0.6321 C.3     
  20 H20            4.1302     0.0012    -0.0361 H       
  21 H21            3.5904     4.2401    -0.0067 H       
  22 H22            1.1497     3.9388     0.0126 H       
  23 H23            0.8503    -2.4890    -0.0191 H       
  24 H24            2.3117    -2.0194    -0.9202 H       
  25 H25            2.3282    -2.0286     0.8596 H       
  26 H26            4.5663     0.6946    -2.5367 H       
  27 H27            6.0760     0.8941    -3.4583 H       
  28 H28            6.0815    -0.0128    -1.9267 H       
  29 H29            5.4692     4.7703    -1.8944 H       
  30 H30            5.6897     3.9117    -3.4379 H       
  31 H31            4.1801     3.7122    -2.5163 H       
  32 H32            8.2505     0.5339    -1.1932 H       
  33 H33            9.5397     1.5920    -0.5713 H       
  34 H34            8.0300     1.3925     0.3503 H       
  35 H35            8.0168     3.5725    -3.3311 H       
  36 H36            9.5320     2.8650    -2.7211 H       
  37 H37            8.2428     1.8070    -3.3430 H       
  38 H38            7.7128     3.8708     0.3671 H       
  39 H39            9.2225     4.0702    -0.5545 H       
  40 H40            7.7073     4.7777    -1.1645 H       
@<TRIPOS>BOND
   1    1    2 1
   2    1    5 1
   3    2    3 am
   4    2   10 2
   5    3    4 1
   6    3   11 1
   7    4    5 ar
   8    4    6 ar
   9    5    9 ar
  10    6    7 ar
  11    6   20 1
  12    7    8 ar
  13    7   12 1
  14    8    9 ar
  15    8   21 1
  16    9   22 1
  17   11   23 1
  18   11   24 1
  19   11   25 1
  20   12   13 1
  21   13   14 1
  22   13   15 1
  23   13   16 1
  24   14   26 1
  25   14   27 1
  26   14   28 1
  27   15   29 1
  28   15   30 1
  29   15   31 1
  30   16   17 1
  31   16   19 1
  32   16   18 1
  33   17   32 1
  34   17   33 1
  35   17   34 1
  36   18   35 1
  37   18   36 1
  38   18   37 1
  39   19   38 1
  40   19   39 1
  41   19   40 1

#	End of record

