#	Name: ASD00570007
#	Creating user name:	WinNT
#	Creation time:	15. 06. 2019 18:36

#	Modifying user name:	WinNT
#	Modification time:	15. 06. 2019 18:36

#	Program:	/corina/corina34_cracker 3.40 0067  02.08.2006

@<TRIPOS>MOLECULE
ASD00570007
  72   76    0    0    0
SMALL
NO_CHARGES


@<TRIPOS>ATOM
   1 C1             6.5674    -2.3906    -6.3232 C.ar    
   2 C2             6.2165    -3.5260    -5.6041 C.ar    
   3 C3             6.1221    -3.4902    -4.2316 C.ar    
   4 C4             6.3825    -2.2979    -3.5505 C.ar    
   5 C5             6.7399    -1.1444    -4.2857 C.ar    
   6 C6             6.8290    -1.2034    -5.6755 C.ar    
   7 N7             6.3001    -2.2209    -2.2014 N.2     
   8 C8             6.5438    -1.1034    -1.5627 C.2     
   9 N9             6.8952     0.0564    -2.1968 N.am    
  10 C10            7.0077     0.0954    -3.5446 C.2     
  11 C11            7.1404     1.2127    -1.4451 C.ar    
  12 C12            6.0791     1.9664    -0.9617 C.ar    
  13 C13            6.3241     3.1057    -0.2205 C.ar    
  14 C14            7.6248     3.4961     0.0405 C.ar    
  15 C15            8.6839     2.7479    -0.4399 C.ar    
  16 C16            8.4453     1.6044    -1.1769 C.ar    
  17 S17            6.4122    -1.0938     0.1944 S.3     
  18 C18            6.0400    -2.8401     0.4912 C.3     
  19 C19            7.2137    -3.6835     0.0642 C.2     
  20 C20            5.7707    -3.0580     1.9815 C.3     
  21 C21            4.5333    -2.2605     2.3981 C.3     
  22 C22            4.2730    -2.4662     3.8917 C.3     
  23 C23            3.0355    -1.6686     4.3083 C.3     
  24 N24            7.0255    -4.9701    -0.2901 N.am    
  25 C25            8.1597    -5.8052    -0.7087 C.3     
  26 C26            8.1724    -7.0800     0.1399 C.3     
  27 C27            6.8119    -7.7720     0.0386 C.3     
  28 C28            5.7232    -6.8421     0.5795 C.3     
  29 C29            5.6830    -5.5666    -0.2595 C.3     
  30 O30            8.3276    -3.2044     0.0394 O.2     
  31 O31            7.3196     1.1207    -4.1221 O.2     
  32 C32            9.2660    -8.0206    -0.3692 C.3     
  33 N33           10.5731    -7.3609    -0.2538 N.3     
  34 C34           10.8869    -7.0457     1.1457 C.3     
  35 C35            9.8410    -6.0752     1.6991 C.3     
  36 C36            8.4540    -6.7165     1.5998 C.3     
  37 H37            6.6401    -2.4403    -7.3996 H       
  38 H38            6.0148    -4.4483    -6.1287 H       
  39 H39            5.8476    -4.3793    -3.6833 H       
  40 H40            7.1014    -0.3243    -6.2407 H       
  41 H41            5.0631     1.6622    -1.1655 H       
  42 H42            5.4991     3.6926     0.1555 H       
  43 H43            7.8139     4.3874     0.6203 H       
  44 H44            9.6986     3.0558    -0.2351 H       
  45 H45            9.2728     1.0205    -1.5518 H       
  46 H46            5.1588    -3.1265    -0.0829 H       
  47 H47            5.5997    -4.1181     2.1686 H       
  48 H48            6.6315    -2.7213     2.5593 H       
  49 H49            4.7001    -1.2016     2.2008 H       
  50 H50            3.6703    -2.6047     1.8281 H       
  51 H51            4.1062    -3.5251     4.0890 H       
  52 H52            5.1360    -2.1219     4.4616 H       
  53 H53            2.8501    -1.8152     5.3724 H       
  54 H54            3.2024    -0.6097     4.1110 H       
  55 H55            2.1726    -2.0129     3.7383 H       
  56 H56            8.0514    -6.0678    -1.7610 H       
  57 H57            9.0907    -5.2581    -0.5603 H       
  58 H58            6.6018    -8.0090    -1.0044 H       
  59 H59            6.8278    -8.6915     0.6237 H       
  60 H60            4.7571    -7.3441     0.5273 H       
  61 H61            5.9452    -6.5861     1.6155 H       
  62 H62            4.9785    -4.8614     0.1814 H       
  63 H63            5.3735    -5.8078    -1.2764 H       
  64 H64            9.2661    -8.9335     0.2263 H       
  65 H65            9.0750    -8.2682    -1.4134 H       
  66 H66           11.3001    -7.9237    -0.6695 H       
  67 H67           10.8791    -7.9626     1.7349 H       
  68 H68           11.8739    -6.5866     1.2019 H       
  69 H69           10.0658    -5.8540     2.7425 H       
  70 H70            9.8577    -5.1525     1.1191 H       
  71 H71            7.7007    -6.0117     1.9516 H       
  72 H72            8.4248    -7.6181     2.2118 H       
@<TRIPOS>BOND
   1    1    2 ar
   2    1    6 ar
   3    1   37 1
   4    2    3 ar
   5    2   38 1
   6    3    4 ar
   7    3   39 1
   8    4    5 ar
   9    4    7 1
  10    5    6 ar
  11    5   10 1
  12    6   40 1
  13    7    8 2
  14    8    9 1
  15    8   17 1
  16    9   10 am
  17    9   11 1
  18   10   31 2
  19   11   12 ar
  20   11   16 ar
  21   12   13 ar
  22   12   41 1
  23   13   14 ar
  24   13   42 1
  25   14   15 ar
  26   14   43 1
  27   15   16 ar
  28   15   44 1
  29   16   45 1
  30   17   18 1
  31   18   19 1
  32   18   20 1
  33   18   46 1
  34   19   24 am
  35   19   30 2
  36   20   21 1
  37   20   47 1
  38   20   48 1
  39   21   22 1
  40   21   49 1
  41   21   50 1
  42   22   23 1
  43   22   51 1
  44   22   52 1
  45   23   53 1
  46   23   54 1
  47   23   55 1
  48   24   25 1
  49   24   29 1
  50   25   26 1
  51   25   56 1
  52   25   57 1
  53   26   27 1
  54   26   32 1
  55   26   36 1
  56   27   28 1
  57   27   58 1
  58   27   59 1
  59   28   29 1
  60   28   60 1
  61   28   61 1
  62   29   62 1
  63   29   63 1
  64   32   33 1
  65   32   64 1
  66   32   65 1
  67   33   34 1
  68   33   66 1
  69   34   35 1
  70   34   67 1
  71   34   68 1
  72   35   36 1
  73   35   69 1
  74   35   70 1
  75   36   71 1
  76   36   72 1

#	End of record

