#	Name: ASD05430389
#	Creating user name:	WinNT
#	Creation time:	15. 06. 2019 21:00

#	Modifying user name:	WinNT
#	Modification time:	15. 06. 2019 21:00

#	Program:	/corina/corina34_cracker 3.40 0067  02.08.2006

@<TRIPOS>MOLECULE
ASD05430389
  58   62    0    0    0
SMALL
NO_CHARGES


@<TRIPOS>ATOM
   1 C1            -0.0229     1.3681     0.1755 C.ar    
   2 C2            -0.0158    -0.0184     0.3226 C.ar    
   3 C3            -1.2129    -0.7203     0.3792 C.ar    
   4 C4            -2.4135    -0.0498     0.2906 C.ar    
   5 C5            -2.4285     1.3412     0.1433 C.ar    
   6 C6            -1.2233     2.0482     0.0917 C.ar    
   7 C7            -4.8651     1.3680    -0.0475 C.2     
   8 C8            -3.7096     2.0591     0.0480 C.2     
   9 N9            -7.1680     1.5696    -0.8192 N.pl3   
  10 C10           -6.1758     2.0461     0.0374 C.2     
  11 O11            1.1509     2.0517     0.1200 O.3     
  12 C12            1.0690     3.4703    -0.0316 C.3     
  13 C13            1.5487    -1.6294     1.3654 C.2     
  14 N14            1.2030    -0.7060     0.4132 N.pl3   
  15 C15            2.7999    -2.0366     1.0779 C.2     
  16 N16            3.2113    -1.3829    -0.0185 N.2     
  17 C17            2.2636    -0.5829    -0.4261 C.2     
  18 C18            3.5995    -3.0509     1.8543 C.3     
  19 C19           -6.8956     0.3445    -1.5615 C.3     
  20 O20           -4.8704     0.0157    -0.2320 O.3     
  21 C21           -8.4272     2.2990    -0.9341 C.3     
  22 C22           -8.7846     2.8671     0.4442 C.3     
  23 O23           -7.6869     3.6083     0.9672 O.3     
  24 N24           -6.4153     3.0081     0.8624 N.2     
  25 C25           -8.2727     3.4258    -1.9229 C.ar    
  26 C26           -9.2958     3.7144    -2.8066 C.ar    
  27 C27           -7.9892     5.4937    -3.7371 C.ar    
  28 C28           -6.9674     5.2073    -2.8477 C.ar    
  29 C29           -7.1101     4.1736    -1.9417 C.ar    
  30 F30           -7.8508     6.5040    -4.6232 F       
  31 C31           -9.1553     4.7474    -3.7138 C.ar    
  32 C32           -6.0767    -0.5998    -0.6780 C.3     
  33 C33          -10.0013     3.7856     0.3145 C.3     
  34 H34           -1.2027    -1.7943     0.4925 H       
  35 H35           -3.3429    -0.5982     0.3345 H       
  36 H36           -1.2302     3.1222    -0.0219 H       
  37 H37           -3.7252     3.1390     0.0545 H       
  38 H38            2.0740     3.8911    -0.0616 H       
  39 H39            0.5481     3.7070    -0.9593 H       
  40 H40            0.5224     3.8947     0.8105 H       
  41 H41            0.9370    -1.9629     2.1906 H       
  42 H42            2.3142     0.0672    -1.2870 H       
  43 H43            3.4124    -4.0464     1.4517 H       
  44 H44            4.6611    -2.8185     1.7698 H       
  45 H45            3.3035    -3.0215     2.9029 H       
  46 H46           -7.8361    -0.1339    -1.8346 H       
  47 H47           -6.3289     0.5814    -2.4620 H       
  48 H48           -9.2142     1.6226    -1.2676 H       
  49 H49           -9.0232     2.0476     1.1221 H       
  50 H50          -10.2053     3.1322    -2.7882 H       
  51 H51           -6.0591     5.7914    -2.8622 H       
  52 H52           -6.3132     3.9500    -1.2479 H       
  53 H53           -9.9544     4.9722    -4.4045 H       
  54 H54           -6.6735    -0.8834     0.1890 H       
  55 H55           -5.8300    -1.4959    -1.2475 H       
  56 H56          -10.8457     3.2171    -0.0753 H       
  57 H57          -10.2569     4.1905     1.2937 H       
  58 H58           -9.7682     4.6034    -0.3673 H       
@<TRIPOS>BOND
   1    1    2 ar
   2    1   11 1
   3    1    6 ar
   4    2    3 ar
   5    2   14 1
   6    3    4 ar
   7    3   34 1
   8    4    5 ar
   9    4   35 1
  10    5    6 ar
  11    5    8 1
  12    6   36 1
  13    7    8 2
  14    7   20 1
  15    7   10 1
  16    8   37 1
  17    9   10 1
  18    9   21 1
  19    9   19 1
  20   10   24 2
  21   11   12 1
  22   12   38 1
  23   12   39 1
  24   12   40 1
  25   13   14 1
  26   13   15 2
  27   13   41 1
  28   14   17 1
  29   15   16 1
  30   15   18 1
  31   16   17 2
  32   17   42 1
  33   18   43 1
  34   18   44 1
  35   18   45 1
  36   19   32 1
  37   19   46 1
  38   19   47 1
  39   20   32 1
  40   21   22 1
  41   21   25 1
  42   21   48 1
  43   22   23 1
  44   22   33 1
  45   22   49 1
  46   23   24 1
  47   25   26 ar
  48   25   29 ar
  49   26   31 ar
  50   26   50 1
  51   27   28 ar
  52   27   30 1
  53   27   31 ar
  54   28   29 ar
  55   28   51 1
  56   29   52 1
  57   31   53 1
  58   32   54 1
  59   32   55 1
  60   33   56 1
  61   33   57 1
  62   33   58 1

#	End of record

