#	Name: ASD03330961
#	Creating user name:	WinNT
#	Creation time:	15. 06. 2019 20:38

#	Modifying user name:	WinNT
#	Modification time:	15. 06. 2019 20:38

#	Program:	/corina/corina34_cracker 3.40 0067  02.08.2006

@<TRIPOS>MOLECULE
ASD03330961
  71   74    0    0    0
SMALL
NO_CHARGES


@<TRIPOS>ATOM
   1 N1            -0.8166     1.3603    -0.3157 N.pl3   
   2 C2            -0.5932     0.0228    -0.2157 C.2     
   3 C3             0.7562    -0.6343    -0.0868 C.3     
   4 N4             1.5376     0.0670     0.9437 N.3     
   5 C5             2.2974     1.1784     0.3682 C.3     
   6 C6             1.5344     1.8212    -0.7864 C.3     
   7 C7             0.2133     2.4022    -0.2752 C.3     
   8 C8            -2.1627     1.5410    -0.4466 C.2     
   9 N9            -2.7484     0.3671    -0.4108 N.2     
  10 C10           -1.8074    -0.5915    -0.2661 C.2     
  11 C11           -2.0512    -2.0421    -0.1791 C.2     
  12 O12           -1.1163    -2.8092    -0.0494 O.2     
  13 N13           -3.3102    -2.5189    -0.2431 N.am    
  14 C14            2.4235    -0.8632     1.6564 C.3     
  15 C15           -4.8548    -4.2934    -0.8384 C.2     
  16 C16           -3.5526    -3.9611    -0.1565 C.3     
  17 C17           -3.6257    -4.3786     1.3136 C.3     
  18 C18           -4.6826    -3.5365     2.0310 C.3     
  19 N19           -4.9912    -5.4606    -1.4984 N.am    
  20 C20           -3.8380    -6.3495    -1.6606 C.3     
  21 O21           -7.2498    -4.8054    -1.8001 O.3     
  22 C22           -6.2926    -5.8405    -2.0535 C.3     
  23 C23           -6.1805    -6.0076    -3.5841 C.3     
  24 C24           -6.7105    -4.6437    -4.1043 C.3     
  25 C25           -7.7902    -4.3225    -3.0403 C.3     
  26 O26           -5.7799    -3.5106    -0.7934 O.2     
  27 C27           -4.0041    -5.8582     1.4053 C.3     
  28 C28           -2.2635    -4.1587     1.9746 C.3     
  29 C29           -2.8476     2.8426    -0.6024 C.ar    
  30 C30           -3.8278     3.0068    -1.5848 C.ar    
  31 C31           -4.4639     4.2259    -1.7243 C.ar    
  32 C32           -4.1319     5.2811    -0.8943 C.ar    
  33 C33           -3.1612     5.1243     0.0805 C.ar    
  34 C34           -2.5220     3.9100     0.2344 C.ar    
  35 F35           -4.1524     1.9767    -2.3965 F       
  36 Cl36          -2.7515     6.4559     1.1163 Cl      
  37 H37            0.6272    -1.6778     0.2008 H       
  38 H38            1.2803    -0.5805    -1.0411 H       
  39 H39            2.4768     1.9271     1.1399 H       
  40 H40            3.2543     0.8064     0.0021 H       
  41 H41            2.1376     2.6190    -1.2197 H       
  42 H42            1.3288     1.0691    -1.5482 H       
  43 H43           -0.0873     3.2366    -0.9088 H       
  44 H44            0.3405     2.7492     0.7502 H       
  45 H45           -4.0558    -1.9071    -0.3465 H       
  46 H46            3.0651    -1.3754     0.9394 H       
  47 H47            3.0398    -0.3081     2.3637 H       
  48 H48            1.8230    -1.5962     2.1951 H       
  49 H49           -2.7391    -4.4963    -0.6462 H       
  50 H50           -5.6530    -3.6932     1.5601 H       
  51 H51           -4.7346    -3.8339     3.0783 H       
  52 H52           -4.4130    -2.4824     1.9656 H       
  53 H53           -3.7340    -6.9751    -0.7741 H       
  54 H54           -3.9868    -6.9817    -2.5360 H       
  55 H55           -2.9352    -5.7531    -1.7923 H       
  56 H56           -6.6289    -6.7738    -1.6019 H       
  57 H57           -5.1433    -6.1601    -3.8828 H       
  58 H58           -6.8099    -6.8266    -3.9321 H       
  59 H59           -5.9228    -3.8903    -4.1045 H       
  60 H60           -7.1536    -4.7463    -5.0949 H       
  61 H61           -8.7194    -4.8414    -3.2757 H       
  62 H62           -7.9597    -3.2472    -2.9859 H       
  63 H63           -3.2115    -6.4639     0.9660 H       
  64 H64           -4.1359    -6.1354     2.4512 H       
  65 H65           -4.9346    -6.0295     0.8641 H       
  66 H66           -1.9939    -3.1046     1.9092 H       
  67 H67           -2.3155    -4.4562     3.0219 H       
  68 H68           -1.5105    -4.7587     1.4635 H       
  69 H69           -5.2214     4.3549    -2.4832 H       
  70 H70           -4.6318     6.2317    -1.0072 H       
  71 H71           -1.7686     3.7882     0.9985 H       
@<TRIPOS>BOND
   1    1    2 1
   2    1    7 1
   3    1    8 1
   4    2    3 1
   5    2   10 2
   6    3    4 1
   7    3   37 1
   8    3   38 1
   9    4    5 1
  10    4   14 1
  11    5    6 1
  12    5   39 1
  13    5   40 1
  14    6    7 1
  15    6   41 1
  16    6   42 1
  17    7   43 1
  18    7   44 1
  19    8    9 2
  20    8   29 1
  21    9   10 1
  22   10   11 1
  23   11   12 2
  24   11   13 am
  25   13   16 1
  26   13   45 1
  27   14   46 1
  28   14   47 1
  29   14   48 1
  30   15   19 am
  31   15   26 2
  32   15   16 1
  33   16   17 1
  34   16   49 1
  35   17   18 1
  36   17   27 1
  37   17   28 1
  38   18   50 1
  39   18   51 1
  40   18   52 1
  41   19   20 1
  42   19   22 1
  43   20   53 1
  44   20   54 1
  45   20   55 1
  46   21   22 1
  47   21   25 1
  48   22   23 1
  49   22   56 1
  50   23   24 1
  51   23   57 1
  52   23   58 1
  53   24   25 1
  54   24   59 1
  55   24   60 1
  56   25   61 1
  57   25   62 1
  58   27   63 1
  59   27   64 1
  60   27   65 1
  61   28   66 1
  62   28   67 1
  63   28   68 1
  64   29   30 ar
  65   29   34 ar
  66   30   31 ar
  67   30   35 1
  68   31   32 ar
  69   31   69 1
  70   32   33 ar
  71   32   70 1
  72   33   34 ar
  73   33   36 1
  74   34   71 1

#	End of record

