#	Name: ASD02198261
#	Creating user name:	WinNT
#	Creation time:	15. 06. 2019 20:19

#	Modifying user name:	WinNT
#	Modification time:	15. 06. 2019 20:19

#	Program:	/corina/corina34_cracker 3.40 0067  02.08.2006

@<TRIPOS>MOLECULE
ASD02198261
  40   42    0    0    0
SMALL
NO_CHARGES


@<TRIPOS>ATOM
   1 C1            -0.0164     1.3597     0.0095 C.2     
   2 C2             0.0021    -0.0041     0.0020 C.2     
   3 C3            -1.2873    -0.8105     0.0137 C.3     
   4 S4             1.6155     1.9989    -0.0026 S.3     
   5 C5             2.2924     0.3766    -0.0207 C.2     
   6 C6             1.2730    -0.5434    -0.0156 C.2     
   7 C7             3.6684     0.0679    -0.0377 C.2     
   8 N8             4.5814     1.0593    -0.0407 N.am    
   9 O9             4.0318    -1.0952    -0.0498 O.2     
  10 N10            1.5034    -1.9162    -0.0269 N.pl3   
  11 N11           -1.2020     2.0934     0.0194 N.pl3   
  12 C12           -1.4797    -1.4312     1.3734 C.ar    
  13 C13           -2.4453     0.0957    -0.2916 C.2     
  14 C14           -3.6866    -0.4938    -0.6180 C.2     
  15 C15           -2.3645     1.4337    -0.2749 C.2     
  16 C16           -3.5987     2.2404    -0.5865 C.3     
  17 O17           -3.8081    -1.8377    -0.6493 O.3     
  18 O18           -4.6467     0.2100    -0.8711 O.2     
  19 C19           -5.0924    -2.3654    -0.9871 C.3     
  20 C20           -1.5589    -2.8076     1.5205 C.ar    
  21 C21           -1.7351    -3.3409     2.7833 C.ar    
  22 N22           -1.8280    -2.5569     3.8396 N.ar    
  23 C23           -1.7571    -1.2441     3.7373 C.ar    
  24 C24           -1.5758    -0.6397     2.5077 C.ar    
  25 H25           -1.2316    -1.5961    -0.7399 H       
  26 H26            4.2921     1.9851    -0.0311 H       
  27 H27            5.5278     0.8470    -0.0524 H       
  28 H28            2.4121    -2.2554    -0.0392 H       
  29 H29            0.7553    -2.5336    -0.0224 H       
  30 H30           -1.2029     3.0408     0.2278 H       
  31 H31           -3.3630     3.3029    -0.5263 H       
  32 H32           -3.9446     2.0013    -1.5921 H       
  33 H33           -4.3810     2.0004     0.1335 H       
  34 H34           -5.8289    -2.0216    -0.2609 H       
  35 H35           -5.3758    -2.0225    -1.9822 H       
  36 H36           -5.0521    -3.4546    -0.9759 H       
  37 H37           -1.4842    -3.4548     0.6592 H       
  38 H38           -1.7978    -4.4120     2.9064 H       
  39 H39           -1.8377    -0.6344     4.6251 H       
  40 H40           -1.5182     0.4360     2.4304 H       
@<TRIPOS>BOND
   1    1    2 2
   2    1    4 1
   3    1   11 1
   4    2    3 1
   5    2    6 1
   6    3   12 1
   7    3   13 1
   8    3   25 1
   9    4    5 1
  10    5    6 2
  11    5    7 1
  12    6   10 1
  13    7    8 am
  14    7    9 2
  15    8   26 1
  16    8   27 1
  17   10   28 1
  18   10   29 1
  19   11   15 1
  20   11   30 1
  21   12   20 ar
  22   12   24 ar
  23   13   14 1
  24   13   15 2
  25   14   17 1
  26   14   18 2
  27   15   16 1
  28   16   31 1
  29   16   32 1
  30   16   33 1
  31   17   19 1
  32   19   34 1
  33   19   35 1
  34   19   36 1
  35   20   21 ar
  36   20   37 1
  37   21   22 ar
  38   21   38 1
  39   22   23 ar
  40   23   24 ar
  41   23   39 1
  42   24   40 1

#	End of record

