#	Name: ASD05213023
#	Creating user name:	WinNT
#	Creation time:	15. 06. 2019 20:57

#	Modifying user name:	WinNT
#	Modification time:	15. 06. 2019 20:57

#	Program:	/corina/corina34_cracker 3.40 0067  02.08.2006

@<TRIPOS>MOLECULE
ASD05213023
  27   29    0    0    0
SMALL
NO_CHARGES


@<TRIPOS>ATOM
   1 S1            -0.0218     1.7577     0.0117 S.3     
   2 C2             0.0021    -0.0041     0.0020 C.2     
   3 C3             1.7090     2.0873    -0.0030 C.2     
   4 N4             2.2345     3.2650    -0.0017 N.2     
   5 C5             3.5790     3.3551    -0.0141 C.ar    
   6 C6             4.2078     2.1067    -0.0268 C.ar    
   7 S7             2.9651     0.8574    -0.0141 S.3     
   8 C8             4.3851     4.5136    -0.0152 C.ar    
   9 C9             5.7572     4.4070    -0.0284 C.ar    
  10 C10            6.3679     3.1568    -0.0410 C.ar    
  11 C11            5.5973     2.0158    -0.0406 C.ar    
  12 S12           -1.3858    -1.0024     0.0099 S.3     
  13 C13           -0.3659    -2.4388    -0.0087 C.2     
  14 C14            0.9077    -2.0421    -0.0190 C.2     
  15 N15            1.0752    -0.7326    -0.0178 N.2     
  16 N16           -0.8405    -3.8438    -0.0122 N.pl3   
  17 O17           -0.0361    -4.7583    -0.0252 O.2     
  18 O18           -2.0347    -4.0832    -0.0023 O.2     
  19 O19            6.5215     5.5317    -0.0297 O.3     
  20 C20            7.9392     5.3526    -0.0438 C.3     
  21 H21            3.9225     5.4894    -0.0058 H       
  22 H22            7.4452     3.0815    -0.0514 H       
  23 H23            6.0726     1.0460    -0.0500 H       
  24 H24            1.7351    -2.7363    -0.0313 H       
  25 H25            8.2435     4.7927     0.8406 H       
  26 H26            8.2270     4.8018    -0.9393 H       
  27 H27            8.4285     6.3266    -0.0433 H       
@<TRIPOS>BOND
   1    1    2 1
   2    1    3 1
   3    2   12 1
   4    2   15 2
   5    3    4 2
   6    3    7 1
   7    4    5 1
   8    5    6 ar
   9    5    8 ar
  10    6    7 1
  11    6   11 ar
  12    8    9 ar
  13    8   21 1
  14    9   10 ar
  15    9   19 1
  16   10   11 ar
  17   10   22 1
  18   11   23 1
  19   12   13 1
  20   13   14 2
  21   13   16 1
  22   14   15 1
  23   14   24 1
  24   16   17 2
  25   16   18 2
  26   19   20 1
  27   20   25 1
  28   20   26 1
  29   20   27 1

#	End of record

