#	Name: ASD01816805
#	Creating user name:	WinNT
#	Creation time:	15. 06. 2019 19:36

#	Modifying user name:	WinNT
#	Modification time:	15. 06. 2019 19:36

#	Program:	/corina/corina34_cracker 3.40 0067  02.08.2006

@<TRIPOS>MOLECULE
ASD01816805
  49   52    0    0    0
SMALL
NO_CHARGES


@<TRIPOS>ATOM
   1 C1            -0.0168     1.3889     0.0097 C.ar    
   2 C2             0.0021    -0.0041     0.0020 C.ar    
   3 C3             1.1794    -0.6886    -0.0124 C.ar    
   4 C4             2.3934     0.0157    -0.0201 C.ar    
   5 C5             2.3803     1.4351    -0.0129 C.ar    
   6 C6             1.1408     2.1077     0.0025 C.ar    
   7 C7             3.6293    -0.6585    -0.0345 C.ar    
   8 C8             4.7719     0.0878    -0.0410 C.ar    
   9 C9             4.6903     1.4886    -0.0333 C.ar    
  10 N10            3.5280     2.1114    -0.0194 N.ar    
  11 C11            5.9395     2.2867    -0.0401 C.2     
  12 N12            5.8790     3.6331    -0.0329 N.am    
  13 O13            7.0180     1.7271    -0.0521 O.2     
  14 C14            7.1135     4.4219    -0.0395 C.3     
  15 C15            7.6007     4.5989    -1.4809 C.3     
  16 C16            6.8435     5.8012     0.5696 C.3     
  17 C17            8.1180     6.6453     0.4866 C.3     
  18 O18            8.5340     6.7447    -0.8769 O.3     
  19 C19            8.8459     5.4895    -1.4847 C.3     
  20 O20            6.4578     5.6520     1.9374 O.3     
  21 C21            3.6889    -2.1643    -0.0420 C.3     
  22 C22            3.5722    -2.6646    -1.4587 C.ar    
  23 C23            4.7095    -2.8462    -2.2233 C.ar    
  24 C24            4.6031    -3.3051    -3.5227 C.ar    
  25 C25            3.3580    -3.5825    -4.0582 C.ar    
  26 C26            2.2201    -3.4006    -3.2926 C.ar    
  27 C27            2.3282    -2.9471    -1.9914 C.ar    
  28 Cl28           3.2235    -4.1583    -5.6904 Cl      
  29 F29            1.1014     3.4581     0.0097 F       
  30 H30           -0.9642     1.9075     0.0169 H       
  31 H31           -0.9303    -0.5490     0.0080 H       
  32 H32            1.1789    -1.7686    -0.0175 H       
  33 H33            5.7362    -0.3984    -0.0517 H       
  34 H34            5.0180     4.0798    -0.0233 H       
  35 H35            7.8778     3.9077     0.5432 H       
  36 H36            7.8479     3.6253    -1.9040 H       
  37 H37            6.8163     5.0670    -2.0757 H       
  38 H38            6.0438     6.2935     0.0163 H       
  39 H39            7.9198     7.6425     0.8797 H       
  40 H40            8.9057     6.1730     1.0735 H       
  41 H41            9.6431     5.0020    -0.9236 H       
  42 H42            9.1720     5.6540    -2.5117 H       
  43 H43            6.2710     6.4876     2.3868 H       
  44 H44            4.6379    -2.4925     0.3822 H       
  45 H45            2.8676    -2.5634     0.5531 H       
  46 H46            5.6814    -2.6293    -1.8052 H       
  47 H47            5.4917    -3.4466    -4.1200 H       
  48 H48            1.2478    -3.6170    -3.7101 H       
  49 H49            1.4400    -2.8049    -1.3937 H       
@<TRIPOS>BOND
   1    1    2 ar
   2    1    6 ar
   3    1   30 1
   4    2    3 ar
   5    2   31 1
   6    3    4 ar
   7    3   32 1
   8    4    5 ar
   9    4    7 ar
  10    5    6 ar
  11    5   10 ar
  12    6   29 1
  13    7    8 ar
  14    7   21 1
  15    8    9 ar
  16    8   33 1
  17    9   10 ar
  18    9   11 1
  19   11   12 am
  20   11   13 2
  21   12   14 1
  22   12   34 1
  23   14   15 1
  24   14   16 1
  25   14   35 1
  26   15   19 1
  27   15   36 1
  28   15   37 1
  29   16   17 1
  30   16   20 1
  31   16   38 1
  32   17   18 1
  33   17   39 1
  34   17   40 1
  35   18   19 1
  36   19   41 1
  37   19   42 1
  38   20   43 1
  39   21   22 1
  40   21   44 1
  41   21   45 1
  42   22   23 ar
  43   22   27 ar
  44   23   24 ar
  45   23   46 1
  46   24   25 ar
  47   24   47 1
  48   25   26 ar
  49   25   28 1
  50   26   27 ar
  51   26   48 1
  52   27   49 1

#	End of record

