#	Name: ASD01948233
#	Creating user name:	WinNT
#	Creation time:	15. 06. 2019 20:14

#	Modifying user name:	WinNT
#	Modification time:	15. 06. 2019 20:14

#	Program:	/corina/corina34_cracker 3.40 0067  02.08.2006

@<TRIPOS>MOLECULE
ASD01948233
  30   31    0    0    0
SMALL
NO_CHARGES


@<TRIPOS>ATOM
   1 C1            -0.4744     0.7318     1.4110 C.ar    
   2 C2             0.0260     0.0565     0.3082 C.ar    
   3 C3            -0.6903     0.0333    -0.8763 C.ar    
   4 C4            -1.9097     0.6849    -0.9652 C.ar    
   5 C5            -2.4171     1.3635     0.1357 C.ar    
   6 C6            -1.7005     1.3823     1.3297 C.ar    
   7 F7            -2.6054     0.6608    -2.1230 F       
   8 C8            -4.7947    -0.0076     0.6763 C.ar    
   9 C9            -4.8383     1.3172     0.2640 C.ar    
  10 N10           -3.6508     2.0230     0.0467 N.pl3   
  11 C11           -5.9697    -0.7027     0.8899 C.ar    
  12 C12           -7.1891    -0.0808     0.6935 C.ar    
  13 C13           -7.2378     1.2397     0.2825 C.ar    
  14 C14           -6.0664     1.9411     0.0670 C.ar    
  15 N15           -2.2097     2.0666     2.4455 N.pl3   
  16 F16           -6.1137     3.2304    -0.3338 F       
  17 I17           -8.9669    -1.1403     1.0190 I       
  18 F18           -0.1988    -0.6259    -1.9483 F       
  19 O19            0.2315     0.7532     2.5740 O.3     
  20 C20            1.4804     0.0588     2.5877 C.3     
  21 H21            0.9766    -0.4520     0.3733 H       
  22 H22           -3.8431    -0.4960     0.8258 H       
  23 H23           -3.6808     2.9690    -0.1657 H       
  24 H24           -5.9356    -1.7335     1.2103 H       
  25 H25           -8.1918     1.7224     0.1297 H       
  26 H26           -3.0614     2.5268     2.3851 H       
  27 H27           -1.7096     2.0790     3.2765 H       
  28 H28            1.3125    -0.9952     2.3663 H       
  29 H29            2.1425     0.4871     1.8352 H       
  30 H30            1.9387     0.1548     3.5720 H       
@<TRIPOS>BOND
   1    1    2 ar
   2    1   19 1
   3    1    6 ar
   4    2    3 ar
   5    2   21 1
   6    3    4 ar
   7    3   18 1
   8    4    5 ar
   9    4    7 1
  10    5    6 ar
  11    5   10 1
  12    6   15 1
  13    8    9 ar
  14    8   11 ar
  15    8   22 1
  16    9   10 1
  17    9   14 ar
  18   10   23 1
  19   11   12 ar
  20   11   24 1
  21   12   13 ar
  22   12   17 1
  23   13   14 ar
  24   13   25 1
  25   14   16 1
  26   15   26 1
  27   15   27 1
  28   19   20 1
  29   20   28 1
  30   20   29 1
  31   20   30 1

#	End of record

