#	Name: ASD01885398
#	Creating user name:	WinNT
#	Creation time:	15. 06. 2019 19:49

#	Modifying user name:	WinNT
#	Modification time:	15. 06. 2019 19:49

#	Program:	/corina/corina34_cracker 3.40 0067  02.08.2006

@<TRIPOS>MOLECULE
ASD01885398
  29   31    0    0    0
SMALL
NO_CHARGES


@<TRIPOS>ATOM
   1 C1            -0.0169     1.3921     0.0097 C.ar    
   2 C2             0.0021    -0.0041     0.0020 C.ar    
   3 N3            -1.1141    -0.7730     0.0202 N.2     
   4 C4            -2.1908    -0.5678    -0.6466 C.2     
   5 C5            -2.3522     0.6326    -1.5420 C.3     
   6 C6            -2.2798     1.8711    -0.6849 C.2     
   7 N7            -1.1826     2.1468     0.0191 N.am    
   8 C8             1.1872     2.0916     0.0020 C.ar    
   9 C9             2.4014     1.4089    -0.0188 C.ar    
  10 C10            2.4113     0.0100    -0.0319 C.ar    
  11 C11            1.2375    -0.6790    -0.0216 C.ar    
  12 C12           -3.2990    -1.5325    -0.5339 C.ar    
  13 C13           -3.1949    -2.6664     0.2875 C.ar    
  14 C14           -4.2781    -3.5258     0.3408 C.ar    
  15 N15           -5.3618    -3.2665    -0.3662 N.ar    
  16 N16           -5.4650    -2.2331    -1.1189 N.ar    
  17 C17           -4.4961    -1.3477    -1.2382 C.ar    
  18 O18           -3.2293     2.6243    -0.6373 O.2     
  19 C19            3.6348     2.1363    -0.0271 C.1     
  20 N20            4.6133     2.7134    -0.0336 N.1     
  21 H21           -1.5520     0.6500    -2.2819 H       
  22 H22           -3.3183     0.5892    -2.0449 H       
  23 H23           -1.1997     2.9348     0.5846 H       
  24 H24            1.1797     3.1715     0.0117 H       
  25 H25            3.3503    -0.5232    -0.0502 H       
  26 H26            1.2541    -1.7588    -0.0321 H       
  27 H27           -2.2991    -2.8615     0.8584 H       
  28 H28           -4.2365    -4.4091     0.9609 H       
  29 H29           -4.6205    -0.4898    -1.8824 H       
@<TRIPOS>BOND
   1    1    2 ar
   2    1    8 ar
   3    1    7 1
   4    2    3 1
   5    2   11 ar
   6    3    4 2
   7    4    5 1
   8    4   12 1
   9    5    6 1
  10    5   21 1
  11    5   22 1
  12    6    7 am
  13    6   18 2
  14    7   23 1
  15    8    9 ar
  16    8   24 1
  17    9   10 ar
  18    9   19 1
  19   10   11 ar
  20   10   25 1
  21   11   26 1
  22   12   13 ar
  23   12   17 ar
  24   13   14 ar
  25   13   27 1
  26   14   15 ar
  27   14   28 1
  28   15   16 ar
  29   16   17 ar
  30   17   29 1
  31   19   20 3

#	End of record

