#	Name: ASD08170351
#	Creating user name:	WinNT
#	Creation time:	15. 06. 2019 21:17

#	Modifying user name:	WinNT
#	Modification time:	15. 06. 2019 21:17

#	Program:	/corina/corina34_cracker 3.40 0067  02.08.2006

@<TRIPOS>MOLECULE
ASD08170351
  82   87    0    0    0
SMALL
NO_CHARGES


@<TRIPOS>ATOM
   1 C1            -0.2276     1.6173     0.1094 C.2     
   2 N2            -0.2518     0.3321     0.2689 N.2     
   3 N3            -1.3895    -0.1998     0.3973 N.2     
   4 C4            -2.4276     0.5799     0.3588 C.2     
   5 S5            -1.8946     2.1931     0.1386 S.3     
   6 C6             1.0039     2.4685    -0.0634 C.3     
   7 C7             1.3412     2.5811    -1.5515 C.3     
   8 C8             2.5915     3.4453    -1.7271 C.3     
   9 C9             2.9289     3.5580    -3.2151 C.3     
  10 C10            4.1604     4.4092    -3.3880 C.2     
  11 C11            4.8383     4.7766    -4.6929 C.3     
  12 C12            6.0065     5.6359    -4.2510 C.2     
  13 N13            5.9327     5.6931    -2.9523 N.2     
  14 N14            4.8485     4.9779    -2.4547 N.2     
  15 N15            6.9496     6.2315    -5.0556 N.am    
  16 C16            7.9340     6.9705    -4.5066 C.2     
  17 O17            7.9390     7.1826    -3.3127 O.2     
  18 C18            9.0284     7.5331    -5.3765 C.3     
  19 C19            9.8945     6.4102    -5.8864 C.ar    
  20 C20           10.6483     5.6622    -5.0015 C.ar    
  21 C21            9.9308     6.1245    -7.2385 C.ar    
  22 C22           10.7253     5.0945    -7.7062 C.ar    
  23 C23           11.4838     4.3504    -6.8219 C.ar    
  24 C24           11.4428     4.6322    -5.4692 C.ar    
  25 N25           -3.7518     0.1733     0.4817 N.am    
  26 C26           -4.0428    -1.1308     0.6583 C.2     
  27 O27           -3.1484    -1.9385     0.7947 O.2     
  28 C28           -5.4793    -1.5852     0.6863 C.3     
  29 C29           -6.1802    -0.9686     1.8693 C.ar    
  30 C30           -5.7936    -1.3038     3.1535 C.ar    
  31 C31           -6.4365    -0.7382     4.2387 C.ar    
  32 C32           -7.4657     0.1629     4.0397 C.ar    
  33 C33           -7.8517     0.4988     2.7556 C.ar    
  34 C34           -7.2059    -0.0635     1.6704 C.ar    
  35 C35           -6.1788    -1.1530    -0.6061 C.3     
  36 C36           -5.5081    -1.8444    -1.7960 C.3     
  37 O37           -5.5643    -3.2609    -1.6158 O.3     
  38 C38           -4.8859    -3.7279    -0.4479 C.3     
  39 C39           -5.5316    -3.1120     0.7983 C.3     
  40 C40            8.4082     8.2803    -6.5612 C.3     
  41 C41            7.5924     9.4649    -6.0367 C.3     
  42 O42            8.4374    10.3173    -5.2611 O.3     
  43 C43            9.0079     9.6856    -4.1132 C.3     
  44 C44            9.8819     8.5082    -4.5598 C.3     
  45 H45            0.8185     3.4626     0.3434 H       
  46 H46            1.8398     2.0098     0.4649 H       
  47 H47            1.5266     1.5870    -1.9583 H       
  48 H48            0.5054     3.0398    -2.0798 H       
  49 H49            2.4062     4.4394    -1.3202 H       
  50 H50            3.4274     2.9866    -1.1988 H       
  51 H51            3.1143     2.5639    -3.6220 H       
  52 H52            2.0930     4.0167    -3.7434 H       
  53 H53            5.1916     3.8830    -5.2073 H       
  54 H54            4.1619     5.3461    -5.3303 H       
  55 H55            6.9062     6.1197    -6.0182 H       
  56 H56           10.6168     5.8827    -3.9447 H       
  57 H57            9.3382     6.7058    -7.9293 H       
  58 H58           10.7531     4.8708    -8.7624 H       
  59 H59           12.1042     3.5454    -7.1873 H       
  60 H60           12.0354     4.0508    -4.7783 H       
  61 H61           -4.4661     0.8283     0.4403 H       
  62 H62           -4.9894    -2.0078     3.3090 H       
  63 H63           -6.1349    -1.0006     5.2420 H       
  64 H64           -7.9685     0.6042     4.8876 H       
  65 H65           -8.6560     1.2025     2.6001 H       
  66 H66           -7.5075     0.1989     0.6671 H       
  67 H67           -7.2300    -1.4382    -0.5643 H       
  68 H68           -6.0980    -0.0720    -0.7200 H       
  69 H69           -6.0289    -1.5739    -2.7145 H       
  70 H70           -4.4673    -1.5273    -1.8612 H       
  71 H71           -4.9586    -4.8142    -0.3953 H       
  72 H72           -3.8369    -3.4354    -0.4955 H       
  73 H73           -4.9875    -3.4326     1.6867 H       
  74 H74           -6.5697    -3.4368     0.8690 H       
  75 H75            9.1993     8.6446    -7.2165 H       
  76 H76            7.7559     7.6060    -7.1160 H       
  77 H77            7.1838    10.0255    -6.8774 H       
  78 H78            6.7769     9.0973    -5.4139 H       
  79 H79            9.6189    10.4052    -3.5683 H       
  80 H80            8.2108     9.3208    -3.4653 H       
  81 H81           10.2821     7.9986    -3.6833 H       
  82 H82           10.7030     8.8767    -5.1746 H       
@<TRIPOS>BOND
   1    1    2 2
   2    1    6 1
   3    1    5 1
   4    2    3 1
   5    3    4 2
   6    4    5 1
   7    4   25 1
   8    6    7 1
   9    6   45 1
  10    6   46 1
  11    7    8 1
  12    7   47 1
  13    7   48 1
  14    8    9 1
  15    8   49 1
  16    8   50 1
  17    9   10 1
  18    9   51 1
  19    9   52 1
  20   10   11 1
  21   10   14 2
  22   11   12 1
  23   11   53 1
  24   11   54 1
  25   12   13 2
  26   12   15 1
  27   13   14 1
  28   15   16 am
  29   15   55 1
  30   16   17 2
  31   16   18 1
  32   18   19 1
  33   18   40 1
  34   18   44 1
  35   19   20 ar
  36   19   21 ar
  37   20   24 ar
  38   20   56 1
  39   21   22 ar
  40   21   57 1
  41   22   23 ar
  42   22   58 1
  43   23   24 ar
  44   23   59 1
  45   24   60 1
  46   25   26 am
  47   25   61 1
  48   26   27 2
  49   26   28 1
  50   28   29 1
  51   28   35 1
  52   28   39 1
  53   29   30 ar
  54   29   34 ar
  55   30   31 ar
  56   30   62 1
  57   31   32 ar
  58   31   63 1
  59   32   33 ar
  60   32   64 1
  61   33   34 ar
  62   33   65 1
  63   34   66 1
  64   35   36 1
  65   35   67 1
  66   35   68 1
  67   36   37 1
  68   36   69 1
  69   36   70 1
  70   37   38 1
  71   38   39 1
  72   38   71 1
  73   38   72 1
  74   39   73 1
  75   39   74 1
  76   40   41 1
  77   40   75 1
  78   40   76 1
  79   41   42 1
  80   41   77 1
  81   41   78 1
  82   42   43 1
  83   43   44 1
  84   43   79 1
  85   43   80 1
  86   44   81 1
  87   44   82 1

#	End of record

