#	Name: ASD01917749
#	Creating user name:	WinNT
#	Creation time:	15. 06. 2019 20:09

#	Modifying user name:	WinNT
#	Modification time:	15. 06. 2019 20:09

#	Program:	/corina/corina34_cracker 3.40 0067  02.08.2006

@<TRIPOS>MOLECULE
ASD01917749
  31   33    0    0    0
SMALL
NO_CHARGES


@<TRIPOS>ATOM
   1 C1            -0.0167     1.3807     0.0096 C.2     
   2 C2             0.0021    -0.0041     0.0020 C.2     
   3 C3            -1.2927    -0.8016     0.0052 C.3     
   4 C4            -2.3787     0.0543    -0.6542 C.3     
   5 C5            -2.5220     1.3905     0.0746 C.3     
   6 C6            -1.2097     2.1418     0.0304 C.2     
   7 O7            -1.1810     3.3555     0.0113 O.2     
   8 S8             1.6404     1.9537    -0.0031 S.3     
   9 C9             2.2077     0.3405    -0.0141 C.2     
  10 N10            1.2168    -0.4921    -0.0093 N.2     
  11 C11            3.6613    -0.0569    -0.0282 C.3     
  12 C12            4.1226    -0.1806    -1.4206 C.1     
  13 C13            4.4906    -0.2792    -2.5311 C.1     
  14 C14            4.9394    -0.3995    -3.8856 C.ar    
  15 C15            6.2575    -0.7594    -4.1667 C.ar    
  16 N16            6.6704    -0.8705    -5.4125 N.ar    
  17 C17            5.8669    -0.6495    -6.4349 C.ar    
  18 C18            4.5458    -0.2886    -6.2398 C.ar    
  19 C19            4.0613    -0.1636    -4.9497 C.ar    
  20 H20           -1.1581    -1.7246    -0.5588 H       
  21 H21           -1.5793    -1.0344     1.0307 H       
  22 H22           -2.1103     0.2382    -1.6946 H       
  23 H23           -3.3286    -0.4790    -0.6192 H       
  24 H24           -3.2972     1.9854    -0.4083 H       
  25 H25           -2.7998     1.2090     1.1129 H       
  26 H26            4.2509     0.7036     0.4837 H       
  27 H27            3.7814    -1.0133     0.4806 H       
  28 H28            6.9454    -0.9482    -3.3558 H       
  29 H29            6.2467    -0.7515    -7.4407 H       
  30 H30            3.8982    -0.1104    -7.0855 H       
  31 H31            3.0341     0.1164    -4.7685 H       
@<TRIPOS>BOND
   1    1    2 2
   2    1    8 1
   3    1    6 1
   4    2    3 1
   5    2   10 1
   6    3    4 1
   7    3   20 1
   8    3   21 1
   9    4    5 1
  10    4   22 1
  11    4   23 1
  12    5    6 1
  13    5   24 1
  14    5   25 1
  15    6    7 2
  16    8    9 1
  17    9   10 2
  18    9   11 1
  19   11   12 1
  20   11   26 1
  21   11   27 1
  22   12   13 3
  23   13   14 1
  24   14   15 ar
  25   14   19 ar
  26   15   16 ar
  27   15   28 1
  28   16   17 ar
  29   17   18 ar
  30   17   29 1
  31   18   19 ar
  32   18   30 1
  33   19   31 1

#	End of record

