#	Name: ASD03092756
#	Creating user name:	WinNT
#	Creation time:	15. 06. 2019 20:33

#	Modifying user name:	WinNT
#	Modification time:	15. 06. 2019 20:33

#	Program:	/corina/corina34_cracker 3.40 0067  02.08.2006

@<TRIPOS>MOLECULE
ASD03092756
  39   40    0    0    0
SMALL
NO_CHARGES


@<TRIPOS>ATOM
   1 Cl1            0.0000     0.0000     0.0000 Cl      
   2 H2             0.0000     1.3700     0.0000 H       
   3 C3            13.0956    13.9620    14.7602 C.3     
   4 C4            13.1163    12.4321    14.7517 C.3     
   5 C5            11.7025    11.9105    14.7624 C.ar    
   6 N6            11.0819    11.6773    15.9105 N.ar    
   7 C7             9.8459    11.2217    15.9339 C.ar    
   8 N8             9.1728    10.9780    14.8274 N.ar    
   9 C9             9.7257    11.1864    13.6366 C.ar    
  10 N10            9.0142    10.9287    12.4745 N.pl3   
  11 C11            7.6417    10.4226    12.5529 C.3     
  12 C12            7.0979    10.2276    11.1610 C.ar    
  13 C13            6.4366    11.2620    10.5174 C.ar    
  14 N14            5.9513    11.1195     9.3023 N.ar    
  15 C15            6.0710     9.9803     8.6338 C.ar    
  16 N16            5.6661     9.5757     7.3845 N.pl3   
  17 H17            5.1839    10.1286     6.7499 H       
  18 C18            6.0432     8.2775     7.1670 C.2     
  19 C19            6.6916     7.8033     8.2423 C.2     
  20 C20            6.7316     8.8867     9.2261 C.ar    
  21 C21            7.2590     9.0174    10.5126 C.ar    
  22 C22            5.7702     7.4967     5.9073 C.3     
  23 F23            5.0751     8.3034     5.0000 F       
  24 F24            6.9822     7.0919     5.3378 F       
  25 F25            5.0000     6.3700     6.2147 F       
  26 C26           11.0344    11.6746    13.5750 C.ar    
  27 F27           11.6324    11.9057    12.3858 F       
  28 H28           14.1182    14.3393    14.7524 H       
  29 H29           12.5684    14.3230    13.8771 H       
  30 H30           12.5854    14.3135    15.6570 H       
  31 H31           13.6265    12.0806    13.8550 H       
  32 H32           13.6435    12.0711    15.6348 H       
  33 H33            9.3708    11.0425    16.8871 H       
  34 H34            9.4254    11.0836    11.6097 H       
  35 H35            7.6355     9.4697    13.0822 H       
  36 H36            7.0200    11.1399    13.0887 H       
  37 H37            6.3165    12.2075    11.0253 H       
  38 H38            7.1043     6.8122     8.3595 H       
  39 H39            7.7741     8.1960    10.9884 H       
@<TRIPOS>BOND
   1    1    2 1
   2    3    4 1
   3    3   28 1
   4    3   29 1
   5    3   30 1
   6    4    5 1
   7    4   31 1
   8    4   32 1
   9    5   26 ar
  10    5    6 ar
  11    6    7 ar
  12    7    8 ar
  13    7   33 1
  14    8    9 ar
  15    9   10 1
  16    9   26 ar
  17   10   11 1
  18   10   34 1
  19   11   12 1
  20   11   35 1
  21   11   36 1
  22   12   21 ar
  23   12   13 ar
  24   13   14 ar
  25   13   37 1
  26   14   15 ar
  27   15   20 ar
  28   15   16 1
  29   16   17 1
  30   16   18 1
  31   18   19 2
  32   18   22 1
  33   19   20 1
  34   19   38 1
  35   20   21 ar
  36   21   39 1
  37   22   23 1
  38   22   24 1
  39   22   25 1
  40   26   27 1

#	End of record

