#	Name: ASD05323012
#	Creating user name:	WinNT
#	Creation time:	15. 06. 2019 20:59

#	Modifying user name:	WinNT
#	Modification time:	15. 06. 2019 20:59

#	Program:	/corina/corina34_cracker 3.40 0067  02.08.2006

@<TRIPOS>MOLECULE
ASD05323012
  46   48    0    0    0
SMALL
NO_CHARGES


@<TRIPOS>ATOM
   1 C1            -0.0187     1.5258     0.0104 C.3     
   2 C2             0.0021    -0.0041     0.0020 C.3     
   3 P3             1.6916     2.1568    -0.0025 P.3     
   4 O4             1.6705     3.7619    -0.1260 O.3     
   5 O5             2.4302     1.7333     1.3640 O.3     
   6 O6             2.4205     1.5828    -1.1556 O.2     
   7 O7            -2.1040    -0.1936    -1.2201 O.3     
   8 C8            -1.4333    -0.5336     0.0129 C.3     
   9 C9            -1.4365    -2.0780     0.0510 C.3     
  10 C10           -2.6298    -2.4732    -0.8473 C.3     
  11 C11           -3.2065    -1.1210    -1.3219 C.3     
  12 O12           -3.6052    -3.1969    -0.0944 O.3     
  13 O13           -1.6384    -2.5455     1.3862 O.3     
  14 C14           -2.7750    -1.5107    -3.6752 C.2     
  15 N15           -3.1384    -1.6145    -4.9657 N.am    
  16 C16           -4.4247    -1.4266    -5.3284 C.2     
  17 C17           -5.4111    -1.1081    -4.2877 C.2     
  18 C18           -4.9827    -1.0161    -2.9969 C.2     
  19 N19           -3.6629    -1.2203    -2.7105 N.am    
  20 C20           -6.8372    -0.8917    -4.6327 C.ar    
  21 C21           -7.2075     0.1921    -5.4271 C.ar    
  22 C22           -8.5355     0.3895    -5.7455 C.ar    
  23 C23           -9.5002    -0.4874    -5.2768 C.ar    
  24 C24           -9.1368    -1.5657    -4.4864 C.ar    
  25 C25           -7.8106    -1.7746    -4.1681 C.ar    
  26 F26          -10.7992    -0.2902    -5.5910 F       
  27 O27           -4.7606    -1.5187    -6.4948 O.2     
  28 O28           -1.6110    -1.6895    -3.3728 O.2     
  29 H29           -0.5459     1.8868    -0.8726 H       
  30 H30           -0.5289     1.8773     0.9072 H       
  31 H31            0.5123    -0.3556    -0.8948 H       
  32 H32            0.5293    -0.3651     0.8851 H       
  33 H33            2.5485     4.1669    -0.1389 H       
  34 H34            2.0059     2.0754     2.1627 H       
  35 H35           -1.9804    -0.1319     0.8657 H       
  36 H36           -0.5052    -2.4720    -0.3559 H       
  37 H37           -2.2885    -3.0626    -1.6983 H       
  38 H38           -4.0256    -0.8093    -0.6738 H       
  39 H39           -3.2777    -4.0268     0.2787 H       
  40 H40           -1.6492    -3.5089     1.4681 H       
  41 H41           -2.4728    -1.8253    -5.6391 H       
  42 H42           -5.6814    -0.7832    -2.2069 H       
  43 H43           -6.4562     0.8764    -5.7927 H       
  44 H44           -8.8234     1.2292    -6.3607 H       
  45 H45           -9.8923    -2.2466    -4.1230 H       
  46 H46           -7.5277    -2.6184    -3.5562 H       
@<TRIPOS>BOND
   1    1    2 1
   2    1    3 1
   3    1   29 1
   4    1   30 1
   5    2    8 1
   6    2   31 1
   7    2   32 1
   8    3    4 1
   9    3    5 1
  10    3    6 2
  11    4   33 1
  12    5   34 1
  13    7    8 1
  14    7   11 1
  15    8    9 1
  16    8   35 1
  17    9   10 1
  18    9   13 1
  19    9   36 1
  20   10   11 1
  21   10   12 1
  22   10   37 1
  23   11   19 1
  24   11   38 1
  25   12   39 1
  26   13   40 1
  27   14   15 am
  28   14   19 am
  29   14   28 2
  30   15   16 am
  31   15   41 1
  32   16   17 1
  33   16   27 2
  34   17   18 2
  35   17   20 1
  36   18   19 1
  37   18   42 1
  38   20   21 ar
  39   20   25 ar
  40   21   22 ar
  41   21   43 1
  42   22   23 ar
  43   22   44 1
  44   23   24 ar
  45   23   26 1
  46   24   25 ar
  47   24   45 1
  48   25   46 1

#	End of record

