#	Name: ASD02030745
#	Creating user name:	WinNT
#	Creation time:	15. 06. 2019 20:16

#	Modifying user name:	WinNT
#	Modification time:	15. 06. 2019 20:16

#	Program:	/corina/corina34_cracker 3.40 0067  02.08.2006

@<TRIPOS>MOLECULE
ASD02030745
  30   32    0    0    0
SMALL
NO_CHARGES


@<TRIPOS>ATOM
   1 N1            -0.0169     1.3957     0.0097 N.2     
   2 N2             0.0021    -0.0041     0.0020 N.am    
   3 C3             1.1646    -0.6797    -0.0123 C.2     
   4 N4             2.3448    -0.0325    -0.0200 N.am    
   5 C5             2.3757     1.3164    -0.0131 C.2     
   6 C6             1.1074     2.0610     0.0026 C.2     
   7 O7             1.1494    -1.8958    -0.0178 O.2     
   8 O8             3.4386     1.9089    -0.0192 O.2     
   9 C9            -1.2627    -0.7434     0.0101 C.3     
  10 N10           -2.5474     1.2110     1.6500 N.ar    
  11 C11           -3.1330     2.1576     2.3421 C.ar    
  12 C12           -3.5366     1.9590     3.6609 C.ar    
  13 C13           -3.3249     0.7522     4.2641 C.ar    
  14 C14           -2.6961    -0.2623     3.5176 C.ar    
  15 C15           -2.4448    -1.5280     4.0704 C.ar    
  16 C16           -1.8339    -2.4827     3.3157 C.ar    
  17 C17           -1.4553    -2.2206     2.0009 C.ar    
  18 C18           -1.6828    -1.0045     1.4336 C.ar    
  19 C19           -2.3106     0.0071     2.1808 C.ar    
  20 O20            1.1051     3.4197     0.0094 O.3     
  21 H21            3.1737    -0.5362    -0.0303 H       
  22 H22           -2.0303    -0.1556    -0.4933 H       
  23 H23           -1.1322    -1.6923    -0.5101 H       
  24 H24           -3.3069     3.1172     1.8780 H       
  25 H25           -4.0162     2.7588     4.2056 H       
  26 H26           -3.6310     0.5810     5.2856 H       
  27 H27           -2.7340    -1.7432     5.0885 H       
  28 H28           -1.6409    -3.4562     3.7419 H       
  29 H29           -0.9715    -2.9943     1.4230 H       
  30 H30            0.2211     3.8114     0.0197 H       
@<TRIPOS>BOND
   1    1    2 1
   2    1    6 2
   3    2    3 am
   4    2    9 1
   5    3    4 am
   6    3    7 2
   7    4    5 am
   8    4   21 1
   9    5    6 1
  10    5    8 2
  11    6   20 1
  12    9   18 1
  13    9   22 1
  14    9   23 1
  15   10   11 ar
  16   10   19 ar
  17   11   12 ar
  18   11   24 1
  19   12   13 ar
  20   12   25 1
  21   13   14 ar
  22   13   26 1
  23   14   15 ar
  24   14   19 ar
  25   15   16 ar
  26   15   27 1
  27   16   17 ar
  28   16   28 1
  29   17   18 ar
  30   17   29 1
  31   18   19 ar
  32   20   30 1

#	End of record

