#	Name: ASD01914438
#	Creating user name:	WinNT
#	Creation time:	15. 06. 2019 20:03

#	Modifying user name:	WinNT
#	Modification time:	15. 06. 2019 20:03

#	Program:	/corina/corina34_cracker 3.40 0067  02.08.2006

@<TRIPOS>MOLECULE
ASD01914438
  36   37    0    0    0
SMALL
NO_CHARGES


@<TRIPOS>ATOM
   1 C1            -0.0187     1.5258     0.0104 C.3     
   2 C2             0.0021    -0.0041     0.0020 C.3     
   3 C3             0.7182    -0.4975    -1.2568 C.3     
   4 C4            -0.0218     0.0093    -2.4963 C.3     
   5 C5            -0.0425     1.5392    -2.4879 C.3     
   6 C6             1.3929     2.0688    -2.4988 C.3     
   7 C7             2.1328     1.5619    -1.2592 C.3     
   8 C8             1.4167     2.0553    -0.0004 C.3     
   9 C9             2.1536     0.0321    -1.2676 C.3     
  10 C10           -0.7587     2.0326    -1.2291 C.3     
  11 C11           -0.7240     2.0118     1.2503 C.2     
  12 O12           -1.1649     1.2162     2.0456 O.2     
  13 O13           -0.8625     3.3285     1.4711 O.3     
  14 N14            0.7381    -1.9663    -1.2649 N.3     
  15 C15           -1.5527     3.7242     2.6858 C.3     
  16 H16            0.5293    -0.3651     0.8851 H       
  17 H17           -1.0205    -0.3814     0.0098 H       
  18 H18            0.4884    -0.3422    -3.3931 H       
  19 H19           -1.0444    -0.3679    -2.4886 H       
  20 H20           -0.5697     1.9003    -3.3710 H       
  21 H21            1.9030     1.7172    -3.3956 H       
  22 H22            1.3781     3.1587    -2.4928 H       
  23 H23            3.1554     1.9392    -1.2670 H       
  24 H24            1.4019     3.1452     0.0056 H       
  25 H25            1.9439     1.6943     0.8826 H       
  26 H26            2.6808    -0.3290    -0.3846 H       
  27 H27            2.6638    -0.3194    -2.1644 H       
  28 H28           -1.7813     1.6553    -1.2214 H       
  29 H29           -0.7734     3.1225    -1.2231 H       
  30 H30            1.2062    -2.3171    -2.0870 H       
  31 H31            1.1647    -2.3268    -0.4245 H       
  32 H32           -2.5653     3.3208     2.6762 H       
  33 H33           -1.0155     3.3370     3.5515 H       
  34 H34           -1.5955     4.8119     2.7414 H       
  35 Cl35           8.1554     9.8119     8.5515 Cl      
  36 H36            8.1554    11.1819     8.5515 H       
@<TRIPOS>BOND
   1    1    2 1
   2    1    8 1
   3    1   10 1
   4    1   11 1
   5    2    3 1
   6    2   16 1
   7    2   17 1
   8    3    4 1
   9    3    9 1
  10    3   14 1
  11    4    5 1
  12    4   18 1
  13    4   19 1
  14    5    6 1
  15    5   10 1
  16    5   20 1
  17    6    7 1
  18    6   21 1
  19    6   22 1
  20    7    8 1
  21    7    9 1
  22    7   23 1
  23    8   24 1
  24    8   25 1
  25    9   26 1
  26    9   27 1
  27   10   28 1
  28   10   29 1
  29   11   12 2
  30   11   13 1
  31   13   15 1
  32   14   30 1
  33   14   31 1
  34   15   32 1
  35   15   33 1
  36   15   34 1
  37   35   36 1

#	End of record

