#	Name: ASD01918033
#	Creating user name:	WinNT
#	Creation time:	15. 06. 2019 20:10

#	Modifying user name:	WinNT
#	Modification time:	15. 06. 2019 20:10

#	Program:	/corina/corina34_cracker 3.40 0067  02.08.2006

@<TRIPOS>MOLECULE
ASD01918033
  44   47    0    0    0
SMALL
NO_CHARGES


@<TRIPOS>ATOM
   1 N1             4.8190    -0.4148    -2.1405 N.ar    
   2 C2             5.2863     0.2833    -3.1567 C.ar    
   3 C3             5.1753     1.6612    -3.1822 C.ar    
   4 C4             4.5632     2.3102    -2.1224 C.ar    
   5 C5             4.0810     1.5425    -1.0665 C.ar    
   6 C6             4.2300     0.1640    -1.1128 C.ar    
   7 O7             3.4735     2.1348    -0.0050 O.3     
   8 C8             3.4559     3.4940     0.0441 C.2     
   9 N9             2.2077     5.5082    -0.0226 N.pl3   
  10 C10            2.2740     4.1523    -0.0659 C.2     
  11 C11            4.6565     4.1941     0.2130 C.2     
  12 C12            4.6303     5.5835     0.2621 C.2     
  13 C13            3.3387     6.2580     0.1341 C.2     
  14 C14            5.8713     6.3562     0.4390 C.2     
  15 N15            5.8263     7.7024     0.4843 N.am    
  16 C16            6.9829     8.4292     0.7569 C.ar    
  17 O17            6.9370     5.7795     0.5443 O.2     
  18 N18            1.1460     6.4206    -0.1095 N.2     
  19 C19            1.6624     7.6228    -0.0138 C.2     
  20 N20            2.9773     7.5314     0.1390 N.2     
  21 N21            8.1433     7.7992     0.8632 N.ar    
  22 C22            6.9087     9.8079     0.9089 C.ar    
  23 C23            8.0647    10.5218     1.1799 C.ar    
  24 C24            9.2601     9.8299     1.2900 C.ar    
  25 C25            9.2646     8.4520     1.1211 C.ar    
  26 C26            5.7144     2.4480    -4.3490 C.3     
  27 O27           10.4316     7.7674     1.2221 O.3     
  28 C28           10.3711     6.3515     1.0388 C.3     
  29 H29            5.7626    -0.2281    -3.9801 H       
  30 H30            4.4630     3.3855    -2.1156 H       
  31 H31            3.8597    -0.4412    -0.2985 H       
  32 H32            1.3641     3.5841    -0.1913 H       
  33 H33            5.5915     3.6615     0.3043 H       
  34 H34            4.9885     8.1652     0.3270 H       
  35 H35            1.1019     8.5455    -0.0453 H       
  36 H36            5.9609    10.3174     0.8167 H       
  37 H37            8.0348    11.5945     1.3024 H       
  38 H38           10.1788    10.3572     1.5006 H       
  39 H39            4.9365     2.5557    -5.1050 H       
  40 H40            6.0287     3.4344    -4.0080 H       
  41 H41            6.5678     1.9229    -4.7781 H       
  42 H42            9.7102     5.9160     1.7883 H       
  43 H43            9.9870     6.1302     0.0430 H       
  44 H44           11.3699     5.9284     1.1453 H       
@<TRIPOS>BOND
   1    1    2 ar
   2    1    6 ar
   3    2    3 ar
   4    2   29 1
   5    3    4 ar
   6    3   26 1
   7    4    5 ar
   8    4   30 1
   9    5    6 ar
  10    5    7 1
  11    6   31 1
  12    7    8 1
  13    8   11 1
  14    8   10 2
  15    9   10 1
  16    9   18 1
  17    9   13 1
  18   10   32 1
  19   11   12 2
  20   11   33 1
  21   12   13 1
  22   12   14 1
  23   13   20 2
  24   14   15 am
  25   14   17 2
  26   15   16 1
  27   15   34 1
  28   16   22 ar
  29   16   21 ar
  30   18   19 2
  31   19   20 1
  32   19   35 1
  33   21   25 ar
  34   22   23 ar
  35   22   36 1
  36   23   24 ar
  37   23   37 1
  38   24   25 ar
  39   24   38 1
  40   25   27 1
  41   26   39 1
  42   26   40 1
  43   26   41 1
  44   27   28 1
  45   28   42 1
  46   28   43 1
  47   28   44 1

#	End of record

