#	Name: ASD01028231
#	Creating user name:	WinNT
#	Creation time:	15. 06. 2019 18:56

#	Modifying user name:	WinNT
#	Modification time:	15. 06. 2019 18:56

#	Program:	/corina/corina34_cracker 3.40 0067  02.08.2006

@<TRIPOS>MOLECULE
ASD01028231
  47   51    0    0    0
SMALL
NO_CHARGES


@<TRIPOS>ATOM
   1 C1            -0.0166     1.3719     0.0096 C.ar    
   2 C2             0.0021    -0.0041     0.0020 C.ar    
   3 C3             1.1750     2.1035     0.0021 C.ar    
   4 C4             2.3797     1.4715    -0.0128 C.ar    
   5 C5             2.4326     0.0695    -0.0208 C.ar    
   6 C6             1.2322    -0.6815    -0.0134 C.ar    
   7 C7             3.6676    -0.6170    -0.0367 C.ar    
   8 C8             3.6411    -2.0003    -0.0444 C.ar    
   9 C9             2.4221    -2.6660    -0.0364 C.ar    
  10 N10            1.2804    -2.0188    -0.0211 N.ar    
  11 O11            4.8427     0.0593    -0.0447 O.3     
  12 C12            6.0400    -0.7207    -0.0607 C.3     
  13 C13            7.2364     0.1957    -0.0676 C.2     
  14 N14            7.8869     0.6797     1.0268 N.pl3   
  15 C15            8.9051     1.4646     0.5418 C.2     
  16 N16            8.8264     1.4209    -0.7776 N.2     
  17 N17            7.8435     0.6671    -1.1254 N.2     
  18 C18            7.7078     0.5268     2.3664 C.2     
  19 C19            8.5390     1.1530     3.2494 C.2     
  20 C20            9.5966     1.9680     2.7727 C.2     
  21 C21            9.7763     2.1195     1.4366 C.2     
  22 O22           -1.2065     2.0271     0.0188 O.3     
  23 C23           -1.1606     3.4553     0.0263 C.3     
  24 C24            8.3363     0.9820     4.7019 C.2     
  25 C25            9.1773     1.6157     5.5917 C.2     
  26 C26            8.9821     1.4518     6.9646 C.2     
  27 C27            7.9572     0.6634     7.4075 C.2     
  28 C28            7.1163     0.0301     6.4803 C.2     
  29 N29            7.3117     0.2002     5.1591 N.am    
  30 O30            6.2002    -0.6746     6.8732 O.2     
  31 H31           -0.9239    -0.5598     0.0082 H       
  32 H32            1.1387     3.1829     0.0079 H       
  33 H33            3.2932     2.0476    -0.0188 H       
  34 H34            4.5646    -2.5602    -0.0569 H       
  35 H35            2.4134    -3.7460    -0.0425 H       
  36 H36            6.0728    -1.3543     0.8256 H       
  37 H37            6.0552    -1.3447    -0.9543 H       
  38 H38            6.9033    -0.0933     2.7334 H       
  39 H39           10.2558     2.4648     3.4692 H       
  40 H40           10.5787     2.7374     1.0616 H       
  41 H41           -0.6396     3.8068    -0.8642 H       
  42 H42           -2.1761     3.8514     0.0333 H       
  43 H43           -0.6312     3.7971     0.9157 H       
  44 H44            9.9836     2.2357     5.2286 H       
  45 H45            9.6353     1.9434     7.6702 H       
  46 H46            7.7957     0.5282     8.4668 H       
  47 H47            6.7250    -0.2418     4.5257 H       
@<TRIPOS>BOND
   1    1    2 ar
   2    1    3 ar
   3    1   22 1
   4    2    6 ar
   5    2   31 1
   6    3    4 ar
   7    3   32 1
   8    4    5 ar
   9    4   33 1
  10    5    6 ar
  11    5    7 ar
  12    6   10 ar
  13    7    8 ar
  14    7   11 1
  15    8    9 ar
  16    8   34 1
  17    9   10 ar
  18    9   35 1
  19   11   12 1
  20   12   13 1
  21   12   36 1
  22   12   37 1
  23   13   14 1
  24   13   17 2
  25   14   15 1
  26   14   18 1
  27   15   16 2
  28   15   21 1
  29   16   17 1
  30   18   19 2
  31   18   38 1
  32   19   20 1
  33   19   24 1
  34   20   21 2
  35   20   39 1
  36   21   40 1
  37   22   23 1
  38   23   41 1
  39   23   42 1
  40   23   43 1
  41   24   25 2
  42   24   29 1
  43   25   26 1
  44   25   44 1
  45   26   27 2
  46   26   45 1
  47   27   28 1
  48   27   46 1
  49   28   29 am
  50   28   30 2
  51   29   47 1

#	End of record

