#	Name: ASD06170404
#	Creating user name:	WinNT
#	Creation time:	15. 06. 2019 21:05

#	Modifying user name:	WinNT
#	Modification time:	15. 06. 2019 21:05

#	Program:	/corina/corina34_cracker 3.40 0067  02.08.2006

@<TRIPOS>MOLECULE
ASD06170404
  69   73    0    0    0
SMALL
NO_CHARGES


@<TRIPOS>ATOM
   1 N1             0.1562     1.5952     0.0233 N.am    
   2 N2            -0.1304     0.2362    -0.1372 N.pl3   
   3 C3             1.0119    -0.4567    -0.3057 C.2     
   4 C4             2.0720     0.4276    -0.2600 C.2     
   5 C5             1.4932     1.7632    -0.0444 C.2     
   6 C6             3.4959     0.0996    -0.3992 C.2     
   7 O7             3.8401    -1.0543    -0.5750 O.2     
   8 N8             4.4221     1.0764    -0.3322 N.am    
   9 C9             5.7826     0.7529    -0.3564 C.ar    
  10 C10            6.6924     1.6148    -0.9550 C.ar    
  11 C11            8.4742     0.1133    -0.4035 C.ar    
  12 C12            7.5717    -0.7445     0.1979 C.ar    
  13 C13            6.2275    -0.4283     0.2231 C.ar    
  14 C14            9.9401    -0.2355    -0.4300 C.3     
  15 N15           10.9549    -1.8339    -4.2599 N.ar    
  16 C16           10.4598    -2.6671    -3.3383 C.ar    
  17 C17           10.1116    -2.1739    -2.0556 C.ar    
  18 C18           10.2962    -0.8067    -1.7783 C.ar    
  19 C19           10.8067    -0.0113    -2.7648 C.ar    
  20 C20           11.1279    -0.5597    -4.0040 C.ar    
  21 O21            2.1009     2.8130     0.0530 O.2     
  22 C22           -0.7858     2.6110     0.2158 C.ar    
  23 C23           -1.7662     2.4756     1.1901 C.ar    
  24 C24           -2.6948     3.4805     1.3776 C.ar    
  25 C25            8.0352     1.2926    -0.9768 C.ar    
  26 C26            1.1161    -1.9463    -0.5090 C.3     
  27 C27           -1.4741    -0.3473    -0.1241 C.3     
  28 C28           -2.6494     4.6205     0.5962 C.ar    
  29 C29           -1.6748     4.7583    -0.3751 C.ar    
  30 C30           -0.7392     3.7600    -0.5632 C.ar    
  31 C31           -2.0187    -0.4059    -1.5527 C.3     
  32 C32           -3.4220    -1.0153    -1.5389 C.3     
  33 C33            9.5909    -3.0498    -1.0890 C.ar    
  34 C34            9.4237    -4.3659    -1.3886 C.ar    
  35 C35            9.7646    -4.8623    -2.6509 C.ar    
  36 C36           10.2770    -4.0305    -3.6200 C.ar    
  37 O37            9.5878    -6.1812    -2.9235 O.3     
  38 C38            9.0522    -6.9938    -1.8771 C.3     
  39 O39           10.7142     0.9419    -0.1919 O.3     
  40 H40            4.1452     2.0037    -0.2673 H       
  41 H41            6.3501     2.5358    -1.4033 H       
  42 H42            7.9183    -1.6630     0.6481 H       
  43 H43            5.5232    -1.0985     0.6933 H       
  44 H44           10.1522    -0.9726     0.3444 H       
  45 H45           10.9601     1.0424    -2.5840 H       
  46 H46           11.5303     0.0815    -4.7744 H       
  47 H47           -1.8026     1.5852     1.8002 H       
  48 H48           -3.4575     3.3758     2.1351 H       
  49 H49            8.7431     1.9623    -1.4425 H       
  50 H50            1.0726    -2.1715    -1.5746 H       
  51 H51            2.0615    -2.3035    -0.1006 H       
  52 H52            0.2898    -2.4413     0.0010 H       
  53 H53           -1.4285    -1.3550     0.2890 H       
  54 H54           -2.1314     0.2678     0.4904 H       
  55 H55           -3.3770     5.4048     0.7445 H       
  56 H56           -1.6425     5.6496    -0.9842 H       
  57 H57            0.0220     3.8683    -1.3216 H       
  58 H58           -2.0642     0.6018    -1.9657 H       
  59 H59           -1.3614    -1.0210    -2.1672 H       
  60 H60           -3.8100    -1.0570    -2.5567 H       
  61 H61           -3.3764    -2.0230    -1.1259 H       
  62 H62           -4.0793    -0.4002    -0.9244 H       
  63 H63            9.3244    -2.6793    -0.1102 H       
  64 H64            9.0230    -5.0360    -0.6424 H       
  65 H65           10.5367    -4.4240    -4.5916 H       
  66 H66            8.0688    -6.6190    -1.5932 H       
  67 H67            8.9622    -8.0225    -2.2260 H       
  68 H68            9.7171    -6.9597    -1.0141 H       
  69 H69           10.5757     1.6422    -0.8442 H       
@<TRIPOS>BOND
   1    1    2 1
   2    1    5 am
   3    1   22 1
   4    2    3 1
   5    2   27 1
   6    3    4 2
   7    3   26 1
   8    4    5 1
   9    4    6 1
  10    5   21 2
  11    6    7 2
  12    6    8 am
  13    8    9 1
  14    8   40 1
  15    9   10 ar
  16    9   13 ar
  17   10   25 ar
  18   10   41 1
  19   11   12 ar
  20   11   14 1
  21   11   25 ar
  22   12   13 ar
  23   12   42 1
  24   13   43 1
  25   14   18 1
  26   14   39 1
  27   14   44 1
  28   15   16 ar
  29   15   20 ar
  30   16   17 ar
  31   16   36 ar
  32   17   18 ar
  33   17   33 ar
  34   18   19 ar
  35   19   20 ar
  36   19   45 1
  37   20   46 1
  38   22   23 ar
  39   22   30 ar
  40   23   24 ar
  41   23   47 1
  42   24   28 ar
  43   24   48 1
  44   25   49 1
  45   26   50 1
  46   26   51 1
  47   26   52 1
  48   27   31 1
  49   27   53 1
  50   27   54 1
  51   28   29 ar
  52   28   55 1
  53   29   30 ar
  54   29   56 1
  55   30   57 1
  56   31   32 1
  57   31   58 1
  58   31   59 1
  59   32   60 1
  60   32   61 1
  61   32   62 1
  62   33   34 ar
  63   33   63 1
  64   34   35 ar
  65   34   64 1
  66   35   36 ar
  67   35   37 1
  68   36   65 1
  69   37   38 1
  70   38   66 1
  71   38   67 1
  72   38   68 1
  73   39   69 1

#	End of record

