#	Name: ASD02560140
#	Creating user name:	WinNT
#	Creation time:	15. 06. 2019 20:24

#	Modifying user name:	WinNT
#	Modification time:	15. 06. 2019 20:24

#	Program:	/corina/corina34_cracker 3.40 0067  02.08.2006

@<TRIPOS>MOLECULE
ASD02560140
  59   62    0    0    0
SMALL
NO_CHARGES


@<TRIPOS>ATOM
   1 C1            -0.5396     1.3556    -0.4092 C.3     
   2 N2             0.5335    -0.4812     0.8306 N.2     
   3 N3            -0.0580    -0.8145     1.8622 N.2     
   4 C4            -0.4136    -0.1603    -0.2449 C.3     
   5 N5            -1.7049    -0.7410     0.2023 N.3     
   6 C6            -1.5142    -0.7804     1.6743 C.3     
   7 S7            -2.2761    -2.2723     2.3703 S.3     
   8 C8            -1.3918    -3.6133     1.5274 C.3     
   9 C9            -1.9193    -4.9414     2.0059 C.2     
  10 O10           -2.8046    -4.9795     2.8340 O.2     
  11 N11           -1.4072    -6.0867     1.5136 N.am    
  12 C12           -2.7734     0.0902    -0.1418 C.ar    
  13 C13           -1.8514    -7.3200     2.0048 C.ar    
  14 C14           -0.9756    -8.3969     2.0780 C.ar    
  15 C15           -1.4177    -9.6126     2.5639 C.ar    
  16 C16           -2.7296    -9.7579     2.9768 C.ar    
  17 C17           -3.6027    -8.6884     2.9051 C.ar    
  18 C18           -3.1659    -7.4686     2.4252 C.ar    
  19 Cl19           0.6710    -8.2150     1.5592 Cl      
  20 S20           -3.2897   -11.3099     3.5953 S.o2    
  21 O21           -4.6985   -11.3307     3.4103 O.2     
  22 O22           -2.4201   -12.2949     3.0542 O.2     
  23 C23           -3.0343     0.3645    -1.4853 C.ar    
  24 C24           -3.5720     0.6332     0.8525 C.ar    
  25 C25           -4.6281     1.4548     0.5094 C.ar    
  26 C26           -4.8828     1.7274    -0.8190 C.ar    
  27 C27           -4.0906     1.1789    -1.8205 C.ar    
  28 C28           -4.4371     1.5103    -3.2486 C.3     
  29 C29           -3.2572     1.2110    -4.1710 C.3     
  30 C30           -2.7802    -0.2202    -3.8974 C.3     
  31 C31           -2.1247    -0.2503    -2.5165 C.3     
  32 N32           -3.0328   -11.3072     5.2312 N.am    
  33 C33           -6.0362     2.6243    -1.1881 C.3     
  34 H34            0.4477     1.7862    -0.5766 H       
  35 H35           -1.1817     1.5766    -1.2618 H       
  36 H36           -0.9745     1.7841     0.4938 H       
  37 H37           -0.0950    -0.6192    -1.1808 H       
  38 H38           -1.9356     0.1127     2.1357 H       
  39 H39           -1.5434    -3.5284     0.4514 H       
  40 H40           -0.3273    -3.5433     1.7509 H       
  41 H41           -0.7309    -6.0565     0.8190 H       
  42 H42           -0.7382   -10.4501     2.6208 H       
  43 H43           -4.6266    -8.8055     3.2281 H       
  44 H44           -3.8488    -6.6338     2.3696 H       
  45 H45           -3.3696     0.4147     1.8907 H       
  46 H46           -5.2532     1.8826     1.2792 H       
  47 H47           -5.2954     0.9138    -3.5578 H       
  48 H48           -4.6905     2.5680    -3.3208 H       
  49 H49           -3.5721     1.3006    -5.2107 H       
  50 H50           -2.4474     1.9125    -3.9705 H       
  51 H51           -3.6311    -0.9012    -3.9190 H       
  52 H52           -2.0535    -0.5159    -4.6541 H       
  53 H53           -1.1883     0.3066    -2.5509 H       
  54 H54           -1.9174    -1.2840    -2.2395 H       
  55 H55           -2.6377   -10.5314     5.6588 H       
  56 H56           -3.2775   -12.0814     5.7618 H       
  57 H57           -5.6938     3.6584    -1.2282 H       
  58 H58           -6.4258     2.3324    -2.1633 H       
  59 H59           -6.8231     2.5309    -0.4396 H       
@<TRIPOS>BOND
   1    1    4 1
   2    1   34 1
   3    1   35 1
   4    1   36 1
   5    2    3 2
   6    2    4 1
   7    3    6 1
   8    4    5 1
   9    4   37 1
  10    5    6 1
  11    5   12 1
  12    6    7 1
  13    6   38 1
  14    7    8 1
  15    8    9 1
  16    8   39 1
  17    8   40 1
  18    9   10 2
  19    9   11 am
  20   11   13 1
  21   11   41 1
  22   12   23 ar
  23   12   24 ar
  24   13   14 ar
  25   13   18 ar
  26   14   15 ar
  27   14   19 1
  28   15   16 ar
  29   15   42 1
  30   16   17 ar
  31   16   20 1
  32   17   18 ar
  33   17   43 1
  34   18   44 1
  35   20   21 2
  36   20   22 2
  37   20   32 am
  38   23   27 ar
  39   23   31 1
  40   24   25 ar
  41   24   45 1
  42   25   26 ar
  43   25   46 1
  44   26   27 ar
  45   26   33 1
  46   27   28 1
  47   28   29 1
  48   28   47 1
  49   28   48 1
  50   29   30 1
  51   29   49 1
  52   29   50 1
  53   30   31 1
  54   30   51 1
  55   30   52 1
  56   31   53 1
  57   31   54 1
  58   32   55 1
  59   32   56 1
  60   33   57 1
  61   33   58 1
  62   33   59 1

#	End of record

