#	Name: ASD03330770
#	Creating user name:	WinNT
#	Creation time:	15. 06. 2019 20:37

#	Modifying user name:	WinNT
#	Modification time:	15. 06. 2019 20:37

#	Program:	/corina/corina34_cracker 3.40 0067  02.08.2006

@<TRIPOS>MOLECULE
ASD03330770
  66   68    0    0    0
SMALL
NO_CHARGES


@<TRIPOS>ATOM
   1 C1            -0.7367     3.4580    -1.7368 C.2     
   2 N2            -1.6212     2.4458    -1.9387 N.pl3   
   3 C3             0.4553     2.8881    -1.4063 C.2     
   4 N4             0.2910     1.5474    -1.4271 N.2     
   5 C5            -0.9506     1.2726    -1.7513 C.2     
   6 C6            -1.5270    -0.0828    -1.8895 C.ar    
   7 C7             1.7015     3.6056    -1.0842 C.2     
   8 O8             1.7245     4.8215    -1.0997 O.2     
   9 C9             4.0809     3.6217    -0.5591 C.3     
  10 N10            2.8158     2.9144    -0.7725 N.am    
  11 C11            4.7106     3.9598    -1.9119 C.3     
  12 C12            5.0205     2.7443     0.2272 C.2     
  13 O13            4.7133     1.5981     0.4774 O.2     
  14 C14           -3.0368     2.6097    -2.2803 C.3     
  15 C15           -3.1651     3.6336    -3.4125 C.3     
  16 C16           -3.2606     5.0393    -2.8282 C.3     
  17 N17           -2.4621     5.1575    -1.6065 N.3     
  18 C18           -1.0349     4.9283    -1.8766 C.3     
  19 C19           -0.7359    -1.1365    -2.3486 C.ar    
  20 C20           -2.8618    -0.3132    -1.5557 C.ar    
  21 C21           -3.3952    -1.5791    -1.6857 C.ar    
  22 C22           -2.6089    -2.6209    -2.1460 C.ar    
  23 C23           -1.2796    -2.4000    -2.4751 C.ar    
  24 C24           -2.6735     6.4612    -0.9635 C.3     
  25 N25            6.2022     3.2334     0.6523 N.am    
  26 C26            7.1643     2.3503     1.3162 C.3     
  27 C27            4.9092     2.6743    -2.7175 C.3     
  28 C28            5.9711     1.8064    -2.0394 C.3     
  29 C29            3.5883     1.9051    -2.7843 C.3     
  30 C30            5.3667     3.0261    -4.1345 C.3     
  31 C31            6.5247     4.6482     0.4505 C.3     
  32 F32           -0.5172    -3.4208    -2.9243 F       
  33 Cl33          -3.2868    -4.2111    -2.3058 Cl      
  34 H34            3.8938     4.5418    -0.0053 H       
  35 H35            2.7801     1.9486    -0.6895 H       
  36 H36            4.0532     4.6344    -2.4603 H       
  37 H37            5.6753     4.4419    -1.7533 H       
  38 H38           -3.4461     1.6533    -2.6059 H       
  39 H39           -3.5841     2.9626    -1.4062 H       
  40 H40           -2.2909     3.5690    -4.0603 H       
  41 H41           -4.0623     3.4209    -3.9937 H       
  42 H42           -2.8978     5.7576    -3.5634 H       
  43 H43           -4.3026     5.2606    -2.5972 H       
  44 H44           -0.4339     5.4916    -1.1628 H       
  45 H45           -0.7990     5.2533    -2.8900 H       
  46 H46            0.2991    -0.9645    -2.6049 H       
  47 H47           -3.4768     0.4983    -1.1957 H       
  48 H48           -4.4285    -1.7575    -1.4273 H       
  49 H49           -3.7265     6.5723    -0.7049 H       
  50 H50           -2.0687     6.5224    -0.0587 H       
  51 H51           -2.3820     7.2563    -1.6498 H       
  52 H52            7.8237     1.9056     0.5708 H       
  53 H53            7.7562     2.9269     2.0271 H       
  54 H54            6.6289     1.5615     1.8445 H       
  55 H55            5.5224     1.2702    -1.2032 H       
  56 H56            6.3688     1.0904    -2.7587 H       
  57 H57            6.7788     2.4402    -1.6732 H       
  58 H58            2.7653     2.6072    -2.9178 H       
  59 H59            3.6140     1.2113    -3.6246 H       
  60 H60            3.4446     1.3488    -1.8580 H       
  61 H61            6.3077     3.5741    -4.0870 H       
  62 H62            5.5082     2.1103    -4.7085 H       
  63 H63            4.6102     3.6444    -4.6176 H       
  64 H64            5.6628     5.1598     0.0220 H       
  65 H65            6.7782     5.1032     1.4080 H       
  66 H66            7.3729     4.7343    -0.2286 H       
@<TRIPOS>BOND
   1    1    2 1
   2    1    3 2
   3    1   18 1
   4    2   14 1
   5    2    5 1
   6    3    4 1
   7    3    7 1
   8    4    5 2
   9    5    6 1
  10    6   20 ar
  11    6   19 ar
  12    7    8 2
  13    7   10 am
  14    9   10 1
  15    9   11 1
  16    9   12 1
  17    9   34 1
  18   10   35 1
  19   11   27 1
  20   11   36 1
  21   11   37 1
  22   12   13 2
  23   12   25 am
  24   14   15 1
  25   14   38 1
  26   14   39 1
  27   15   16 1
  28   15   40 1
  29   15   41 1
  30   16   17 1
  31   16   42 1
  32   16   43 1
  33   17   18 1
  34   17   24 1
  35   18   44 1
  36   18   45 1
  37   19   23 ar
  38   19   46 1
  39   20   21 ar
  40   20   47 1
  41   21   22 ar
  42   21   48 1
  43   22   23 ar
  44   22   33 1
  45   23   32 1
  46   24   49 1
  47   24   50 1
  48   24   51 1
  49   25   26 1
  50   25   31 1
  51   26   52 1
  52   26   53 1
  53   26   54 1
  54   27   29 1
  55   27   30 1
  56   27   28 1
  57   28   55 1
  58   28   56 1
  59   28   57 1
  60   29   58 1
  61   29   59 1
  62   29   60 1
  63   30   61 1
  64   30   62 1
  65   30   63 1
  66   31   64 1
  67   31   65 1
  68   31   66 1

#	End of record

