#	Name: ASD01850087
#	Creating user name:	WinNT
#	Creation time:	15. 06. 2019 19:38

#	Modifying user name:	WinNT
#	Modification time:	15. 06. 2019 19:38

#	Program:	/corina/corina34_cracker 3.40 0067  02.08.2006

@<TRIPOS>MOLECULE
ASD01850087
  45   49    0    0    0
SMALL
NO_CHARGES


@<TRIPOS>ATOM
   1 C1            -0.2121     1.8888    -0.2297 C.ar    
   2 C2            -0.4470     0.5282    -0.1434 C.ar    
   3 C3             0.6028    -0.3483     0.0405 C.ar    
   4 C4             1.9057     0.1385     0.1397 C.ar    
   5 C5             2.1356     1.5158     0.0324 C.ar    
   6 C6             1.0796     2.3800    -0.1413 C.ar    
   7 C7             3.2059    -0.5314     0.3565 C.2     
   8 N8             4.1600     0.3810     0.5368 N.am    
   9 C9             3.6224     1.6977     0.1218 C.3     
  10 C10            5.5039     0.7244     1.0381 C.3     
  11 C11            5.2631     2.0653     1.7746 C.3     
  12 N12            4.0274     2.6249     1.1840 N.am    
  13 C13            3.3994     3.7603     1.5487 C.2     
  14 C14            3.8750     4.5237     2.7206 C.ar    
  15 C15            3.1301     5.6010     3.2040 C.ar    
  16 C16            3.5773     6.3107     4.2984 C.ar    
  17 C17            4.7644     5.9569     4.9195 C.ar    
  18 C18            5.5102     4.8863     4.4438 C.ar    
  19 C19            5.0684     4.1664     3.3523 C.ar    
  20 F20            5.1979     6.6561     5.9912 F       
  21 O21            2.4417     4.1562     0.9132 O.2     
  22 C22            4.1901     2.1113    -1.2115 C.ar    
  23 C23            4.3538     3.4519    -1.5068 C.ar    
  24 C24            4.8744     3.8319    -2.7294 C.ar    
  25 C25            5.2317     2.8704    -3.6578 C.ar    
  26 C26            5.0677     1.5289    -3.3617 C.ar    
  27 C27            4.5522     1.1500    -2.1365 C.ar    
  28 O28            3.3785    -1.7346     0.3689 O.2     
  29 Cl29           5.8851     3.3470    -5.1939 Cl      
  30 F30            6.6670     4.5462     5.0531 F       
  31 H31           -1.0384     2.5697    -0.3709 H       
  32 H32           -1.4559     0.1506    -0.2200 H       
  33 H33            0.4155    -1.4098     0.1080 H       
  34 H34            1.2582     3.4430    -0.2093 H       
  35 H35            5.8641    -0.0369     1.7301 H       
  36 H36            6.2019     0.8577     0.2116 H       
  37 H37            5.1253     1.8901     2.8415 H       
  38 H38            6.1008     2.7426     1.6081 H       
  39 H39            2.2048     5.8785     2.7210 H       
  40 H40            3.0013     7.1443     4.6721 H       
  41 H41            5.6482     3.3336     2.9825 H       
  42 H42            4.0744     4.2024    -0.7821 H       
  43 H43            5.0019     4.8793    -2.9602 H       
  44 H44            5.3465     0.7779    -4.0860 H       
  45 H45            4.4241     0.1029    -1.9052 H       
@<TRIPOS>BOND
   1    1    2 ar
   2    1    6 ar
   3    1   31 1
   4    2    3 ar
   5    2   32 1
   6    3    4 ar
   7    3   33 1
   8    4    5 ar
   9    4    7 1
  10    5    6 ar
  11    5    9 1
  12    6   34 1
  13    7    8 am
  14    7   28 2
  15    8    9 1
  16    8   10 1
  17    9   22 1
  18    9   12 1
  19   10   11 1
  20   10   35 1
  21   10   36 1
  22   11   12 1
  23   11   37 1
  24   11   38 1
  25   12   13 am
  26   13   14 1
  27   13   21 2
  28   14   15 ar
  29   14   19 ar
  30   15   16 ar
  31   15   39 1
  32   16   17 ar
  33   16   40 1
  34   17   18 ar
  35   17   20 1
  36   18   19 ar
  37   18   30 1
  38   19   41 1
  39   22   23 ar
  40   22   27 ar
  41   23   24 ar
  42   23   42 1
  43   24   25 ar
  44   24   43 1
  45   25   26 ar
  46   25   29 1
  47   26   27 ar
  48   26   44 1
  49   27   45 1

#	End of record

