#	Name: ASD01410157
#	Creating user name:	WinNT
#	Creation time:	15. 06. 2019 19:16

#	Modifying user name:	WinNT
#	Modification time:	15. 06. 2019 19:16

#	Program:	/corina/corina34_cracker 3.40 0067  02.08.2006

@<TRIPOS>MOLECULE
ASD01410157
  26   28    0    0    0
SMALL
NO_CHARGES


@<TRIPOS>ATOM
   1 C1            -0.0168     1.3853     0.0097 C.ar    
   2 C2             0.0021    -0.0041     0.0020 C.ar    
   3 C3            -1.1870    -0.7110     0.0096 C.ar    
   4 C4            -2.4043    -0.0183     0.0249 C.ar    
   5 C5            -2.4234     1.3861     0.0326 C.ar    
   6 C6            -1.2188     2.0765     0.0306 C.ar    
   7 C7            -3.8101    -0.4537     0.0360 C.2     
   8 C8            -4.5834     0.7941     0.0501 C.2     
   9 O9            -3.7019     1.8223     0.0472 O.3     
  10 O10           -4.2373    -1.5961     0.0333 O.2     
  11 C11           -5.9382     0.8985     0.0631 C.2     
  12 C12           -6.5715     2.2208     0.0764 C.2     
  13 O13            1.1535     2.0731     0.0022 O.3     
  14 O14           -1.1742    -2.0677     0.0017 O.3     
  15 C15           -7.9258     2.4779     0.0958 C.2     
  16 N16           -5.9324     3.4194     0.0776 N.2     
  17 C17           -6.8174     4.3736     0.0910 C.2     
  18 N18           -8.0630     3.8321     0.1024 N.pl3   
  19 H19            0.9443    -0.5317    -0.0102 H       
  20 H20           -1.2180     3.1565     0.0368 H       
  21 H21           -6.5485     0.0075     0.0638 H       
  22 H22            1.4842     2.2771    -0.8833 H       
  23 H23           -1.1619    -2.4661     0.8828 H       
  24 H24           -8.7218     1.7480     0.1043 H       
  25 H25           -6.5960     5.4306     0.0954 H       
  26 H26           -8.9000     4.3223     0.1135 H       
@<TRIPOS>BOND
   1    1    2 ar
   2    1   13 1
   3    1    6 ar
   4    2    3 ar
   5    2   19 1
   6    3    4 ar
   7    3   14 1
   8    4    5 ar
   9    4    7 1
  10    5    6 ar
  11    5    9 1
  12    6   20 1
  13    7    8 1
  14    7   10 2
  15    8    9 1
  16    8   11 2
  17   11   12 1
  18   11   21 1
  19   12   16 1
  20   12   15 2
  21   13   22 1
  22   14   23 1
  23   15   18 1
  24   15   24 1
  25   16   17 2
  26   17   18 1
  27   17   25 1
  28   18   26 1

#	End of record

