#	Name: ASD04590238
#	Creating user name:	WinNT
#	Creation time:	15. 06. 2019 20:50

#	Modifying user name:	WinNT
#	Modification time:	15. 06. 2019 20:50

#	Program:	/corina/corina34_cracker 3.40 0067  02.08.2006

@<TRIPOS>MOLECULE
ASD04590238
  48   50    0    0    0
SMALL
NO_CHARGES


@<TRIPOS>ATOM
   1 N1            -0.0153     1.2802     0.0091 N.pl3   
   2 N2             0.0021    -0.0041     0.0020 N.2     
   3 C3             1.2455    -0.4440    -0.0122 C.2     
   4 C4             2.0903     0.6961    -0.0142 C.2     
   5 C5             1.2523     1.7667    -0.0004 C.2     
   6 C6             1.6765    -1.8547    -0.0235 C.2     
   7 N7             0.7571    -2.8402    -0.0200 N.am    
   8 N8             3.4930     0.7146    -0.0275 N.am    
   9 O9             2.8611    -2.1284    -0.0359 O.2     
  10 C10            4.1514     1.8906    -0.0274 C.2     
  11 C11            5.6264     1.9101    -0.0414 C.ar    
  12 O12            3.5296     2.9356    -0.0159 O.2     
  13 C13            1.1851    -4.2412    -0.0312 C.3     
  14 C14            1.9496    -6.1535     1.3824 C.3     
  15 C15            1.4693    -4.6990     1.4012 C.3     
  16 C16            6.3414     1.9129     1.1612 C.ar    
  17 C17            7.7233     1.9313     1.1389 C.ar    
  18 C18            8.3992     1.9473    -0.0677 C.ar    
  19 C19            7.7004     1.9452    -1.2612 C.ar    
  20 C20            6.3184     1.9201    -1.2574 C.ar    
  21 C21            0.0777    -5.1078    -0.6353 C.3     
  22 C22            0.5423    -6.5670    -0.6772 C.3     
  23 N23            0.9553    -6.9708     0.6738 N.am    
  24 S24            0.3126    -8.3216     1.3841 S.o2    
  25 O25            0.4203    -8.0693     2.7784 O.2     
  26 O26           -0.9563    -8.4741     0.7630 O.2     
  27 C27            1.4275    -9.6654     0.8924 C.3     
  28 F28            5.6831     1.8982     2.3408 F       
  29 F29            5.6376     1.9176    -2.4243 F       
  30 H30           -0.8184     1.8242     0.0160 H       
  31 H31            1.5405     2.8076     0.0024 H       
  32 H32           -0.1879    -2.6218    -0.0102 H       
  33 H33            3.9890    -0.1189    -0.0367 H       
  34 H34            2.0906    -4.3396    -0.6300 H       
  35 H35            2.9078    -6.2152     0.8666 H       
  36 H36            2.0586    -6.5156     2.4047 H       
  37 H37            2.2416    -4.0664     1.8388 H       
  38 H38            0.5579    -4.6244     1.9945 H       
  39 H39            8.2768     1.9335     2.0662 H       
  40 H40            9.4791     1.9620    -0.0779 H       
  41 H41            8.2361     1.9585    -2.1989 H       
  42 H42           -0.8205    -5.0294    -0.0228 H       
  43 H43           -0.1404    -4.7662    -1.6472 H       
  44 H44           -0.2773    -7.2019    -1.0138 H       
  45 H45            1.3858    -6.6624    -1.3610 H       
  46 H46            2.4334    -9.4542     1.2555 H       
  47 H47            1.0763   -10.6041     1.3209 H       
  48 H48            1.4429    -9.7455    -0.1945 H       
@<TRIPOS>BOND
   1    1    2 1
   2    1    5 1
   3    1   30 1
   4    2    3 2
   5    3    4 1
   6    3    6 1
   7    4    5 2
   8    4    8 1
   9    5   31 1
  10    6    7 am
  11    6    9 2
  12    7   13 1
  13    7   32 1
  14    8   10 am
  15    8   33 1
  16   10   12 2
  17   10   11 1
  18   11   16 ar
  19   11   20 ar
  20   13   21 1
  21   13   15 1
  22   13   34 1
  23   14   15 1
  24   14   23 1
  25   14   35 1
  26   14   36 1
  27   15   37 1
  28   15   38 1
  29   16   17 ar
  30   16   28 1
  31   17   18 ar
  32   17   39 1
  33   18   19 ar
  34   18   40 1
  35   19   20 ar
  36   19   41 1
  37   20   29 1
  38   21   22 1
  39   21   42 1
  40   21   43 1
  41   22   23 1
  42   22   44 1
  43   22   45 1
  44   23   24 am
  45   24   25 2
  46   24   26 2
  47   24   27 1
  48   27   46 1
  49   27   47 1
  50   27   48 1

#	End of record

