#	Name: ASD00171005
#	Creating user name:	WinNT
#	Creation time:	15. 06. 2019 18:32

#	Modifying user name:	WinNT
#	Modification time:	15. 06. 2019 18:32

#	Program:	/corina/corina34_cracker 3.40 0067  02.08.2006

@<TRIPOS>MOLECULE
ASD00171005
  56   60    0    0    0
SMALL
NO_CHARGES


@<TRIPOS>ATOM
   1 C1            -0.0688     1.3071    -0.1028 C.2     
   2 O2            -0.0423     0.0945    -0.1417 O.2     
   3 C3             1.1824     2.0677    -0.1218 C.ar    
   4 C4             1.1580     3.4797    -0.0768 C.ar    
   5 C5             2.3592     4.1882    -0.0957 C.ar    
   6 C6             3.5592     3.5104    -0.1580 C.ar    
   7 C7             3.5843     2.1222    -0.2027 C.ar    
   8 C8             2.4126     1.4013    -0.1789 C.ar    
   9 Cl9            5.0500     4.3997    -0.1812 Cl      
  10 C10           -0.8248     4.6023    -1.1175 C.2     
  11 C11           -0.1282     4.1992    -0.0107 C.2     
  12 C12           -0.7812     4.5491     1.2273 C.2     
  13 C13           -1.9295     5.1932     1.0748 C.2     
  14 S14           -2.2994     5.4210    -0.6261 S.3     
  15 C15           -0.2067     4.2107     2.5788 C.3     
  16 N16            0.8348     5.1865     2.9264 N.3     
  17 C17            1.2519     5.0351     4.3274 C.3     
  18 C18            2.3903     6.0133     4.6266 C.3     
  19 N19            1.9363     7.3855     4.3606 N.3     
  20 C20            1.5193     7.5369     2.9596 C.3     
  21 C21            0.3808     6.5587     2.6604 C.3     
  22 C22            2.9241     8.3109     4.6903 C.ar    
  23 C23            3.5389     9.0533     3.7043 C.ar    
  24 C24            4.5266     9.9801     4.0232 C.ar    
  25 C25            4.9131    10.1799     5.3136 C.ar    
  26 C26            4.3116     9.4438     6.3483 C.ar    
  27 C27            4.6908     9.6288     7.6893 C.ar    
  28 C28            4.0876     8.8985     8.6667 C.ar    
  29 C29            3.0976     7.9674     8.3588 C.ar    
  30 C30            2.7056     7.7618     7.0712 C.ar    
  31 C31            3.3006     8.5014     6.0372 C.ar    
  32 N32           -0.4237     4.4001    -2.4305 N.pl3   
  33 H33           -1.0152     1.8255    -0.0588 H       
  34 H34            2.3499     5.2676    -0.0620 H       
  35 H35            4.5310     1.6047    -0.2517 H       
  36 H36            2.4416     0.3221    -0.2088 H       
  37 H37           -2.5541     5.5322     1.8880 H       
  38 H38           -0.9979     4.2414     3.3279 H       
  39 H39            0.2272     3.2112     2.5492 H       
  40 H40            0.4077     5.2481     4.9832 H       
  41 H41            1.5955     4.0146     4.4963 H       
  42 H42            2.6817     5.9231     5.6730 H       
  43 H43            3.2444     5.7830     3.9897 H       
  44 H44            1.1757     8.5574     2.7907 H       
  45 H45            2.3635     7.3239     2.3038 H       
  46 H46            0.0894     6.6489     1.6140 H       
  47 H47           -0.4733     6.7890     3.2973 H       
  48 H48            3.2509     8.9136     2.6729 H       
  49 H49            4.9946    10.5501     3.2343 H       
  50 H50            5.6817    10.9036     5.5415 H       
  51 H51            5.4571    10.3464     7.9426 H       
  52 H52            4.3808     9.0425     9.6961 H       
  53 H53            2.6348     7.4005     9.1530 H       
  54 H54            1.9376     7.0364     6.8470 H       
  55 H55            0.4099     3.9408    -2.6177 H       
  56 H56           -0.9770     4.7180    -3.1610 H       
@<TRIPOS>BOND
   1    1    2 2
   2    1    3 1
   3    1   33 1
   4    3    4 ar
   5    3    8 ar
   6    4    5 ar
   7    4   11 1
   8    5    6 ar
   9    5   34 1
  10    6    7 ar
  11    6    9 1
  12    7    8 ar
  13    7   35 1
  14    8   36 1
  15   10   11 2
  16   10   14 1
  17   10   32 1
  18   11   12 1
  19   12   13 2
  20   12   15 1
  21   13   14 1
  22   13   37 1
  23   15   16 1
  24   15   38 1
  25   15   39 1
  26   16   17 1
  27   16   21 1
  28   17   18 1
  29   17   40 1
  30   17   41 1
  31   18   19 1
  32   18   42 1
  33   18   43 1
  34   19   20 1
  35   19   22 1
  36   20   21 1
  37   20   44 1
  38   20   45 1
  39   21   46 1
  40   21   47 1
  41   22   23 ar
  42   22   31 ar
  43   23   24 ar
  44   23   48 1
  45   24   25 ar
  46   24   49 1
  47   25   26 ar
  48   25   50 1
  49   26   27 ar
  50   26   31 ar
  51   27   28 ar
  52   27   51 1
  53   28   29 ar
  54   28   52 1
  55   29   30 ar
  56   29   53 1
  57   30   31 ar
  58   30   54 1
  59   32   55 1
  60   32   56 1

#	End of record

