#	Name: ASD01840534
#	Creating user name:	WinNT
#	Creation time:	15. 06. 2019 19:37

#	Modifying user name:	WinNT
#	Modification time:	15. 06. 2019 19:37

#	Program:	/corina/corina34_cracker 3.40 0067  02.08.2006

@<TRIPOS>MOLECULE
ASD01840534
  52   55    0    0    0
SMALL
NO_CHARGES


@<TRIPOS>ATOM
   1 C1             2.5870    -0.4189     1.0052 C.3     
   2 C2             1.3053    -1.0640     0.5445 C.ar    
   3 C3             1.2399    -1.6985    -0.6823 C.ar    
   4 C4             0.0379    -2.2800    -1.0662 C.ar    
   5 C5            -0.3520    -3.0299    -2.3135 C.3     
   6 N6            -1.7597    -3.4180    -2.1770 N.am    
   7 C7            -2.2147    -2.9155    -0.8769 C.3     
   8 C8            -1.0509    -2.2114    -0.2231 C.ar    
   9 N9            -0.9567    -1.5968     0.9452 N.ar    
  10 C10            0.1707    -1.0356     1.3494 C.ar    
  11 N11            0.2212    -0.4068     2.5880 N.3     
  12 C12           -0.7113     0.7264     2.6413 C.3     
  13 C13           -0.5250     1.4804     3.9599 C.3     
  14 C14           -0.7847     0.5262     5.1290 C.3     
  15 C15            0.1664    -0.6691     5.0229 C.3     
  16 C16           -0.0399    -1.3608     3.6735 C.3     
  17 O17           -0.5568     1.2098     6.3630 O.3     
  18 C18           -1.2060     0.7368     7.4593 C.ar    
  19 C19           -1.1218     1.4186     8.6646 C.ar    
  20 C20           -1.7830     0.9360     9.7774 C.ar    
  21 C21           -2.5278    -0.2257     9.6908 C.ar    
  22 C22           -2.6129    -0.9073     8.4908 C.ar    
  23 C23           -1.9586    -0.4255     7.3736 C.ar    
  24 S24           -2.6623    -4.2613    -3.2799 S.o2    
  25 C25           -2.4198    -6.0012    -2.8275 C.3     
  26 O26           -4.0000    -3.8598    -3.0183 O.2     
  27 O27           -2.0436    -3.9797    -4.5278 O.2     
  28 H28            3.1507    -1.1253     1.6144 H       
  29 H29            3.1815    -0.1319     0.1378 H       
  30 H30            2.3557     0.4671     1.5964 H       
  31 H31            2.1043    -1.7409    -1.3283 H       
  32 H32           -0.2286    -2.3871    -3.1850 H       
  33 H33            0.2683    -3.9201    -2.4187 H       
  34 H34           -3.0375    -2.2149    -1.0192 H       
  35 H35           -2.5407    -3.7476    -0.2529 H       
  36 H36           -0.5131     1.3993     1.8070 H       
  37 H37           -1.7349     0.3578     2.5752 H       
  38 H38            0.4946     1.8611     4.0205 H       
  39 H39           -1.2280     2.3121     4.0060 H       
  40 H40           -1.8160     0.1756     5.0907 H       
  41 H41            1.1969    -0.3222     5.1002 H       
  42 H42           -0.0426    -1.3730     5.8284 H       
  43 H43           -1.0667    -1.7196     3.6025 H       
  44 H44            0.6459    -2.2038     3.5888 H       
  45 H45           -0.5396     2.3257     8.7329 H       
  46 H46           -1.7178     1.4664    10.7159 H       
  47 H47           -3.0437    -0.6015    10.5620 H       
  48 H48           -3.1949    -1.8146     8.4258 H       
  49 H49           -2.0289    -0.9558     6.4354 H       
  50 H50           -2.7682    -6.1633    -1.8075 H       
  51 H51           -2.9851    -6.6362    -3.5097 H       
  52 H52           -1.3605    -6.2496    -2.8935 H       
@<TRIPOS>BOND
   1    1    2 1
   2    1   28 1
   3    1   29 1
   4    1   30 1
   5    2   10 ar
   6    2    3 ar
   7    3    4 ar
   8    3   31 1
   9    4    8 ar
  10    4    5 1
  11    5    6 1
  12    5   32 1
  13    5   33 1
  14    6    7 1
  15    6   24 am
  16    7    8 1
  17    7   34 1
  18    7   35 1
  19    8    9 ar
  20    9   10 ar
  21   10   11 1
  22   11   16 1
  23   11   12 1
  24   12   13 1
  25   12   36 1
  26   12   37 1
  27   13   14 1
  28   13   38 1
  29   13   39 1
  30   14   15 1
  31   14   17 1
  32   14   40 1
  33   15   16 1
  34   15   41 1
  35   15   42 1
  36   16   43 1
  37   16   44 1
  38   17   18 1
  39   18   23 ar
  40   18   19 ar
  41   19   20 ar
  42   19   45 1
  43   20   21 ar
  44   20   46 1
  45   21   22 ar
  46   21   47 1
  47   22   23 ar
  48   22   48 1
  49   23   49 1
  50   24   25 1
  51   24   26 2
  52   24   27 2
  53   25   50 1
  54   25   51 1
  55   25   52 1

#	End of record

