#	Name: ASD00930001
#	Creating user name:	WinNT
#	Creation time:	15. 06. 2019 18:53

#	Modifying user name:	WinNT
#	Modification time:	15. 06. 2019 18:53

#	Program:	/corina/corina34_cracker 3.40 0067  02.08.2006

@<TRIPOS>MOLECULE
ASD00930001
  17   17    0    0    0
SMALL
NO_CHARGES


@<TRIPOS>ATOM
   1 C1            -0.0184     1.5028     0.0103 C.2     
   2 C2             0.0021    -0.0041     0.0020 C.3     
   3 N3             1.3012    -0.4717    -0.4851 N.am    
   4 C4             2.3509    -0.5815     0.3453 C.2     
   5 O5             3.4396    -0.8717    -0.1102 O.2     
   6 N6             2.2265    -0.3778     1.6673 N.am    
   7 C7             1.0138    -0.2923     2.2440 C.2     
   8 O8             0.9204    -0.0280     3.4235 O.2     
   9 C9            -0.2292    -0.5250     1.4223 C.3     
  10 O10            1.0197     2.1211     0.0037 O.2     
  11 O11           -1.1898     2.1580     0.0194 O.3     
  12 H12           -0.7862    -0.3744    -0.6534 H       
  13 H13            1.4051    -0.7057    -1.4206 H       
  14 H14            3.0228    -0.2913     2.2144 H       
  15 H15           -1.0681     0.0055     1.8727 H       
  16 H16           -0.4483    -1.5922     1.3876 H       
  17 H17           -1.1523     3.1243     0.0245 H       
@<TRIPOS>BOND
   1    1    2 1
   2    1   10 2
   3    1   11 1
   4    2    3 1
   5    2    9 1
   6    2   12 1
   7    3    4 am
   8    3   13 1
   9    4    5 2
  10    4    6 am
  11    6    7 am
  12    6   14 1
  13    7    8 2
  14    7    9 1
  15    9   15 1
  16    9   16 1
  17   11   17 1

#	End of record

