#	Name: ASD01208510
#	Creating user name:	WinNT
#	Creation time:	15. 06. 2019 19:09

#	Modifying user name:	WinNT
#	Modification time:	15. 06. 2019 19:09

#	Program:	/corina/corina34_cracker 3.40 0067  02.08.2006

@<TRIPOS>MOLECULE
ASD01208510
  25   26    0    0    0
SMALL
NO_CHARGES


@<TRIPOS>ATOM
   1 C1            -0.0101     1.3889     0.1135 C.ar    
   2 C2             0.0303     0.0296     0.3791 C.ar    
   3 C3             1.2434    -0.6322     0.3362 C.ar    
   4 C4             2.3921     0.1059     0.0230 C.ar    
   5 C5             2.2675     1.4719    -0.2318 C.ar    
   6 N6             1.0897     2.0586    -0.1789 N.ar    
   7 C7            -1.2344    -0.7192     0.7117 C.3     
   8 Cl8           -1.5317     2.2233     0.1589 Cl      
   9 C9             3.7143    -0.5516    -0.0360 C.2     
  10 O10            4.7204     0.1175    -0.1695 O.2     
  11 N11            3.8047    -1.8930     0.0581 N.am    
  12 C12            4.8847    -2.8889    -0.0101 C.3     
  13 C13            3.8424    -3.9064    -0.4944 C.3     
  14 C14            2.8677    -3.0045     0.2806 C.3     
  15 H15            1.3039    -1.6912     0.5393 H       
  16 H16            3.1447     2.0534    -0.4741 H       
  17 H17           -1.6838    -1.0990    -0.2058 H       
  18 H18           -0.9997    -1.5529     1.3735 H       
  19 H19           -1.9346    -0.0474     1.2081 H       
  20 H20            5.6436    -2.6559    -0.7570 H       
  21 H21            5.3112    -3.1340     0.9626 H       
  22 H22            3.6902    -3.9109    -1.5737 H       
  23 H23            3.9598    -4.9032    -0.0693 H       
  24 H24            2.7625    -3.2800     1.3300 H       
  25 H25            1.9082    -2.8699    -0.2186 H       
@<TRIPOS>BOND
   1    1    2 ar
   2    1    6 ar
   3    1    8 1
   4    2    3 ar
   5    2    7 1
   6    3    4 ar
   7    3   15 1
   8    4    5 ar
   9    4    9 1
  10    5    6 ar
  11    5   16 1
  12    7   17 1
  13    7   18 1
  14    7   19 1
  15    9   10 2
  16    9   11 am
  17   11   12 1
  18   11   14 1
  19   12   13 1
  20   12   20 1
  21   12   21 1
  22   13   14 1
  23   13   22 1
  24   13   23 1
  25   14   24 1
  26   14   25 1

#	End of record

