#	Name: ASD01901282
#	Creating user name:	WinNT
#	Creation time:	15. 06. 2019 19:53

#	Modifying user name:	WinNT
#	Modification time:	15. 06. 2019 19:53

#	Program:	/corina/corina34_cracker 3.40 0067  02.08.2006

@<TRIPOS>MOLECULE
ASD01901282
  42   45    0    0    0
SMALL
NO_CHARGES


@<TRIPOS>ATOM
   1 C1            -0.0166     1.3749     0.0096 C.ar    
   2 C2             0.0021    -0.0041     0.0020 C.ar    
   3 C3             1.2078    -0.6830    -0.0127 C.ar    
   4 C4             2.4027     0.0149    -0.0199 C.ar    
   5 C5             2.3997     1.3940    -0.0124 C.ar    
   6 C6             1.1860     2.0866     0.0019 C.ar    
   7 C7             1.1748     3.5185     0.0093 C.1     
   8 C8             1.1656     4.6925     0.0153 C.1     
   9 C9             1.1543     6.1244     0.0226 C.ar    
  10 C10           -0.0679     8.1952     0.0502 C.ar    
  11 C11           -0.0607     6.8154     0.0432 C.ar    
  12 C12            2.3584     6.8345     0.0149 C.ar    
  13 C13            2.3439     8.2143     0.0220 C.ar    
  14 C14            1.1325     8.8989     0.0372 C.ar    
  15 N15            1.1215    10.3002     0.0438 N.am    
  16 N16            1.0834    12.3057    -1.1950 N.am    
  17 C17            1.0949    10.9632    -1.1230 C.2     
  18 C18            1.1323    10.9562     1.2239 C.2     
  19 C19            1.0543    12.9617    -2.5046 C.3     
  20 O20            1.1517    10.3465     2.2756 O.2     
  21 O21            1.0812    10.3236    -2.1569 O.2     
  22 F22           -1.2417     8.8637     0.0701 F       
  23 C23            1.1203    12.4339     1.2053 C.ar    
  24 C24            1.0983    13.0749    -0.0424 C.ar    
  25 F25            3.5071     8.9013     0.0145 F       
  26 C26            1.0873    14.4670    -0.0898 C.ar    
  27 N27            1.1294    13.1417     2.3266 N.ar    
  28 C28            1.1183    14.4566     2.3062 C.ar    
  29 C29            1.1040    15.1596     1.1092 C.ar    
  30 Cl30           1.0540    15.3089    -1.6076 Cl      
  31 H31           -0.9584     1.9035     0.0169 H       
  32 H32           -0.9266    -0.5554     0.0079 H       
  33 H33            1.2163    -1.7630    -0.0182 H       
  34 H34            3.3399    -0.5217    -0.0310 H       
  35 H35            3.3331     1.9374    -0.0174 H       
  36 H36           -0.9928     6.2698     0.0533 H       
  37 H37            3.2990     6.3038     0.0038 H       
  38 H38            1.0456    12.2056    -3.2896 H       
  39 H39            0.1580    13.5771    -2.5829 H       
  40 H40            1.9376    13.5906    -2.6157 H       
  41 H41            1.1259    15.0004     3.2392 H       
  42 H42            1.0966    16.2395     1.1132 H       
@<TRIPOS>BOND
   1    1    2 ar
   2    1    6 ar
   3    1   31 1
   4    2    3 ar
   5    2   32 1
   6    3    4 ar
   7    3   33 1
   8    4    5 ar
   9    4   34 1
  10    5    6 ar
  11    5   35 1
  12    6    7 1
  13    7    8 3
  14    8    9 1
  15    9   12 ar
  16    9   11 ar
  17   10   11 ar
  18   10   14 ar
  19   10   22 1
  20   11   36 1
  21   12   13 ar
  22   12   37 1
  23   13   14 ar
  24   13   25 1
  25   14   15 1
  26   15   18 am
  27   15   17 am
  28   16   17 am
  29   16   24 1
  30   16   19 1
  31   17   21 2
  32   18   23 1
  33   18   20 2
  34   19   38 1
  35   19   39 1
  36   19   40 1
  37   23   27 ar
  38   23   24 ar
  39   24   26 ar
  40   26   29 ar
  41   26   30 1
  42   27   28 ar
  43   28   29 ar
  44   28   41 1
  45   29   42 1

#	End of record

