#	Name: ASD05660004
#	Creating user name:	WinNT
#	Creation time:	15. 06. 2019 21:01

#	Modifying user name:	WinNT
#	Modification time:	15. 06. 2019 21:01

#	Program:	/corina/corina34_cracker 3.40 0067  02.08.2006

@<TRIPOS>MOLECULE
ASD05660004
  38   37    0    0    0
SMALL
NO_CHARGES


@<TRIPOS>ATOM
   1 C1            -0.1417     1.2155     0.4858 C.3     
   2 C2             0.1731    -0.2434     0.1493 C.3     
   3 C3             1.0673     2.0689     0.2013 C.2     
   4 C4            -0.9909    -1.1134     0.5482 C.2     
   5 O5            -0.8193    -2.0466     1.2963 O.2     
   6 O6             2.0772     1.5621    -0.2267 O.2     
   7 S7             0.4645    -0.4034    -1.6339 S.3     
   8 P8             1.2005    -2.3827    -1.8212 P.3     
   9 S9             1.7108    -2.6912    -3.5868 S.2     
  10 O10            1.0223     3.3919     0.4233 O.3     
  11 C11            2.2238     4.1513     0.1267 C.3     
  12 C12            1.9833     5.6294     0.4404 C.3     
  13 O13           -2.2185    -0.8517     0.0723 O.3     
  14 C14           -3.2922    -1.7313     0.4988 C.3     
  15 C15           -4.6063    -1.2793    -0.1413 C.3     
  16 O16            2.4725    -2.5761    -0.8533 O.3     
  17 C17            3.5310    -1.6207    -0.7589 C.3     
  18 O18            0.0467    -3.4259    -1.4060 O.3     
  19 C19           -1.0699    -3.7263    -2.2457 C.3     
  20 H20           -0.9787     1.5565    -0.1236 H       
  21 H21           -0.4037     1.2967     1.5407 H       
  22 H22            1.0643    -0.5574     0.6927 H       
  23 H23            3.0479     3.7800     0.7358 H       
  24 H24            2.4729     4.0398    -0.9286 H       
  25 H25            1.1592     6.0007    -0.1687 H       
  26 H26            1.7342     5.7410     1.4957 H       
  27 H27            2.8853     6.1995     0.2178 H       
  28 H28           -3.0698    -2.7525     0.1895 H       
  29 H29           -3.3844    -1.6922     1.5842 H       
  30 H30           -5.4123    -1.9396     0.1789 H       
  31 H31           -4.8287    -0.2580     0.1680 H       
  32 H32           -4.5141    -1.3183    -1.2267 H       
  33 H33            3.9364    -1.4282    -1.7522 H       
  34 H34            3.1459    -0.6922    -0.3374 H       
  35 H35            4.3182    -2.0131    -0.1150 H       
  36 H36           -1.6370    -2.8151    -2.4359 H       
  37 H37           -0.7138    -4.1366    -3.1906 H       
  38 H38           -1.7105    -4.4564    -1.7510 H       
@<TRIPOS>BOND
   1    1    2 1
   2    1    3 1
   3    1   20 1
   4    1   21 1
   5    2    7 1
   6    2    4 1
   7    2   22 1
   8    3    6 2
   9    3   10 1
  10    4    5 2
  11    4   13 1
  12    7    8 1
  13    8    9 2
  14    8   16 1
  15    8   18 1
  16   10   11 1
  17   11   12 1
  18   11   23 1
  19   11   24 1
  20   12   25 1
  21   12   26 1
  22   12   27 1
  23   13   14 1
  24   14   15 1
  25   14   28 1
  26   14   29 1
  27   15   30 1
  28   15   31 1
  29   15   32 1
  30   16   17 1
  31   17   33 1
  32   17   34 1
  33   17   35 1
  34   18   19 1
  35   19   36 1
  36   19   37 1
  37   19   38 1

#	End of record

