#	Name: ASD01912252
#	Creating user name:	WinNT
#	Creation time:	15. 06. 2019 19:59

#	Modifying user name:	WinNT
#	Modification time:	15. 06. 2019 19:59

#	Program:	/corina/corina34_cracker 3.40 0067  02.08.2006

@<TRIPOS>MOLECULE
ASD01912252
  54   57    0    0    0
SMALL
NO_CHARGES


@<TRIPOS>ATOM
   1 C1            -0.0159     1.3187     0.0093 C.ar    
   2 N2             0.0021    -0.0041     0.0020 N.ar    
   3 C3             1.1467    -0.6665    -0.0124 C.ar    
   4 C4             2.3419     0.0477    -0.0200 C.ar    
   5 C5             2.2815     1.4387    -0.0120 C.ar    
   6 N6             1.0991     2.0308     0.0025 N.ar    
   7 N7             3.5735    -0.6162    -0.0348 N.3     
   8 C8             4.6871     0.3407    -0.0404 C.3     
   9 C9             6.0042    -0.4095     0.1885 C.3     
  10 C10            6.1029    -1.5182    -0.8383 C.2     
  11 C11            4.9031    -2.4252    -1.0151 C.3     
  12 C12            3.6559    -1.5469    -1.1675 C.3     
  13 C13            7.2082    -1.6898    -1.5622 C.2     
  14 C14            7.2756    -2.7461    -2.5266 C.1     
  15 C15            7.3309    -3.6122    -3.3173 C.1     
  16 C16            7.3984    -4.6685    -4.2818 C.ar    
  17 C17            8.5605    -4.8441    -5.0387 C.ar    
  18 C18            8.6092    -5.8690    -5.9657 C.ar    
  19 C19            7.4965    -6.6875    -6.1092 C.ar    
  20 C20            6.3786    -6.4582    -5.3280 C.ar    
  21 N21            6.3570    -5.4790    -4.4474 N.ar    
  22 C22            5.1701    -7.3453    -5.4821 C.3     
  23 N23           -1.2444     1.9810     0.0186 N.pl3   
  24 C24           -1.4194     3.3366     0.0268 C.2     
  25 C25           -2.7433     3.5899     0.0344 C.2     
  26 C26           -3.4123     2.3488     0.0308 C.2     
  27 C27           -2.4731     1.3822     0.0152 C.2     
  28 C28           -2.7327    -0.1022     0.0007 C.3     
  29 C29           -0.3220     4.3694     0.0277 C.3     
  30 H30            1.1542    -1.7464    -0.0180 H       
  31 H31            3.1879     2.0260    -0.0174 H       
  32 H32            4.7223     0.8519    -1.0024 H       
  33 H33            4.5422     1.0718     0.7549 H       
  34 H34            6.8432     0.2764     0.0706 H       
  35 H35            6.0151    -0.8355     1.1917 H       
  36 H36            5.0332    -3.0370    -1.9078 H       
  37 H37            4.7958    -3.0675    -0.1411 H       
  38 H38            2.7671    -2.1775    -1.1853 H       
  39 H39            3.7202    -0.9825    -2.0978 H       
  40 H40            8.0533    -1.0322    -1.4216 H       
  41 H41            9.4079    -4.1887    -4.9017 H       
  42 H42            9.4930    -6.0291    -6.5653 H       
  43 H43            7.5040    -7.4961    -6.8251 H       
  44 H44            5.2514    -8.1918    -4.8003 H       
  45 H45            4.2698    -6.7765    -5.2494 H       
  46 H46            5.1149    -7.7091    -6.5081 H       
  47 H47           -3.2068     4.5653     0.0419 H       
  48 H48           -4.4820     2.1999     0.0350 H       
  49 H49           -2.7931    -0.4705     1.0248 H       
  50 H50           -3.6731    -0.3016    -0.5131 H       
  51 H51           -1.9197    -0.6082    -0.5200 H       
  52 H52           -0.0618     4.6240    -0.9997 H       
  53 H53           -0.6651     5.2637     0.5480 H       
  54 H54            0.5548     3.9675     0.5356 H       
@<TRIPOS>BOND
   1    1    2 ar
   2    1    6 ar
   3    1   23 1
   4    2    3 ar
   5    3    4 ar
   6    3   30 1
   7    4    5 ar
   8    4    7 1
   9    5    6 ar
  10    5   31 1
  11    7    8 1
  12    7   12 1
  13    8    9 1
  14    8   32 1
  15    8   33 1
  16    9   10 1
  17    9   34 1
  18    9   35 1
  19   10   11 1
  20   10   13 2
  21   11   12 1
  22   11   36 1
  23   11   37 1
  24   12   38 1
  25   12   39 1
  26   13   14 1
  27   13   40 1
  28   14   15 3
  29   15   16 1
  30   16   17 ar
  31   16   21 ar
  32   17   18 ar
  33   17   41 1
  34   18   19 ar
  35   18   42 1
  36   19   20 ar
  37   19   43 1
  38   20   21 ar
  39   20   22 1
  40   22   44 1
  41   22   45 1
  42   22   46 1
  43   23   24 1
  44   23   27 1
  45   24   25 2
  46   24   29 1
  47   25   26 1
  48   25   47 1
  49   26   27 2
  50   26   48 1
  51   27   28 1
  52   28   49 1
  53   28   50 1
  54   28   51 1
  55   29   52 1
  56   29   53 1
  57   29   54 1

#	End of record

