#	Name: ASD01410367
#	Creating user name:	WinNT
#	Creation time:	15. 06. 2019 19:17

#	Modifying user name:	WinNT
#	Modification time:	15. 06. 2019 19:17

#	Program:	/corina/corina34_cracker 3.40 0067  02.08.2006

@<TRIPOS>MOLECULE
ASD01410367
  64   68    0    0    0
SMALL
NO_CHARGES


@<TRIPOS>ATOM
   1 C1            -0.0092     1.2942     0.1602 C.ar    
   2 C2            -0.0281    -0.0841    -0.1001 C.ar    
   3 C3            -1.2110    -0.7457    -0.2263 C.ar    
   4 C4            -2.4215    -0.0501    -0.0962 C.ar    
   5 C5            -2.4126     1.3356     0.1656 C.ar    
   6 C6            -1.2039     1.9999     0.2982 C.ar    
   7 C7             1.2789     1.9982     0.2945 C.2     
   8 O8             2.4352     1.3178     0.1672 O.3     
   9 O9             1.2981     3.1921     0.5201 O.2     
  10 C10           -3.7791    -0.4437    -0.1720 C.2     
  11 C11           -4.5434     0.6586     0.0355 C.2     
  12 N12           -3.7279     1.7459     0.2417 N.pl3   
  13 C13           -6.0218     0.6856     0.0395 C.ar    
  14 C14           -6.7091     1.5600    -0.8037 C.ar    
  15 C15           -8.0885     1.5802    -0.7950 C.ar    
  16 C16           -8.7905     0.7366     0.0475 C.ar    
  17 C17           -8.1152    -0.1322     0.8861 C.ar    
  18 C18           -6.7360    -0.1672     0.8824 C.ar    
  19 C19           -4.2857    -1.8382    -0.4364 C.3     
  20 C20           -3.7761    -2.3163    -1.7975 C.3     
  21 C21           -4.2904    -3.7321    -2.0660 C.3     
  22 C22           -3.7842    -4.6745    -0.9721 C.3     
  23 C23           -4.2937    -4.1964     0.3890 C.3     
  24 C24           -3.7794    -2.7806     0.6574 C.3     
  25 C25           -4.1808     3.1149     0.5003 C.3     
  26 C26           -4.4395     3.2922     1.9978 C.3     
  27 C27           -4.7985     4.7517     2.2841 C.3     
  28 C28           -5.1787     4.9047     3.7592 C.3     
  29 N29           -5.4478     6.3213     4.0460 N.3     
  30 C30           -4.2708     7.1474     3.7405 C.3     
  31 C31           -3.8997     6.9718     2.2656 C.3     
  32 O32           -3.6723     5.5854     1.9982 O.3     
  33 H33            0.9019    -0.6237    -0.2015 H       
  34 H34           -1.2171    -1.8068    -0.4272 H       
  35 H35           -1.1872     3.0610     0.4987 H       
  36 H36            3.2544     1.8225     0.2634 H       
  37 H37           -6.1622     2.2195    -1.4613 H       
  38 H38           -8.6215     2.2564    -1.4470 H       
  39 H39           -9.8703     0.7566     0.0507 H       
  40 H40           -8.6690    -0.7877     1.5419 H       
  41 H41           -6.2101    -0.8458     1.5375 H       
  42 H42           -5.3756    -1.8347    -0.4372 H       
  43 H43           -4.1368    -1.6449    -2.5768 H       
  44 H44           -2.6861    -2.3197    -1.7967 H       
  45 H45           -5.3804    -3.7286    -2.0668 H       
  46 H46           -3.9274    -4.0727    -3.0356 H       
  47 H47           -4.1506    -5.6831    -1.1634 H       
  48 H48           -2.6942    -4.6779    -0.9713 H       
  49 H49           -5.3837    -4.1929     0.3882 H       
  50 H50           -3.9331    -4.8678     1.1683 H       
  51 H51           -2.6894    -2.7840     0.6583 H       
  52 H52           -4.1424    -2.4400     1.6271 H       
  53 H53           -3.4130     3.8185     0.1784 H       
  54 H54           -5.1012     3.3036    -0.0523 H       
  55 H55           -5.2646     2.6485     2.3027 H       
  56 H56           -3.5429     3.0224     2.5559 H       
  57 H57           -5.6403     5.0488     1.6585 H       
  58 H58           -6.0714     4.3151     3.9680 H       
  59 H59           -4.3570     4.5564     4.3849 H       
  60 H60           -6.2582     6.6452     3.5396 H       
  61 H61           -4.5007     8.1949     3.9358 H       
  62 H62           -3.4345     6.8349     4.3659 H       
  63 H63           -4.7150     7.3343     1.6395 H       
  64 H64           -2.9938     7.5378     2.0483 H       
@<TRIPOS>BOND
   1    1    2 ar
   2    1    7 1
   3    1    6 ar
   4    2    3 ar
   5    2   33 1
   6    3    4 ar
   7    3   34 1
   8    4    5 ar
   9    4   10 1
  10    5    6 ar
  11    5   12 1
  12    6   35 1
  13    7    8 1
  14    7    9 2
  15    8   36 1
  16   10   11 2
  17   10   19 1
  18   11   12 1
  19   11   13 1
  20   12   25 1
  21   13   14 ar
  22   13   18 ar
  23   14   15 ar
  24   14   37 1
  25   15   16 ar
  26   15   38 1
  27   16   17 ar
  28   16   39 1
  29   17   18 ar
  30   17   40 1
  31   18   41 1
  32   19   20 1
  33   19   24 1
  34   19   42 1
  35   20   21 1
  36   20   43 1
  37   20   44 1
  38   21   22 1
  39   21   45 1
  40   21   46 1
  41   22   23 1
  42   22   47 1
  43   22   48 1
  44   23   24 1
  45   23   49 1
  46   23   50 1
  47   24   51 1
  48   24   52 1
  49   25   26 1
  50   25   53 1
  51   25   54 1
  52   26   27 1
  53   26   55 1
  54   26   56 1
  55   27   28 1
  56   27   32 1
  57   27   57 1
  58   28   29 1
  59   28   58 1
  60   28   59 1
  61   29   30 1
  62   29   60 1
  63   30   31 1
  64   30   61 1
  65   30   62 1
  66   31   32 1
  67   31   63 1
  68   31   64 1

#	End of record

