#	Name: ASD01884147
#	Creating user name:	WinNT
#	Creation time:	15. 06. 2019 19:47

#	Modifying user name:	WinNT
#	Modification time:	15. 06. 2019 19:47

#	Program:	/corina/corina34_cracker 3.40 0067  02.08.2006

@<TRIPOS>MOLECULE
ASD01884147
  24   26    0    0    0
SMALL
NO_CHARGES


@<TRIPOS>ATOM
   1 C1            -0.0164     1.3577     0.0095 C.2     
   2 C2             0.0021    -0.0041     0.0020 C.2     
   3 C3            -1.2093    -0.7177     0.0102 C.2     
   4 C4            -2.3878    -0.0609     0.0255 C.2     
   5 N5            -2.4214     1.3029     0.0327 N.pl3   
   6 C6            -1.2553     2.0282     0.0308 C.2     
   7 N7            -1.5986     3.3060     0.0384 N.2     
   8 Cl8            1.4688     2.2564     0.0002 Cl      
   9 I9             1.8278    -1.0312    -0.0223 I       
  10 C10           -3.4288     2.2177     0.0464 C.2     
  11 N11           -2.8815     3.4058     0.0446 N.2     
  12 C12           -4.9054     1.9168     0.0582 C.3     
  13 C13           -5.3921     1.8078     1.5046 C.3     
  14 C14           -6.8935     1.6211     1.7325 C.3     
  15 C15           -5.9331     0.4536     1.9677 C.3     
  16 H16           -1.1964    -1.7976     0.0040 H       
  17 H17           -3.3122    -0.6194     0.0317 H       
  18 H18           -5.4437     2.7189    -0.4468 H       
  19 H19           -5.0884     0.9748    -0.4588 H       
  20 H20           -4.8432     2.4062     2.2317 H       
  21 H21           -7.3323     2.0964     2.6099 H       
  22 H22           -7.5345     1.5760     0.8521 H       
  23 H23           -5.9422    -0.3596     1.2419 H       
  24 H24           -5.7399     0.1608     2.9997 H       
@<TRIPOS>BOND
   1    1    2 2
   2    1    8 1
   3    1    6 1
   4    2    3 1
   5    2    9 1
   6    3    4 2
   7    3   16 1
   8    4    5 1
   9    4   17 1
  10    5    6 1
  11    5   10 1
  12    6    7 2
  13    7   11 1
  14   10   11 2
  15   10   12 1
  16   12   13 1
  17   12   18 1
  18   12   19 1
  19   13   14 1
  20   13   15 1
  21   13   20 1
  22   14   15 1
  23   14   21 1
  24   14   22 1
  25   15   23 1
  26   15   24 1

#	End of record

