#	Name: ASD01120328
#	Creating user name:	WinNT
#	Creation time:	15. 06. 2019 18:59

#	Modifying user name:	WinNT
#	Modification time:	15. 06. 2019 18:59

#	Program:	/corina/corina34_cracker 3.40 0067  02.08.2006

@<TRIPOS>MOLECULE
ASD01120328
  32   34    0    0    0
SMALL
NO_CHARGES


@<TRIPOS>ATOM
   1 N1             0.0175    -1.1399    -0.0042 N.1     
   2 C2             0.0021    -0.0041     0.0020 C.1     
   3 C3            -0.0173     1.4278     0.0099 C.ar    
   4 C4             1.1834     2.1435     0.0023 C.ar    
   5 C5             1.1639     3.5194     0.0099 C.ar    
   6 C6            -0.0549     4.2007     0.0257 C.ar    
   7 C7            -1.2548     3.4865     0.0333 C.ar    
   8 C8            -1.2371     2.1106     0.0194 C.ar    
   9 C9            -0.0750     5.6806     0.0349 C.ar    
  10 C10            0.6946     6.3851     0.9499 C.ar    
  11 C11            0.6764     7.7709     0.9593 C.ar    
  12 C12           -0.1025     8.4728     0.0651 C.ar    
  13 C13           -0.8861     7.7947    -0.8651 C.ar    
  14 C14           -0.8729     6.3875    -0.8912 C.ar    
  15 C15           -1.7494     5.9835    -1.9219 C.2     
  16 C16           -2.2668     7.1067    -2.4901 C.2     
  17 N17           -1.7421     8.2159    -1.8555 N.pl3   
  18 C18           -3.2246     7.1351    -3.6031 C.2     
  19 O19           -3.6188     6.0944    -4.0925 O.2     
  20 O20           -3.6668     8.3156    -4.0821 O.3     
  21 N21           -0.1066     9.9528     0.0938 N.pl3   
  22 O22            0.5777    10.5481     0.9067 O.2     
  23 O23           -0.7943    10.5753    -0.6956 O.2     
  24 H24            2.1262     1.6167    -0.0092 H       
  25 H25            2.0915     4.0725     0.0040 H       
  26 H26           -2.1971     4.0141     0.0459 H       
  27 H27           -2.1652     1.5583     0.0250 H       
  28 H28            1.3103     5.8509     1.6584 H       
  29 H29            1.2799     8.3074     1.6766 H       
  30 H30           -1.9698     4.9657    -2.2080 H       
  31 H31           -1.9484     9.1394    -2.0690 H       
  32 H32           -4.2964     8.2837    -4.8154 H       
@<TRIPOS>BOND
   1    1    2 3
   2    2    3 1
   3    3    4 ar
   4    3    8 ar
   5    4    5 ar
   6    4   24 1
   7    5    6 ar
   8    5   25 1
   9    6    7 ar
  10    6    9 1
  11    7    8 ar
  12    7   26 1
  13    8   27 1
  14    9   10 ar
  15    9   14 ar
  16   10   11 ar
  17   10   28 1
  18   11   12 ar
  19   11   29 1
  20   12   13 ar
  21   12   21 1
  22   13   14 ar
  23   13   17 1
  24   14   15 1
  25   15   16 2
  26   15   30 1
  27   16   17 1
  28   16   18 1
  29   17   31 1
  30   18   19 2
  31   18   20 1
  32   20   32 1
  33   21   22 2
  34   21   23 2

#	End of record

