#	Name: ASD03330440
#	Creating user name:	WinNT
#	Creation time:	15. 06. 2019 20:37

#	Modifying user name:	WinNT
#	Modification time:	15. 06. 2019 20:37

#	Program:	/corina/corina34_cracker 3.40 0067  02.08.2006

@<TRIPOS>MOLECULE
ASD03330440
  52   56    0    0    0
SMALL
NO_CHARGES


@<TRIPOS>ATOM
   1 C1            -0.1673     1.6642    -0.3122 C.3     
   2 N2            -0.1932     0.1976    -0.2221 N.3     
   3 C3             0.3559    -0.4213    -1.4422 C.3     
   4 C4             1.6819     0.2307    -1.7379 C.2     
   5 N5             2.0899     1.4042    -1.1730 N.pl3   
   6 C6             1.2795     2.1659    -0.2186 C.3     
   7 C7             2.6738    -0.1819    -2.5649 C.2     
   8 N8             3.6710     0.7303    -2.4981 N.2     
   9 C9             3.3259     1.6848    -1.6626 C.2     
  10 C10            4.1453     2.8656    -1.3143 C.ar    
  11 C11            2.6672    -1.4039    -3.3884 C.2     
  12 O12            1.7066    -2.1494    -3.3626 O.2     
  13 C13            3.7190    -2.9102    -4.9890 C.3     
  14 N14            3.7256    -1.6954    -4.1702 N.am    
  15 C15           -1.5524    -0.2893     0.0492 C.3     
  16 C16            4.3038     3.2393     0.0208 C.ar    
  17 C17            5.0693     4.3410     0.3400 C.ar    
  18 C18            5.6813     5.0776    -0.6609 C.ar    
  19 C19            5.5288     4.7140    -1.9874 C.ar    
  20 C20            4.7688     3.6084    -2.3202 C.ar    
  21 F21            4.6200     3.2537    -3.6153 F       
  22 Cl22           6.6432     6.4629    -0.2495 Cl      
  23 C23            5.0088    -3.0014    -5.7630 C.ar    
  24 C24            6.0958    -3.6538    -5.2139 C.ar    
  25 C25            5.0977    -2.4361    -7.0231 C.ar    
  26 C26            6.2756    -2.5149    -7.7405 C.ar    
  27 C27            7.3732    -3.1629    -7.1957 C.ar    
  28 C28            7.2820    -3.7379    -5.9262 C.ar    
  29 N29            8.6659    -3.4043    -7.6549 N.am    
  30 C30            9.3318    -4.0898    -6.7065 C.2     
  31 N31            8.5234    -4.3068    -5.6519 N.am    
  32 O32           10.4879    -4.4600    -6.7911 O.2     
  33 H33           -0.5982     1.9763    -1.2635 H       
  34 H34           -0.7512     2.0877     0.5051 H       
  35 H35            0.4983    -1.4899    -1.2814 H       
  36 H36           -0.3275    -0.2613    -2.2762 H       
  37 H37            1.3179     3.2264    -0.4675 H       
  38 H38            1.6580     2.0106     0.7916 H       
  39 H39            3.6202    -3.7829    -4.3434 H       
  40 H40            2.8800    -2.8755    -5.6839 H       
  41 H41            4.4917    -1.1008    -4.1908 H       
  42 H42           -2.2313     0.0820    -0.7184 H       
  43 H43           -1.5562    -1.3793     0.0413 H       
  44 H44           -1.8781     0.0681     1.0261 H       
  45 H45            3.8273     2.6668     0.8029 H       
  46 H46            5.1918     4.6306     1.3732 H       
  47 H47            6.0078     5.2925    -2.7635 H       
  48 H48            6.0216    -4.0969    -4.2318 H       
  49 H49            4.2423    -1.9316    -7.4476 H       
  50 H50            6.3411    -2.0729    -8.7238 H       
  51 H51            9.0252    -3.1260    -8.5118 H       
  52 H52            8.7649    -4.7778    -4.8391 H       
@<TRIPOS>BOND
   1    1    2 1
   2    1    6 1
   3    1   33 1
   4    1   34 1
   5    2    3 1
   6    2   15 1
   7    3    4 1
   8    3   35 1
   9    3   36 1
  10    4    5 1
  11    4    7 2
  12    5    6 1
  13    5    9 1
  14    6   37 1
  15    6   38 1
  16    7    8 1
  17    7   11 1
  18    8    9 2
  19    9   10 1
  20   10   16 ar
  21   10   20 ar
  22   11   12 2
  23   11   14 am
  24   13   14 1
  25   13   23 1
  26   13   39 1
  27   13   40 1
  28   14   41 1
  29   15   42 1
  30   15   43 1
  31   15   44 1
  32   16   17 ar
  33   16   45 1
  34   17   18 ar
  35   17   46 1
  36   18   19 ar
  37   18   22 1
  38   19   20 ar
  39   19   47 1
  40   20   21 1
  41   23   24 ar
  42   23   25 ar
  43   24   28 ar
  44   24   48 1
  45   25   26 ar
  46   25   49 1
  47   26   27 ar
  48   26   50 1
  49   27   28 ar
  50   27   29 1
  51   28   31 1
  52   29   30 am
  53   29   51 1
  54   30   31 am
  55   30   32 2
  56   31   52 1

#	End of record

