#	Name: ASD04590109
#	Creating user name:	WinNT
#	Creation time:	15. 06. 2019 20:50

#	Modifying user name:	WinNT
#	Modification time:	15. 06. 2019 20:50

#	Program:	/corina/corina34_cracker 3.40 0067  02.08.2006

@<TRIPOS>MOLECULE
ASD04590109
  50   53    0    0    0
SMALL
NO_CHARGES


@<TRIPOS>ATOM
   1 N1            -0.0652     1.2612     0.2274 N.pl3   
   2 N2            -0.0059    -0.0069     0.0454 N.2     
   3 C3             1.1032    -0.4986     0.5615 C.2     
   4 C4             1.8213     0.6431     1.1420 C.2     
   5 C5             1.0164     1.7180     0.8887 C.2     
   6 C6             1.5349    -1.9095     0.5570 C.2     
   7 O7             2.5896    -2.2242     1.0740 O.2     
   8 N8             0.7603    -2.8493    -0.0201 N.am    
   9 C9             1.2197    -4.1686    -0.1239 C.ar    
  10 C10            0.3262    -5.2258    -0.0118 C.ar    
  11 C11            0.7789    -6.5260    -0.1141 C.ar    
  12 C12            2.1280    -6.7767    -0.3291 C.ar    
  13 C13            3.0215    -5.7193    -0.4412 C.ar    
  14 C14            2.5677    -4.4190    -0.3445 C.ar    
  15 C15            3.1268     0.6319     1.8464 C.ar    
  16 C16            4.1281     1.5283     1.4776 C.ar    
  17 C17            3.3545    -0.2712     2.8831 C.ar    
  18 C18            4.5710    -0.2771     3.5349 C.ar    
  19 C19            5.5632     0.6113     3.1611 C.ar    
  20 C20            5.3408     1.5134     2.1363 C.ar    
  21 N21            2.5869    -8.0943    -0.4323 N.3     
  22 C22            4.0386    -8.1302    -0.6579 C.3     
  23 C23            4.5120    -9.5854    -0.6854 C.3     
  24 N24            3.7989   -10.3098    -1.7467 N.3     
  25 C25            2.3472   -10.2739    -1.5210 C.3     
  26 C26            1.8737    -8.8187    -1.4935 C.3     
  27 C27            4.2807   -11.6933    -1.8550 C.3     
  28 H28           -0.7957     1.8222    -0.0768 H       
  29 H29            1.2111     2.7433     1.1666 H       
  30 H30           -0.1153    -2.6123    -0.3636 H       
  31 H31           -0.7227    -5.0308     0.1557 H       
  32 H32            0.0841    -7.3482    -0.0265 H       
  33 H33            4.0705    -5.9142    -0.6084 H       
  34 H34            3.2618    -3.5966    -0.4361 H       
  35 H35            3.9556     2.2330     0.6776 H       
  36 H36            2.5803    -0.9648     3.1762 H       
  37 H37            4.7486    -0.9765     4.3384 H       
  38 H38            6.5135     0.6034     3.6741 H       
  39 H39            6.1190     2.2049     1.8486 H       
  40 H40            4.2703    -7.6543    -1.6108 H       
  41 H41            4.5450    -7.5981     0.1474 H       
  42 H42            5.5838    -9.6154    -0.8816 H       
  43 H43            4.3048   -10.0534     0.2769 H       
  44 H44            1.8407   -10.8059    -2.3263 H       
  45 H45            2.1154   -10.7498    -0.5682 H       
  46 H46            0.8020    -8.7887    -1.2974 H       
  47 H47            2.0809    -8.3506    -2.4558 H       
  48 H48            4.1180   -12.2098    -0.9091 H       
  49 H49            3.7364   -12.2066    -2.6477 H       
  50 H50            5.3454   -11.6900    -2.0887 H       
@<TRIPOS>BOND
   1    1    2 1
   2    1    5 1
   3    1   28 1
   4    2    3 2
   5    3    4 1
   6    3    6 1
   7    4    5 2
   8    4   15 1
   9    5   29 1
  10    6    7 2
  11    6    8 am
  12    8    9 1
  13    8   30 1
  14    9   10 ar
  15    9   14 ar
  16   10   11 ar
  17   10   31 1
  18   11   12 ar
  19   11   32 1
  20   12   13 ar
  21   12   21 1
  22   13   14 ar
  23   13   33 1
  24   14   34 1
  25   15   16 ar
  26   15   17 ar
  27   16   20 ar
  28   16   35 1
  29   17   18 ar
  30   17   36 1
  31   18   19 ar
  32   18   37 1
  33   19   20 ar
  34   19   38 1
  35   20   39 1
  36   21   22 1
  37   21   26 1
  38   22   23 1
  39   22   40 1
  40   22   41 1
  41   23   24 1
  42   23   42 1
  43   23   43 1
  44   24   25 1
  45   24   27 1
  46   25   26 1
  47   25   44 1
  48   25   45 1
  49   26   46 1
  50   26   47 1
  51   27   48 1
  52   27   49 1
  53   27   50 1

#	End of record

