#	Name: ASD01884268
#	Creating user name:	WinNT
#	Creation time:	15. 06. 2019 19:47

#	Modifying user name:	WinNT
#	Modification time:	15. 06. 2019 19:47

#	Program:	/corina/corina34_cracker 3.40 0067  02.08.2006

@<TRIPOS>MOLECULE
ASD01884268
  52   56    0    0    0
SMALL
NO_CHARGES


@<TRIPOS>ATOM
   1 C1            -0.2223     1.7968     0.2131 C.2     
   2 C2            -0.4298     0.4760     0.3909 C.2     
   3 C3            -1.7946    -0.0566     0.4576 C.2     
   4 C4            -2.7899     0.8180     0.7369 C.2     
   5 C5            -2.4694     2.2656     1.0854 C.3     
   6 C6            -1.3880     2.7564     0.1350 C.3     
   7 N7            -4.1303     0.5842     0.7549 N.am    
   8 C8            -4.9785     1.6103     0.6238 C.2     
   9 S9            -4.0524     3.1114     0.8083 S.3     
  10 Br10          -0.8083     4.5596     0.6618 Br      
  11 C11            1.1529     2.3099     0.1000 C.ar    
  12 O12           -6.1737     1.5282     0.4146 O.2     
  13 C13           -4.6402    -0.7797     0.9162 C.3     
  14 C14           -4.8286    -1.0811     2.4043 C.3     
  15 C15           -5.4668    -2.4204     2.7786 C.3     
  16 C16           -3.9722    -2.1928     3.0139 C.3     
  17 F17           -3.0767    -2.8558     2.1679 F       
  18 F18           -3.5442    -2.0274     4.3355 F       
  19 C19            1.5902     2.8888    -1.0955 C.ar    
  20 C20            2.8797     3.3685    -1.1979 C.ar    
  21 C21            3.7433     3.2796    -0.1221 C.ar    
  22 C22            3.3194     2.7055     1.0716 C.ar    
  23 C23            2.0248     2.2257     1.1888 C.ar    
  24 N24            4.1973     2.6178     2.1547 N.3     
  25 C25            4.0080     1.3615     2.8835 C.3     
  26 C26            4.0789     3.7917     3.0228 C.3     
  27 C27            5.3037     3.8894     3.9375 C.3     
  28 C28            5.2220     1.0889     3.7770 C.3     
  29 S29            5.3495     2.4207     5.0082 S.o2    
  30 O30            6.6264     2.3479     5.6275 O.2     
  31 O31            4.1801     2.4086     5.8153 O.2     
  32 H32            0.4132    -0.1927     0.4842 H       
  33 H33           -1.9977    -1.1041     0.2905 H       
  34 H34           -2.1430     2.3562     2.1214 H       
  35 H35           -1.7739     2.7756    -0.8842 H       
  36 H36           -5.5971    -0.8730     0.4026 H       
  37 H37           -3.9285    -1.4865     0.4896 H       
  38 H38           -5.0590    -0.2208     3.0328 H       
  39 H39           -6.1166    -2.4413     3.6535 H       
  40 H40           -5.7523    -3.0867     1.9646 H       
  41 H41            0.9189     2.9599    -1.9385 H       
  42 H42            3.2158     3.8149    -2.1221 H       
  43 H43            4.7514     3.6572    -0.2091 H       
  44 H44            1.6937     1.7799     2.1151 H       
  45 H45            3.1126     1.4325     3.5011 H       
  46 H46            3.8914     0.5441     2.1718 H       
  47 H47            4.0124     4.6903     2.4094 H       
  48 H48            3.1788     3.7027     3.6311 H       
  49 H49            6.2096     3.9294     3.3326 H       
  50 H50            5.2310     4.7873     4.5512 H       
  51 H51            5.0952     0.1326     4.2845 H       
  52 H52            6.1260     1.0656     3.1685 H       
@<TRIPOS>BOND
   1    1    2 2
   2    1   11 1
   3    1    6 1
   4    2    3 1
   5    2   32 1
   6    3    4 2
   7    3   33 1
   8    4    7 1
   9    4    5 1
  10    5    6 1
  11    5    9 1
  12    5   34 1
  13    6   10 1
  14    6   35 1
  15    7    8 am
  16    7   13 1
  17    8    9 1
  18    8   12 2
  19   11   19 ar
  20   11   23 ar
  21   13   14 1
  22   13   36 1
  23   13   37 1
  24   14   15 1
  25   14   16 1
  26   14   38 1
  27   15   16 1
  28   15   39 1
  29   15   40 1
  30   16   17 1
  31   16   18 1
  32   19   20 ar
  33   19   41 1
  34   20   21 ar
  35   20   42 1
  36   21   22 ar
  37   21   43 1
  38   22   23 ar
  39   22   24 1
  40   23   44 1
  41   24   25 1
  42   24   26 1
  43   25   28 1
  44   25   45 1
  45   25   46 1
  46   26   27 1
  47   26   47 1
  48   26   48 1
  49   27   29 1
  50   27   49 1
  51   27   50 1
  52   28   29 1
  53   28   51 1
  54   28   52 1
  55   29   30 2
  56   29   31 2

#	End of record

