#	Name: ASD01230492
#	Creating user name:	WinNT
#	Creation time:	15. 06. 2019 19:14

#	Modifying user name:	WinNT
#	Modification time:	15. 06. 2019 19:14

#	Program:	/corina/corina34_cracker 3.40 0067  02.08.2006

@<TRIPOS>MOLECULE
ASD01230492
  41   44    0    0    0
SMALL
NO_CHARGES


@<TRIPOS>ATOM
   1 S1             0.0750     1.7728     1.3219 S.o2    
   2 N2            -0.1062     0.2572     0.6832 N.am    
   3 C3             0.6435    -0.1828    -0.2987 C.2     
   4 N4             1.6424     0.5203    -0.9105 N.pl3   
   5 C5             1.9743     1.9123    -0.5951 C.3     
   6 C6             1.7991     2.1810     0.9025 C.3     
   7 C7             0.3606    -1.5572    -0.7614 C.2     
   8 C8             1.1372    -2.1015    -1.7638 C.2     
   9 C9             2.1746    -1.3325    -2.3129 C.2     
  10 C10            2.3984    -0.0779    -1.8879 C.2     
  11 C11           -0.7413    -2.3401    -0.1573 C.ar    
  12 C12           -0.4600    -3.4969     0.5705 C.ar    
  13 C13           -1.4886    -4.2232     1.1321 C.ar    
  14 C14           -2.8032    -3.8048     0.9741 C.ar    
  15 C15           -3.0870    -2.6541     0.2504 C.ar    
  16 C16           -2.0631    -1.9198    -0.3095 C.ar    
  17 O17           -3.8145    -4.5234     1.5286 O.3     
  18 C18           -4.3947    -5.4944     0.7755 C.ar    
  19 C19           -3.8825    -5.8017    -0.4769 C.ar    
  20 C20           -4.4738    -6.7895    -1.2402 C.ar    
  21 C21           -5.5752    -7.4719    -0.7572 C.ar    
  22 C22           -6.0879    -7.1673     0.4903 C.ar    
  23 C23           -5.4968    -6.1843     1.2601 C.ar    
  24 Cl24           0.8361    -3.7126    -2.3360 Cl      
  25 O25           -0.8291     2.5826     0.5830 O.2     
  26 O26           -0.0735     1.5903     2.7233 O.2     
  27 H27            3.0089     2.1079    -0.8769 H       
  28 H28            1.3174     2.5750    -1.1585 H       
  29 H29            1.9948     3.2317     1.1167 H       
  30 H30            2.4798     1.5511     1.4753 H       
  31 H31            2.8000    -1.7539    -3.0860 H       
  32 H32            3.2067     0.4831    -2.3333 H       
  33 H33            0.5622    -3.8231     0.6935 H       
  34 H34           -1.2717    -5.1189     1.6953 H       
  35 H35           -4.1107    -2.3319     0.1293 H       
  36 H36           -2.2842    -1.0227    -0.8687 H       
  37 H37           -3.0225    -5.2688    -0.8548 H       
  38 H38           -4.0758    -7.0288    -2.2153 H       
  39 H39           -6.0361    -8.2438    -1.3556 H       
  40 H40           -6.9486    -7.7013     0.8649 H       
  41 H41           -5.8947    -5.9501     2.2364 H       
@<TRIPOS>BOND
   1    1    2 am
   2    1    6 1
   3    1   25 2
   4    1   26 2
   5    2    3 2
   6    3    4 1
   7    3    7 1
   8    4    5 1
   9    4   10 1
  10    5    6 1
  11    5   27 1
  12    5   28 1
  13    6   29 1
  14    6   30 1
  15    7    8 2
  16    7   11 1
  17    8    9 1
  18    8   24 1
  19    9   10 2
  20    9   31 1
  21   10   32 1
  22   11   12 ar
  23   11   16 ar
  24   12   13 ar
  25   12   33 1
  26   13   14 ar
  27   13   34 1
  28   14   15 ar
  29   14   17 1
  30   15   16 ar
  31   15   35 1
  32   16   36 1
  33   17   18 1
  34   18   19 ar
  35   18   23 ar
  36   19   20 ar
  37   19   37 1
  38   20   21 ar
  39   20   38 1
  40   21   22 ar
  41   21   39 1
  42   22   23 ar
  43   22   40 1
  44   23   41 1

#	End of record

