#	Name: ASD01911114
#	Creating user name:	WinNT
#	Creation time:	15. 06. 2019 19:57

#	Modifying user name:	WinNT
#	Modification time:	15. 06. 2019 19:57

#	Program:	/corina/corina34_cracker 3.40 0067  02.08.2006

@<TRIPOS>MOLECULE
ASD01911114
  47   50    0    0    0
SMALL
NO_CHARGES


@<TRIPOS>ATOM
   1 C1             0.0575     1.4056    -0.0555 C.2     
   2 O2             0.0608     0.1915    -0.1247 O.2     
   3 N3             1.2227     2.0807    -0.0009 N.am    
   4 C4             2.5050     1.3638    -0.0241 C.3     
   5 C5             3.3394     1.8066     1.1819 C.3     
   6 C6             3.4715     3.3313     1.1736 C.3     
   7 C7             2.0835     3.9659     1.2873 C.3     
   8 C8             1.2349     3.5478     0.0768 C.3     
   9 O9             5.6003     1.3451     0.1201 O.3     
  10 N10            6.6027     0.7061     0.3613 N.2     
  11 C11            6.4723     0.0768     1.4967 C.2     
  12 N12            5.2511     0.3784     1.9840 N.2     
  13 C13            4.7088     1.1827     1.1025 C.2     
  14 O14            7.3934    -0.7306     2.0789 O.3     
  15 C15            8.5199    -1.0232     1.3772 C.ar    
  16 C16            8.6343    -0.6306     0.0514 C.ar    
  17 C17            9.7804    -0.9293    -0.6597 C.ar    
  18 C18           10.8127    -1.6193    -0.0514 C.ar    
  19 C19           10.7010    -2.0121     1.2697 C.ar    
  20 C20            9.5597    -1.7100     1.9871 C.ar    
  21 O21           -3.0240     3.2140    -0.5798 O.3     
  22 N22           -3.0637     3.1547     0.6246 N.2     
  23 C23           -2.0375     2.5302     1.1219 C.2     
  24 C24           -1.2208     2.1393    -0.0374 C.2     
  25 C25           -1.9431     2.6273    -1.0990 C.2     
  26 C26           -1.5864     2.5212    -2.5593 C.3     
  27 C27           -1.7465     2.2639     2.5764 C.3     
  28 H28            2.3245     0.2902     0.0309 H       
  29 H29            3.0391     1.5999    -0.9444 H       
  30 H30            2.8472     1.4891     2.1012 H       
  31 H31            4.0854     3.6472     2.0170 H       
  32 H32            3.9414     3.6500     0.2431 H       
  33 H33            1.6031     3.6281     2.2055 H       
  34 H34            2.1801     5.0515     1.3048 H       
  35 H35            1.6676     3.9585    -0.8355 H       
  36 H36            0.2162     3.9158     0.1984 H       
  37 H37            7.8280    -0.0923    -0.4244 H       
  38 H38            9.8700    -0.6240    -1.6917 H       
  39 H39           11.7078    -1.8522    -0.6091 H       
  40 H40           11.5084    -2.5515     1.7423 H       
  41 H41            9.4749    -2.0128     3.0203 H       
  42 H42           -2.3576     3.0060    -3.1579 H       
  43 H43           -0.6284     3.0103    -2.7358 H       
  44 H44           -1.5152     1.4705    -2.8405 H       
  45 H45           -2.1878     1.3105     2.8666 H       
  46 H46           -0.6680     2.2270     2.7303 H       
  47 H47           -2.1731     3.0618     3.1843 H       
@<TRIPOS>BOND
   1    1    2 2
   2    1    3 am
   3    1   24 1
   4    3    4 1
   5    3    8 1
   6    4    5 1
   7    4   28 1
   8    4   29 1
   9    5    6 1
  10    5   13 1
  11    5   30 1
  12    6    7 1
  13    6   31 1
  14    6   32 1
  15    7    8 1
  16    7   33 1
  17    7   34 1
  18    8   35 1
  19    8   36 1
  20    9   10 1
  21    9   13 1
  22   10   11 2
  23   11   12 1
  24   11   14 1
  25   12   13 2
  26   14   15 1
  27   15   16 ar
  28   15   20 ar
  29   16   17 ar
  30   16   37 1
  31   17   18 ar
  32   17   38 1
  33   18   19 ar
  34   18   39 1
  35   19   20 ar
  36   19   40 1
  37   20   41 1
  38   21   22 1
  39   21   25 1
  40   22   23 2
  41   23   24 1
  42   23   27 1
  43   24   25 2
  44   25   26 1
  45   26   42 1
  46   26   43 1
  47   26   44 1
  48   27   45 1
  49   27   46 1
  50   27   47 1

#	End of record

