#	Name: ASD03540195
#	Creating user name:	WinNT
#	Creation time:	15. 06. 2019 20:42

#	Modifying user name:	WinNT
#	Modification time:	15. 06. 2019 20:42

#	Program:	/corina/corina34_cracker 3.40 0067  02.08.2006

@<TRIPOS>MOLECULE
ASD03540195
  62   66    0    0    0
SMALL
NO_CHARGES


@<TRIPOS>ATOM
   1 C1            -0.0234     8.5859     8.2991 C.3     
   2 C2             0.3138     9.9109     7.6125 C.3     
   3 C3             1.4288     9.0619     8.2263 C.3     
   4 C4            -0.7108     8.6514     9.6386 C.2     
   5 O5            -0.9748     9.7230    10.1304 O.2     
   6 O6            -1.0298     7.5193    10.2854 O.3     
   7 C7            -0.4211     7.4282     7.4201 C.ar    
   8 C8            -0.7365     6.2071     7.9861 C.ar    
   9 C9            -1.1013     5.1451     7.1798 C.ar    
  10 C10           -1.1511     5.3044     5.8075 C.ar    
  11 C11           -0.8366     6.5258     5.2416 C.ar    
  12 C12           -0.4760     7.5889     6.0482 C.ar    
  13 C13           -1.5478     4.1465     4.9285 C.3     
  14 C14           -2.3593     2.0416     5.8221 C.2     
  15 N15           -3.2621     1.2632     6.4357 N.am    
  16 C16           -4.4694     1.7734     6.8789 C.2     
  17 C17           -4.7468     3.1208     6.6814 C.2     
  18 C18           -3.7184     3.9377     5.9989 C.2     
  19 N19           -2.5740     3.3491     5.6048 N.am    
  20 C20           -5.9970     3.4988     7.1764 C.2     
  21 C21           -6.6916     2.4997     7.7456 C.2     
  22 S22           -5.7714     1.0074     7.6765 S.3     
  23 O23           -3.9045     5.1233     5.7977 O.2     
  24 O24           -1.3103     1.5487     5.4549 O.2     
  25 C25           -2.1040     4.6774     3.6057 C.3     
  26 C26           -8.0243     2.6363     8.3381 C.2     
  27 N27           -8.6321     1.5645     8.8841 N.am    
  28 O28           -8.5827     3.7178     8.3372 O.2     
  29 C29           -9.9650     1.7011     9.4767 C.3     
  30 C30          -10.4156     0.3667    10.0128 C.ar    
  31 C31          -10.1252     0.0129    11.3164 C.ar    
  32 C32          -10.5403    -1.2155    11.8093 C.ar    
  33 C33          -11.2463    -2.0859    10.9912 C.ar    
  34 C34          -11.5340    -1.7275     9.6888 C.ar    
  35 C35          -11.1240    -0.4999     9.2015 C.ar    
  36 O36          -10.2555    -1.5660    13.0910 O.3     
  37 C37          -10.7141    -2.8460    13.5307 C.3     
  38 H38            0.2480     9.9453     6.5251 H       
  39 H39            0.0385    10.8301     8.1297 H       
  40 H40            1.8871     9.4224     9.1472 H       
  41 H41            2.0966     8.5377     7.5426 H       
  42 H42           -1.4697     7.6118    11.1416 H       
  43 H43           -0.6976     6.0826     9.0582 H       
  44 H44           -1.3470     4.1909     7.6219 H       
  45 H45           -0.8752     6.6502     4.1695 H       
  46 H46           -0.2338     8.5442     5.6064 H       
  47 H47           -0.6750     3.5239     4.7318 H       
  48 H48           -3.0650     0.3232     6.5714 H       
  49 H49           -6.3731     4.5089     7.1078 H       
  50 H50           -1.3405     5.2707     3.1026 H       
  51 H51           -2.3909     3.8399     2.9699 H       
  52 H52           -2.9768     5.3000     3.8024 H       
  53 H53           -8.1871     0.7026     8.8848 H       
  54 H54           -9.9284     2.4259    10.2900 H       
  55 H55          -10.6672     2.0432     8.7164 H       
  56 H56           -9.5752     0.6920    11.9510 H       
  57 H57          -11.5702    -3.0430    11.3726 H       
  58 H58          -12.0832    -2.4048     9.0515 H       
  59 H59          -11.3542    -0.2195     8.1843 H       
  60 H60          -11.8001    -2.8905    13.4493 H       
  61 H61          -10.2710    -3.6240    12.9090 H       
  62 H62          -10.4210    -3.0000    14.5692 H       
@<TRIPOS>BOND
   1    1    2 1
   2    1    3 1
   3    1    4 1
   4    1    7 1
   5    2    3 1
   6    2   38 1
   7    2   39 1
   8    3   40 1
   9    3   41 1
  10    4    5 2
  11    4    6 1
  12    6   42 1
  13    7    8 ar
  14    7   12 ar
  15    8    9 ar
  16    8   43 1
  17    9   10 ar
  18    9   44 1
  19   10   11 ar
  20   10   13 1
  21   11   12 ar
  22   11   45 1
  23   12   46 1
  24   13   19 1
  25   13   25 1
  26   13   47 1
  27   14   15 am
  28   14   19 am
  29   14   24 2
  30   15   16 1
  31   15   48 1
  32   16   17 2
  33   16   22 1
  34   17   18 1
  35   17   20 1
  36   18   19 am
  37   18   23 2
  38   20   21 2
  39   20   49 1
  40   21   22 1
  41   21   26 1
  42   25   50 1
  43   25   51 1
  44   25   52 1
  45   26   27 am
  46   26   28 2
  47   27   29 1
  48   27   53 1
  49   29   30 1
  50   29   54 1
  51   29   55 1
  52   30   31 ar
  53   30   35 ar
  54   31   32 ar
  55   31   56 1
  56   32   33 ar
  57   32   36 1
  58   33   34 ar
  59   33   57 1
  60   34   35 ar
  61   34   58 1
  62   35   59 1
  63   36   37 1
  64   37   60 1
  65   37   61 1
  66   37   62 1

#	End of record

