#	Name: ASD01140599
#	Creating user name:	WinNT
#	Creation time:	15. 06. 2019 19:01

#	Modifying user name:	WinNT
#	Modification time:	15. 06. 2019 19:01

#	Program:	/corina/corina34_cracker 3.40 0067  02.08.2006

@<TRIPOS>MOLECULE
ASD01140599
  29   29    0    0    0
SMALL
NO_CHARGES


@<TRIPOS>ATOM
   1 O1            -0.2516     2.8273    -1.9587 O.2     
   2 C2            -0.0187     1.5281     0.0104 C.3     
   3 C3             0.0021    -0.0041     0.0020 C.3     
   4 C4            -2.0177    -0.1003    -1.4734 C.3     
   5 C5            -1.4279    -0.5310    -0.1294 C.3     
   6 C6             1.4152     2.0615    -0.0004 C.3     
   7 C7            -2.1145     1.4282    -1.5204 C.3     
   8 C8            -0.7479     2.0059    -1.2257 C.2     
   9 C9            -3.4137    -0.7052    -1.6353 C.3     
  10 C10            1.3904     3.5913     0.0081 C.3     
  11 C11            2.1566     1.5567     1.2391 C.3     
  12 H12           -0.5344     1.8823     0.9030 H       
  13 H13            0.5977    -0.3549    -0.8407 H       
  14 H14            0.4391    -0.3668     0.9323 H       
  15 H15           -1.3743    -0.4489    -2.2812 H       
  16 H16           -1.4199    -1.6193    -0.0693 H       
  17 H17           -2.0379    -0.1289     0.6795 H       
  18 H18            1.9264     1.7114    -0.8972 H       
  19 H19           -2.4395     1.7441    -2.5118 H       
  20 H20           -2.8272     1.7732    -0.7713 H       
  21 H21           -4.0570    -0.3559    -0.8276 H       
  22 H22           -3.8339    -0.3982    -2.5930 H       
  23 H23           -3.3448    -1.7925    -1.6005 H       
  24 H24            2.4119     3.9713     0.0004 H       
  25 H25            0.8622     3.9510    -0.8750 H       
  26 H26            0.8792     3.9414     0.9049 H       
  27 H27            2.1743     0.4668     1.2331 H       
  28 H28            3.1782     1.9367     1.2314 H       
  29 H29            1.6454     1.9068     2.1359 H       
@<TRIPOS>BOND
   1    1    8 2
   2    2    3 1
   3    2    6 1
   4    2    8 1
   5    2   12 1
   6    3    5 1
   7    3   13 1
   8    3   14 1
   9    4    5 1
  10    4    7 1
  11    4    9 1
  12    4   15 1
  13    5   16 1
  14    5   17 1
  15    6   10 1
  16    6   11 1
  17    6   18 1
  18    7    8 1
  19    7   19 1
  20    7   20 1
  21    9   21 1
  22    9   22 1
  23    9   23 1
  24   10   24 1
  25   10   25 1
  26   10   26 1
  27   11   27 1
  28   11   28 1
  29   11   29 1

#	End of record

