#	Name: ASD03082420
#	Creating user name:	WinNT
#	Creation time:	15. 06. 2019 20:27

#	Modifying user name:	WinNT
#	Modification time:	15. 06. 2019 20:27

#	Program:	/corina/corina34_cracker 3.40 0067  02.08.2006

@<TRIPOS>MOLECULE
ASD03082420
  60   63    0    0    0
SMALL
NO_CHARGES


@<TRIPOS>ATOM
   1 C1             3.0959     1.9468     0.8293 C.ar    
   2 C2             4.1123     2.5275     0.0823 C.ar    
   3 C3             5.3910     1.9951     0.1243 C.ar    
   4 C4             5.6538     0.8832     0.9125 C.ar    
   5 C5             4.6409     0.3056     1.6561 C.ar    
   6 Cl6            4.9736    -1.0847     2.6411 Cl      
   7 N7             1.8057     2.4806     0.7888 N.pl3   
   8 C8             1.6195     3.8406     0.5187 C.2     
   9 C9             0.3828     4.4825     0.3346 C.2     
  10 N10            2.5693     4.7384     0.3990 N.2     
  11 N11            1.9705     5.9759     0.1298 N.pl3   
  12 C12            0.6250     5.7908     0.0955 C.2     
  13 C13            2.6393     7.1881    -0.0650 C.ar    
  14 C14            2.1715     8.3640     0.5182 C.ar    
  15 C15            3.7942     7.2506    -0.8426 C.ar    
  16 C16            4.4250     8.4661    -1.0100 C.ar    
  17 N17            3.9481     9.5591    -0.4448 N.ar    
  18 C18            2.8606     9.5400     0.3020 C.ar    
  19 C19            5.6745     8.5466    -1.8486 C.3     
  20 H20            2.5031    10.4570     0.7468 H       
  21 C21           -0.4118     6.8535    -0.1632 C.3     
  22 C22           -0.9954     7.3314     1.1679 C.3     
  23 C23            3.3625     0.8308     1.6126 C.ar    
  24 C24           -1.9488     8.5013     0.9161 C.3     
  25 O25           -2.4938     8.9477     2.1593 O.3     
  26 C26           -3.4023    10.0438     2.0355 C.3     
  27 C27           -3.9127    10.4297     3.3999 C.ar    
  28 C28           -3.2369    11.3748     4.1488 C.ar    
  29 C29           -3.7050    11.7288     5.4004 C.ar    
  30 C30           -4.8493    11.1380     5.9028 C.ar    
  31 C31           -5.5257    10.1936     5.1536 C.ar    
  32 C32           -5.0599     9.8427     3.9002 C.ar    
  33 O33            6.3874     2.5612    -0.6061 O.3     
  34 C34            7.6806     1.9603    -0.5149 C.3     
  35 H35            3.9065     3.3924    -0.5309 H       
  36 H36            6.6504     0.4684     0.9448 H       
  37 H37            1.0388     1.9084     0.9479 H       
  38 H38           -0.5891     4.0134     0.3764 H       
  39 H39            1.2820     8.3553     1.1305 H       
  40 H40            4.1902     6.3597    -1.3074 H       
  41 H41            5.4041     8.7478    -2.8852 H       
  42 H42            6.3106     9.3499    -1.4766 H       
  43 H43            6.2127     7.6005    -1.7905 H       
  44 H44            0.0509     7.6943    -0.6799 H       
  45 H45           -1.2086     6.4407    -0.7820 H       
  46 H46           -1.5401     6.5140     1.6402 H       
  47 H47           -0.1872     7.6560     1.8233 H       
  48 H48            2.5730     0.3784     2.1943 H       
  49 H49           -1.4040     9.3187     0.4437 H       
  50 H50           -2.7570     8.1767     0.2607 H       
  51 H51           -2.8877    10.8932     1.5864 H       
  52 H52           -4.2407     9.7512     1.4033 H       
  53 H53           -2.3429    11.8364     3.7562 H       
  54 H54           -3.1766    12.4667     5.9858 H       
  55 H55           -5.2147    11.4141     6.8809 H       
  56 H56           -6.4195     9.7317     5.5463 H       
  57 H57           -5.5884     9.1049     3.3148 H       
  58 H58            8.3812     2.5081    -1.1451 H       
  59 H59            8.0228     1.9898     0.5196 H       
  60 H60            7.6244     0.9244    -0.8495 H       
@<TRIPOS>BOND
   1    1    2 ar
   2    1    7 1
   3    1   23 ar
   4    2    3 ar
   5    2   35 1
   6    3    4 ar
   7    3   33 1
   8    4    5 ar
   9    4   36 1
  10    5   23 ar
  11    5    6 1
  12    7    8 1
  13    7   37 1
  14    8    9 1
  15    8   10 2
  16    9   12 2
  17    9   38 1
  18   10   11 1
  19   11   12 1
  20   11   13 1
  21   12   21 1
  22   13   14 ar
  23   13   15 ar
  24   14   18 ar
  25   14   39 1
  26   15   16 ar
  27   15   40 1
  28   16   17 ar
  29   16   19 1
  30   17   18 ar
  31   18   20 1
  32   19   41 1
  33   19   42 1
  34   19   43 1
  35   21   22 1
  36   21   44 1
  37   21   45 1
  38   22   24 1
  39   22   46 1
  40   22   47 1
  41   23   48 1
  42   24   25 1
  43   24   49 1
  44   24   50 1
  45   25   26 1
  46   26   27 1
  47   26   51 1
  48   26   52 1
  49   27   28 ar
  50   27   32 ar
  51   28   29 ar
  52   28   53 1
  53   29   30 ar
  54   29   54 1
  55   30   31 ar
  56   30   55 1
  57   31   32 ar
  58   31   56 1
  59   32   57 1
  60   33   34 1
  61   34   58 1
  62   34   59 1
  63   34   60 1

#	End of record

