#	Name: ASD01811213
#	Creating user name:	WinNT
#	Creation time:	15. 06. 2019 19:26

#	Modifying user name:	WinNT
#	Modification time:	15. 06. 2019 19:26

#	Program:	/corina/corina34_cracker 3.40 0067  02.08.2006

@<TRIPOS>MOLECULE
ASD01811213
  40   42    0    0    0
SMALL
NO_CHARGES


@<TRIPOS>ATOM
   1 C1             0.3630     1.4537     0.0430 C.2     
   2 C2             0.1867    -0.0130     0.0179 C.ar    
   3 C3             1.3009    -0.8507    -0.0788 C.ar    
   4 C4             1.1374    -2.2211    -0.1019 C.ar    
   5 C5            -0.1265    -2.7734    -0.0296 C.ar    
   6 C6            -1.2482    -1.9481     0.0674 C.ar    
   7 C7            -1.0908    -0.5645     0.0965 C.ar    
   8 O8             1.4793     1.9307     0.0851 O.2     
   9 O9            -0.7142     2.2621     0.0136 O.3     
  10 C10            2.6836    -0.2568    -0.1587 C.3     
  11 N11           -4.1651    -3.9765     0.2726 N.2     
  12 N12           -2.8901    -3.8220     0.2200 N.2     
  13 C13           -2.6011    -2.5420     0.1447 C.2     
  14 N14           -3.7893    -1.8629     0.1518 N.pl3   
  15 C15           -4.7591    -2.8139     0.2342 C.2     
  16 C16           -6.2458    -2.5704     0.2740 C.3     
  17 C17           -6.9227    -3.3640    -0.8454 C.3     
  18 C18           -0.2950    -4.2708    -0.0560 C.3     
  19 C19            0.0960    -4.9111    -1.3983 C.3     
  20 C20            0.7287    -6.0498    -0.5810 C.3     
  21 C21            0.8872    -5.0348     0.5633 C.3     
  22 F22           -0.1597    -7.0901    -0.2882 F       
  23 F23            1.9459    -6.5033    -1.1006 F       
  24 H24            2.0017    -2.8643    -0.1771 H       
  25 H25           -1.9551     0.0782     0.1759 H       
  26 H26           -0.5488     3.2147     0.0318 H       
  27 H27            3.0384    -0.0258     0.8458 H       
  28 H28            3.3597    -0.9720    -0.6272 H       
  29 H29            2.6529     0.6568    -0.7523 H       
  30 H30           -3.9143    -0.9020     0.1075 H       
  31 H31           -6.6410    -2.8920     1.2376 H       
  32 H32           -6.4436    -1.5074     0.1366 H       
  33 H33           -7.9980    -3.1878    -0.8166 H       
  34 H34           -6.5275    -3.0424    -1.8090 H       
  35 H35           -6.7248    -4.4270    -0.7080 H       
  36 H36           -1.2678    -4.5938     0.3150 H       
  37 H37           -0.7585    -5.2261    -1.9972 H       
  38 H38            0.8200    -4.3269    -1.9663 H       
  39 H39            1.8275    -4.4843     0.5315 H       
  40 H40            0.6714    -5.4495     1.5479 H       
@<TRIPOS>BOND
   1    1    2 1
   2    1    8 2
   3    1    9 1
   4    2    3 ar
   5    2    7 ar
   6    3    4 ar
   7    3   10 1
   8    4    5 ar
   9    4   24 1
  10    5    6 ar
  11    5   18 1
  12    6    7 ar
  13    6   13 1
  14    7   25 1
  15    9   26 1
  16   10   27 1
  17   10   28 1
  18   10   29 1
  19   11   12 1
  20   11   15 2
  21   12   13 2
  22   13   14 1
  23   14   15 1
  24   14   30 1
  25   15   16 1
  26   16   17 1
  27   16   31 1
  28   16   32 1
  29   17   33 1
  30   17   34 1
  31   17   35 1
  32   18   19 1
  33   18   21 1
  34   18   36 1
  35   19   20 1
  36   19   37 1
  37   19   38 1
  38   20   21 1
  39   20   22 1
  40   20   23 1
  41   21   39 1
  42   21   40 1

#	End of record

