#	Name: ASD03910007
#	Creating user name:	WinNT
#	Creation time:	15. 06. 2019 20:47

#	Modifying user name:	WinNT
#	Modification time:	15. 06. 2019 20:47

#	Program:	/corina/corina34_cracker 3.40 0067  02.08.2006

@<TRIPOS>MOLECULE
ASD03910007
  20   20    0    0    0
SMALL
NO_CHARGES


@<TRIPOS>ATOM
   1 C1            -0.0167     1.3786     0.0096 C.ar    
   2 C2             0.0021    -0.0041     0.0020 C.ar    
   3 C3            -1.1841    -0.7148     0.0095 C.ar    
   4 C4            -2.3920    -0.0454     0.0247 C.ar    
   5 C5            -2.4144     1.3435     0.0323 C.ar    
   6 C6            -1.2209     2.0543     0.0305 C.ar    
   7 C7             1.2785     2.1490     0.0014 C.3     
   8 C8            -1.1588    -2.2216     0.0007 C.3     
   9 N9            -3.6342     2.0237     0.0472 N.pl3   
  10 H10            0.9453    -0.5300    -0.0102 H       
  11 H11           -3.3180    -0.6011     0.0302 H       
  12 H12           -1.2349     3.1342     0.0364 H       
  13 H13            1.5810     2.3402    -1.0282 H       
  14 H14            1.1408     3.0969     0.5217 H       
  15 H15            2.0506     1.5670     0.5048 H       
  16 H16           -1.1426    -2.5907     1.0262 H       
  17 H17           -2.0475    -2.5970    -0.5067 H       
  18 H18           -0.2678    -2.5669    -0.5238 H       
  19 H19           -4.4669     1.5263     0.0522 H       
  20 H20           -3.6487     2.9936     0.0525 H       
@<TRIPOS>BOND
   1    1    2 ar
   2    1    7 1
   3    1    6 ar
   4    2    3 ar
   5    2   10 1
   6    3    4 ar
   7    3    8 1
   8    4    5 ar
   9    4   11 1
  10    5    6 ar
  11    5    9 1
  12    6   12 1
  13    7   13 1
  14    7   14 1
  15    7   15 1
  16    8   16 1
  17    8   17 1
  18    8   18 1
  19    9   19 1
  20    9   20 1

#	End of record

