#	Name: ASD01890467
#	Creating user name:	WinNT
#	Creation time:	15. 06. 2019 19:51

#	Modifying user name:	WinNT
#	Modification time:	15. 06. 2019 19:51

#	Program:	/corina/corina34_cracker 3.40 0067  02.08.2006

@<TRIPOS>MOLECULE
ASD01890467
  42   45    0    0    0
SMALL
NO_CHARGES


@<TRIPOS>ATOM
   1 C1            -0.0184     1.5028     0.0103 C.2     
   2 C2             0.0021    -0.0041     0.0020 C.3     
   3 C3             1.4513    -0.4944    -0.0145 C.3     
   4 O4             1.0235     2.1233     0.0037 O.2     
   5 C5             1.4695    -2.6652    -1.2111 C.ar    
   6 C6             1.4717    -2.0012    -0.0227 C.ar    
   7 C7             1.4931    -2.6939     1.1860 C.ar    
   8 C8             1.5119    -4.0547     1.2138 C.ar    
   9 C9             1.5099    -4.7747     0.0073 C.ar    
  10 C10            1.5295    -6.1800    -0.0042 C.ar    
  11 C11            1.5272    -6.8437    -1.1922 C.ar    
  12 C12            1.5061    -6.1508    -2.4014 C.ar    
  13 C13            1.4873    -4.7904    -2.4293 C.ar    
  14 C14            1.4881    -4.0701    -1.2224 C.ar    
  15 C15           -1.3153     3.6091     0.0279 C.ar    
  16 C16           -1.3018     2.2207     0.0203 C.ar    
  17 C17           -2.5093     1.4953     0.0216 C.ar    
  18 C18           -3.7051     2.1360     0.0303 C.ar    
  19 C19           -3.7513     3.5425     0.0381 C.ar    
  20 C20           -4.9782     4.2261     0.0461 C.ar    
  21 C21           -4.9927     5.5876     0.0531 C.ar    
  22 C22           -3.8060     6.3184     0.0521 C.ar    
  23 C23           -2.5980     5.6917     0.0444 C.ar    
  24 C24           -2.5431     4.2859     0.0374 C.ar    
  25 H25           -0.4983    -0.3791     0.8948 H       
  26 H26           -0.5153    -0.3696    -0.8850 H       
  27 H27            1.9516    -0.1193    -0.9073 H       
  28 H28            1.9686    -0.1289     0.8726 H       
  29 H29            1.4487    -2.1151    -2.1402 H       
  30 H30            1.4951    -2.1428     2.1149 H       
  31 H31            1.5287    -4.5782     2.1583 H       
  32 H32            1.5466    -6.7303     0.9250 H       
  33 H33            1.5423    -7.9236    -1.1982 H       
  34 H34            1.5051    -6.7019    -3.3302 H       
  35 H35            1.4718    -4.2669    -3.3738 H       
  36 H36           -0.3881     4.1628     0.0310 H       
  37 H37           -2.4828     0.4156     0.0153 H       
  38 H38           -4.6225     1.5661     0.0308 H       
  39 H39           -5.9065     3.6741     0.0463 H       
  40 H40           -5.9383     6.1093     0.0593 H       
  41 H41           -3.8456     7.3977     0.0571 H       
  42 H42           -1.6862     6.2706     0.0441 H       
@<TRIPOS>BOND
   1    1    2 1
   2    1    4 2
   3    1   16 1
   4    2    3 1
   5    2   25 1
   6    2   26 1
   7    3    6 1
   8    3   27 1
   9    3   28 1
  10    5    6 ar
  11    5   14 ar
  12    5   29 1
  13    6    7 ar
  14    7    8 ar
  15    7   30 1
  16    8    9 ar
  17    8   31 1
  18    9   10 ar
  19    9   14 ar
  20   10   11 ar
  21   10   32 1
  22   11   12 ar
  23   11   33 1
  24   12   13 ar
  25   12   34 1
  26   13   14 ar
  27   13   35 1
  28   15   16 ar
  29   15   24 ar
  30   15   36 1
  31   16   17 ar
  32   17   18 ar
  33   17   37 1
  34   18   19 ar
  35   18   38 1
  36   19   20 ar
  37   19   24 ar
  38   20   21 ar
  39   20   39 1
  40   21   22 ar
  41   21   40 1
  42   22   23 ar
  43   22   41 1
  44   23   24 ar
  45   23   42 1

#	End of record

