#	Name: ASD01530038
#	Creating user name:	WinNT
#	Creation time:	15. 06. 2019 19:22

#	Modifying user name:	WinNT
#	Modification time:	15. 06. 2019 19:22

#	Program:	/corina/corina34_cracker 3.40 0067  02.08.2006

@<TRIPOS>MOLECULE
ASD01530038
  28   29    0    0    0
SMALL
NO_CHARGES


@<TRIPOS>ATOM
   1 C1            -0.0168     1.3913     0.0097 C.ar    
   2 C2             0.0021    -0.0041     0.0020 C.ar    
   3 C3             1.1977    -0.6667    -0.0130 C.ar    
   4 C4             2.3931     0.0376    -0.0201 C.ar    
   5 C5             2.3961     1.4162    -0.0127 C.ar    
   6 C6             1.1917     2.1089     0.0020 C.ar    
   7 C7             1.7559     4.4662     0.0049 C.2     
   8 O8             1.3236     5.7407     0.0142 O.3     
   9 O9             2.9470     4.2291    -0.0101 O.2     
  10 C10            2.3369     6.7806     0.0054 C.3     
  11 C11           -1.0868     2.3944     0.0312 C.2     
  12 C12           -0.4996     3.5990     0.0287 C.2     
  13 N13            0.8672     3.4531     0.0123 N.am    
  14 C14            1.6598     8.1526     0.0179 C.3     
  15 C15           -2.5687     2.1215     0.0517 C.3     
  16 H16           -0.9247    -0.5586     0.0082 H       
  17 H17            1.2118    -1.7466    -0.0189 H       
  18 H18            3.3302    -0.4993    -0.0312 H       
  19 H19            3.3315     1.9559    -0.0181 H       
  20 H20            2.9691     6.6794     0.8875 H       
  21 H21            2.9478     6.6851    -0.8923 H       
  22 H22           -1.0224     4.5440     0.0410 H       
  23 H23            2.4205     8.9333     0.0113 H       
  24 H24            1.0277     8.2539    -0.8643 H       
  25 H25            1.0490     8.2481     0.9156 H       
  26 H26           -2.9108     2.0500     1.0841 H       
  27 H27           -3.0948     2.9338    -0.4499 H       
  28 H28           -2.7726     1.1833    -0.4644 H       
@<TRIPOS>BOND
   1    1    2 ar
   2    1    6 ar
   3    1   11 1
   4    2    3 ar
   5    2   16 1
   6    3    4 ar
   7    3   17 1
   8    4    5 ar
   9    4   18 1
  10    5    6 ar
  11    5   19 1
  12    6   13 1
  13    7    8 1
  14    7    9 2
  15    7   13 am
  16    8   10 1
  17   10   14 1
  18   10   20 1
  19   10   21 1
  20   11   12 2
  21   11   15 1
  22   12   13 1
  23   12   22 1
  24   14   23 1
  25   14   24 1
  26   14   25 1
  27   15   26 1
  28   15   27 1
  29   15   28 1

#	End of record

