#	Name: ASD04560042
#	Creating user name:	WinNT
#	Creation time:	15. 06. 2019 20:49

#	Modifying user name:	WinNT
#	Modification time:	15. 06. 2019 20:49

#	Program:	/corina/corina34_cracker 3.40 0067  02.08.2006

@<TRIPOS>MOLECULE
ASD04560042
  43   45    0    0    0
SMALL
NO_CHARGES


@<TRIPOS>ATOM
   1 C1            -0.0173     1.3666     0.0244 C.ar    
   2 C2             0.0010    -0.0041     0.0241 C.ar    
   3 C3             1.2157    -0.6859     0.0136 C.ar    
   4 C4             2.4151     0.0225     0.0039 C.ar    
   5 C5             2.4031     1.3933     0.0042 C.ar    
   6 C6             1.1852     2.0805     0.0143 C.ar    
   7 C7             1.1690     3.5549     0.0141 C.2     
   8 O8             2.2154     4.1746     0.0053 O.2     
   9 N9            -0.0055     4.2159     0.0238 N.am    
  10 C10           -0.0226     5.6108     0.1367 C.ar    
  11 C11           -0.9921     6.3504    -0.5279 C.ar    
  12 C12            0.9079     7.6335     1.0278 C.ar    
  13 C13            0.9265     6.2569     0.9179 C.ar    
  14 F14           -0.0727     9.7160     0.4686 F       
  15 S15            1.2351    -2.4478     0.0132 S.3     
  16 C16           -1.0071     7.7268    -0.4152 C.ar    
  17 C17           -0.0563     8.3694     0.3597 C.ar    
  18 C18            3.1932    -4.3318    -0.0038 C.ar    
  19 C19            3.2688    -5.0207    -1.2059 C.ar    
  20 C20            3.4461    -6.3964    -1.2043 C.ar    
  21 C21            3.5469    -7.0774    -0.0063 C.ar    
  22 C22            3.4713    -6.3887     1.1900 C.ar    
  23 C23            3.2946    -5.0172     1.1911 C.ar    
  24 C24            3.0069    -2.8364    -0.0020 C.3     
  25 O25            3.1689    -4.3487    -2.3829 O.3     
  26 N26            3.5796    -7.1206     2.4719 N.pl3   
  27 O27            3.7353    -8.3287     2.4721 O.2     
  28 O28            3.5131    -6.5150     3.5265 O.2     
  29 H29           -0.9594     1.8947     0.0280 H       
  30 H30           -0.9274    -0.5560     0.0322 H       
  31 H31            3.3553    -0.5088    -0.0035 H       
  32 H32            3.3333     1.9420    -0.0029 H       
  33 H33           -0.8390     3.7249    -0.0474 H       
  34 H34           -1.7336     5.8496    -1.1326 H       
  35 H35            1.6459     8.1363     1.6353 H       
  36 H36            1.6784     5.6833     1.4393 H       
  37 H37           -1.7607     8.3024    -0.9321 H       
  38 H38            3.5049    -6.9349    -2.1386 H       
  39 H39            3.6846    -8.1485    -0.0045 H       
  40 H40            3.2358    -4.4815     2.1270 H       
  41 H41            3.4643    -2.4122    -0.8959 H       
  42 H42            3.4794    -2.4125     0.8840 H       
  43 H43            4.0160    -4.0410    -2.7333 H       
@<TRIPOS>BOND
   1    1    2 ar
   2    1    6 ar
   3    1   29 1
   4    2    3 ar
   5    2   30 1
   6    3    4 ar
   7    3   15 1
   8    4    5 ar
   9    4   31 1
  10    5    6 ar
  11    5   32 1
  12    6    7 1
  13    7    8 2
  14    7    9 am
  15    9   10 1
  16    9   33 1
  17   10   11 ar
  18   10   13 ar
  19   11   16 ar
  20   11   34 1
  21   12   13 ar
  22   12   17 ar
  23   12   35 1
  24   13   36 1
  25   14   17 1
  26   15   24 1
  27   16   17 ar
  28   16   37 1
  29   18   19 ar
  30   18   23 ar
  31   18   24 1
  32   19   25 1
  33   19   20 ar
  34   20   21 ar
  35   20   38 1
  36   21   22 ar
  37   21   39 1
  38   22   23 ar
  39   22   26 1
  40   23   40 1
  41   24   41 1
  42   24   42 1
  43   25   43 1
  44   26   27 2
  45   26   28 2

#	End of record

