#	Name: ASD07300910
#	Creating user name:	WinNT
#	Creation time:	15. 06. 2019 21:10

#	Modifying user name:	WinNT
#	Modification time:	15. 06. 2019 21:10

#	Program:	/corina/corina34_cracker 3.40 0067  02.08.2006

@<TRIPOS>MOLECULE
ASD07300910
  47   51    0    0    0
SMALL
NO_CHARGES


@<TRIPOS>ATOM
   1 N1             0.1081     1.3381    -0.0153 N.am    
   2 C2             0.0630    -0.0155    -0.0986 C.2     
   3 N3             1.1269    -0.7550    -0.2136 N.2     
   4 C4             2.3585    -0.2231    -0.2588 C.2     
   5 C5             2.5053     1.1708    -0.1799 C.2     
   6 C6             1.2968     1.9848    -0.0505 C.2     
   7 N7             3.6099    -0.7391    -0.3716 N.pl3   
   8 N8             4.5254     0.3209    -0.3631 N.2     
   9 C9             3.8827     1.4505    -0.2504 C.2     
  10 O10            1.3578     3.1994     0.0222 O.2     
  11 C11            3.9447    -2.1610    -0.4827 C.3     
  12 C12            4.5637    -2.4358    -1.8566 C.3     
  13 C13            4.9821    -3.9064    -1.9342 C.3     
  14 O14            5.8988    -4.1958    -0.8768 O.3     
  15 C15            5.3595    -4.0024     0.4323 C.3     
  16 C16            4.9562    -2.5357     0.6049 C.3     
  17 C17           -1.2821    -0.6936    -0.0554 C.3     
  18 C18           -1.2976    -2.0749    -0.7310 C.3     
  19 C19           -2.1966    -2.5433     0.4254 C.3     
  20 C20           -1.5610    -1.4250     1.2682 C.3     
  21 C21           -0.3128    -1.8529     1.9962 C.2     
  22 C22            0.3313    -2.9906     1.7195 C.2     
  23 S23            1.7240    -3.1002     2.7933 S.3     
  24 C24            1.3016    -1.6053     3.5076 C.2     
  25 N25            0.2361    -1.1331     2.9539 N.2     
  26 C26            2.0667    -0.9333     4.6184 C.3     
  27 H27           -0.7151     1.8447     0.0657 H       
  28 H28            4.3311     2.4325    -0.2169 H       
  29 H29            3.0411    -2.7587    -0.3636 H       
  30 H30            3.8308    -2.2241    -2.6352 H       
  31 H31            5.4383    -1.8004    -1.9959 H       
  32 H32            4.1012    -4.5407    -1.8354 H       
  33 H33            5.4621    -4.0976    -2.8940 H       
  34 H34            4.4835    -4.6380     0.5621 H       
  35 H35            6.1113    -4.2628     1.1773 H       
  36 H36            5.8387    -1.9023     0.5154 H       
  37 H37            4.5041    -2.3954     1.5868 H       
  38 H38           -2.0951    -0.0419    -0.3755 H       
  39 H39           -1.7950    -2.0811    -1.7009 H       
  40 H40           -0.3227    -2.5621    -0.7511 H       
  41 H41           -3.2605    -2.3978     0.2379 H       
  42 H42           -1.9620    -3.5461     0.7824 H       
  43 H43           -2.2712    -0.9064     1.9124 H       
  44 H44            0.0483    -3.7149     0.9701 H       
  45 H45            2.9726    -1.5011     4.8308 H       
  46 H46            2.3349     0.0785     4.3146 H       
  47 H47            1.4460    -0.8914     5.5135 H       
@<TRIPOS>BOND
   1    1    2 1
   2    1    6 am
   3    1   27 1
   4    2    3 2
   5    2   17 1
   6    3    4 1
   7    4    5 2
   8    4    7 1
   9    5    6 1
  10    5    9 1
  11    6   10 2
  12    7    8 1
  13    7   11 1
  14    8    9 2
  15    9   28 1
  16   11   12 1
  17   11   16 1
  18   11   29 1
  19   12   13 1
  20   12   30 1
  21   12   31 1
  22   13   14 1
  23   13   32 1
  24   13   33 1
  25   14   15 1
  26   15   16 1
  27   15   34 1
  28   15   35 1
  29   16   36 1
  30   16   37 1
  31   17   18 1
  32   17   20 1
  33   17   38 1
  34   18   19 1
  35   18   39 1
  36   18   40 1
  37   19   20 1
  38   19   41 1
  39   19   42 1
  40   20   21 1
  41   20   43 1
  42   21   22 2
  43   21   25 1
  44   22   23 1
  45   22   44 1
  46   23   24 1
  47   24   25 2
  48   24   26 1
  49   26   45 1
  50   26   46 1
  51   26   47 1

#	End of record

