#	Name: ASD01028208
#	Creating user name:	WinNT
#	Creation time:	15. 06. 2019 18:56

#	Modifying user name:	WinNT
#	Modification time:	15. 06. 2019 18:56

#	Program:	/corina/corina34_cracker 3.40 0067  02.08.2006

@<TRIPOS>MOLECULE
ASD01028208
  54   59    0    0    0
SMALL
NO_CHARGES


@<TRIPOS>ATOM
   1 C1            -0.0166     1.3719     0.0096 C.ar    
   2 C2             0.0021    -0.0041     0.0020 C.ar    
   3 C3             1.1750     2.1035     0.0021 C.ar    
   4 C4             2.3797     1.4715    -0.0128 C.ar    
   5 C5             2.4326     0.0695    -0.0208 C.ar    
   6 C6             1.2322    -0.6815    -0.0134 C.ar    
   7 C7             3.6676    -0.6170    -0.0367 C.ar    
   8 C8             3.6411    -2.0003    -0.0444 C.ar    
   9 C9             2.4221    -2.6660    -0.0364 C.ar    
  10 N10            1.2804    -2.0188    -0.0211 N.ar    
  11 O11            4.8427     0.0593    -0.0447 O.3     
  12 C12            6.0400    -0.7207    -0.0607 C.3     
  13 C13            7.2364     0.1957    -0.0676 C.2     
  14 N14            7.8835     0.6771     1.0228 N.pl3   
  15 C15            8.9028     1.4640     0.5402 C.2     
  16 N16            8.8265     1.4226    -0.7797 N.2     
  17 N17            7.8439     0.6675    -1.1278 N.2     
  18 N18            7.7077     0.5251     2.3995 N.2     
  19 C19            8.5123     1.1308     3.2452 C.2     
  20 C20            9.5675     1.9450     2.7810 C.2     
  21 C21            9.7640     2.1113     1.4466 C.2     
  22 C22            8.3081     0.9567     4.7036 C.ar    
  23 C23            7.2673     0.1542     5.1704 C.ar    
  24 C24            9.1607     1.5911     5.6072 C.ar    
  25 C25            8.9731     1.4303     6.9617 C.ar    
  26 C26            7.9282     0.6314     7.4319 C.ar    
  27 C27            7.0770    -0.0086     6.5257 C.ar    
  28 O28           -1.2065     2.0271     0.0188 O.3     
  29 C29           -1.1606     3.4553     0.0263 C.3     
  30 Cl30           5.7773    -1.0016     7.1074 Cl      
  31 C31            7.7265     0.4579     8.8845 C.2     
  32 N32            6.7865    -0.2632     9.4705 N.2     
  33 C33            6.9953    -0.1233    10.7886 C.2     
  34 C34            6.1835    -0.7550    11.8900 C.3     
  35 O35            8.4655     0.9971     9.8667 O.3     
  36 N36            8.0252     0.6554    10.9439 N.2     
  37 H37           -0.9239    -0.5598     0.0082 H       
  38 H38            1.1387     3.1829     0.0079 H       
  39 H39            3.2932     2.0476    -0.0188 H       
  40 H40            4.5646    -2.5602    -0.0569 H       
  41 H41            2.4134    -3.7460    -0.0425 H       
  42 H42            6.0728    -1.3543     0.8256 H       
  43 H43            6.0552    -1.3447    -0.9543 H       
  44 H44           10.2203     2.4361     3.4874 H       
  45 H45           10.5702     2.7329     1.0859 H       
  46 H46            6.6102    -0.3395     4.4698 H       
  47 H47            9.9689     2.2086     5.2440 H       
  48 H48            9.6339     1.9216     7.6605 H       
  49 H49           -0.6312     3.7971     0.9157 H       
  50 H50           -0.6396     3.8068    -0.8642 H       
  51 H51           -2.1761     3.8514     0.0333 H       
  52 H52            6.6090    -1.7259    12.1439 H       
  53 H53            6.1995    -0.1103    12.7687 H       
  54 H54            5.1549    -0.8858    11.5540 H       
@<TRIPOS>BOND
   1    1    2 ar
   2    1    3 ar
   3    1   28 1
   4    2    6 ar
   5    2   37 1
   6    3    4 ar
   7    3   38 1
   8    4    5 ar
   9    4   39 1
  10    5    6 ar
  11    5    7 ar
  12    6   10 ar
  13    7    8 ar
  14    7   11 1
  15    8    9 ar
  16    8   40 1
  17    9   10 ar
  18    9   41 1
  19   11   12 1
  20   12   13 1
  21   12   42 1
  22   12   43 1
  23   13   14 1
  24   13   17 2
  25   14   15 1
  26   14   18 1
  27   15   16 2
  28   15   21 1
  29   16   17 1
  30   18   19 2
  31   19   20 1
  32   19   22 1
  33   20   21 2
  34   20   44 1
  35   21   45 1
  36   22   23 ar
  37   22   24 ar
  38   23   27 ar
  39   23   46 1
  40   24   25 ar
  41   24   47 1
  42   25   26 ar
  43   25   48 1
  44   26   27 ar
  45   26   31 1
  46   27   30 1
  47   28   29 1
  48   29   49 1
  49   29   50 1
  50   29   51 1
  51   31   32 2
  52   31   35 1
  53   32   33 1
  54   33   34 1
  55   33   36 2
  56   34   52 1
  57   34   53 1
  58   34   54 1
  59   35   36 1

#	End of record

