#	Name: ASD05430083
#	Creating user name:	WinNT
#	Creation time:	15. 06. 2019 20:59

#	Modifying user name:	WinNT
#	Modification time:	15. 06. 2019 20:59

#	Program:	/corina/corina34_cracker 3.40 0067  02.08.2006

@<TRIPOS>MOLECULE
ASD05430083
  61   67    0    0    0
SMALL
NO_CHARGES


@<TRIPOS>ATOM
   1 C1             0.0693     1.1518     0.4442 C.ar    
   2 C2             0.0186    -0.0096    -0.3347 C.ar    
   3 C3             1.1498    -0.4586    -0.9960 C.ar    
   4 C4             2.3383     0.2379    -0.8915 C.ar    
   5 C5             2.4130     1.3950    -0.1237 C.ar    
   6 C6             1.2592     1.8719     0.5638 C.ar    
   7 C7             4.8627    -0.0566     0.2048 C.3     
   8 C8             4.8461     1.4484     0.0672 C.2     
   9 C9             3.6823     2.1261    -0.0207 C.2     
  10 C10            6.2035    -0.5196     0.7777 C.3     
  11 C11            6.8615     0.5031     1.7090 C.3     
  12 N12            7.1015     1.7399     0.9640 N.pl3   
  13 C13            6.1366     2.1514     0.0327 C.2     
  14 C14            8.2907     2.5604     1.1859 C.3     
  15 C15            8.7940     3.0783    -0.1663 C.3     
  16 N16            7.6733     3.6435    -0.9212 N.pl3   
  17 N17            6.3942     3.0822    -0.8305 N.2     
  18 C18            7.9413     3.7260     2.0748 C.ar    
  19 C19            8.8235     4.1336     3.0580 C.ar    
  20 C20            8.5043     5.2028     3.8735 C.ar    
  21 C21            7.3004     5.8658     3.7054 C.ar    
  22 C22            6.4177     5.4566     2.7203 C.ar    
  23 C23            6.7413     4.3906     1.9026 C.ar    
  24 F24            6.9872     6.9108     4.5022 F       
  25 N25           -1.1825    -0.7223    -0.4458 N.pl3   
  26 C26           -1.9811    -1.1231     0.5772 C.2     
  27 N27           -3.0073    -1.7579     0.0793 N.2     
  28 C28           -2.9059    -1.7868    -1.2578 C.2     
  29 C29           -1.7767    -1.1416    -1.6078 C.2     
  30 C30           -0.0349     3.1718     1.8578 C.2     
  31 S31           -1.1643     1.9809     1.3893 S.3     
  32 N32            1.1172     2.9488     1.3447 N.2     
  33 C33           -3.8885    -2.4257    -2.2050 C.3     
  34 C34            6.1351    -1.9215     1.3918 C.3     
  35 S35            7.8559    -2.2181     0.9003 S.3     
  36 C36            7.1605    -1.0455    -0.2964 C.3     
  37 H37            1.1027    -1.3561    -1.5950 H       
  38 H38            3.2161    -0.1191    -1.4096 H       
  39 H39            4.0584    -0.3673     0.8717 H       
  40 H40            4.7124    -0.5106    -0.7747 H       
  41 H41            3.6846     3.2060    -0.0155 H       
  42 H42            6.2009     0.7072     2.5517 H       
  43 H43            7.8092     0.1074     2.0740 H       
  44 H44            9.0669     1.9582     1.6583 H       
  45 H45            9.5472     3.8490    -0.0025 H       
  46 H46            9.2333     2.2552    -0.7299 H       
  47 H47            7.8190     4.4156    -1.4900 H       
  48 H48            9.7623     3.6161     3.1892 H       
  49 H49            9.1935     5.5208     4.6418 H       
  50 H50            5.4783     5.9730     2.5883 H       
  51 H51            6.0529     4.0712     1.1341 H       
  52 H52           -1.7976    -0.9465     1.6268 H       
  53 H53           -1.4070    -0.9895    -2.6111 H       
  54 H54           -0.2637     4.0090     2.5006 H       
  55 H55           -4.6442    -1.6946    -2.4922 H       
  56 H56           -3.3626    -2.7731    -3.0943 H       
  57 H57           -4.3694    -3.2715    -1.7136 H       
  58 H58            5.9942    -1.9094     2.4726 H       
  59 H59            5.4261    -2.5767     0.8858 H       
  60 H60            6.6476    -1.5331    -1.1255 H       
  61 H61            7.8799    -0.2986    -0.6320 H       
@<TRIPOS>BOND
   1    1    2 ar
   2    1    6 ar
   3    1   31 1
   4    2    3 ar
   5    2   25 1
   6    3    4 ar
   7    3   37 1
   8    4    5 ar
   9    4   38 1
  10    5    6 ar
  11    5    9 1
  12    6   32 1
  13    7    8 1
  14    7   10 1
  15    7   39 1
  16    7   40 1
  17    8    9 2
  18    8   13 1
  19    9   41 1
  20   10   11 1
  21   10   34 1
  22   10   36 1
  23   11   12 1
  24   11   42 1
  25   11   43 1
  26   12   13 1
  27   12   14 1
  28   13   17 2
  29   14   15 1
  30   14   18 1
  31   14   44 1
  32   15   16 1
  33   15   45 1
  34   15   46 1
  35   16   17 1
  36   16   47 1
  37   18   19 ar
  38   18   23 ar
  39   19   20 ar
  40   19   48 1
  41   20   21 ar
  42   20   49 1
  43   21   22 ar
  44   21   24 1
  45   22   23 ar
  46   22   50 1
  47   23   51 1
  48   25   26 1
  49   25   29 1
  50   26   27 2
  51   26   52 1
  52   27   28 1
  53   28   29 2
  54   28   33 1
  55   29   53 1
  56   30   31 1
  57   30   32 2
  58   30   54 1
  59   33   55 1
  60   33   56 1
  61   33   57 1
  62   34   35 1
  63   34   58 1
  64   34   59 1
  65   35   36 1
  66   36   60 1
  67   36   61 1

#	End of record

