#	Name: ASD01410205
#	Creating user name:	WinNT
#	Creation time:	15. 06. 2019 19:16

#	Modifying user name:	WinNT
#	Modification time:	15. 06. 2019 19:16

#	Program:	/corina/corina34_cracker 3.40 0067  02.08.2006

@<TRIPOS>MOLECULE
ASD01410205
  42   44    0    0    0
SMALL
NO_CHARGES


@<TRIPOS>ATOM
   1 C1            -0.0166     1.3751     0.0096 C.2     
   2 C2             0.0021    -0.0041     0.0020 C.2     
   3 C3            -1.3186    -0.4449     0.0122 C.2     
   4 C4            -2.1307     0.6771     0.0260 C.2     
   5 N5            -1.3193     1.7880     0.0302 N.pl3   
   6 C6             1.2307    -0.8766    -0.0148 C.3     
   7 C7             1.2412    -1.7666     1.2296 C.3     
   8 C8             2.4885    -2.6525     1.2125 C.3     
   9 C9             2.4743    -3.5291    -0.0414 C.3     
  10 C10            2.4638    -2.6391    -1.2858 C.3     
  11 C11            1.2165    -1.7532    -1.2687 C.3     
  12 C12           -3.5462     0.6801     0.0391 C.2     
  13 C13           -4.2225     1.8573     0.0519 C.2     
  14 C14           -5.6356     1.8602     0.0650 C.2     
  15 O15           -6.3080     3.0307     0.0777 O.3     
  16 O16           -6.2463     0.8075     0.0648 O.2     
  17 C17            1.1692     2.2556     0.0030 C.ar    
  18 N18            2.3264     1.8067     0.4771 N.ar    
  19 C19            3.4063     2.5605     0.4883 C.ar    
  20 C20            3.3742     3.8556     0.0035 C.ar    
  21 C21            2.1857     4.3654    -0.5013 C.ar    
  22 C22            1.0671     3.5515    -0.5066 C.ar    
  23 H23           -1.6492    -1.4731     0.0096 H       
  24 H24           -1.6212     2.7098     0.0399 H       
  25 H25            2.1219    -0.2491    -0.0203 H       
  26 H26            1.2513    -1.1421     2.1229 H       
  27 H27            0.3500    -2.3941     1.2351 H       
  28 H28            3.3798    -2.0250     1.2070 H       
  29 H29            2.4960    -3.2866     2.0991 H       
  30 H30            3.3630    -4.1602    -0.0536 H       
  31 H31            1.5831    -4.1566    -0.0359 H       
  32 H32            3.3550    -2.0116    -1.2913 H       
  33 H33            2.4537    -3.2636    -2.1791 H       
  34 H34            0.3252    -2.3807    -1.2633 H       
  35 H35            1.2090    -1.1192    -2.1553 H       
  36 H36           -4.0882    -0.2541     0.0389 H       
  37 H37           -3.6805     2.7914     0.0521 H       
  38 H38           -7.2699     2.9317     0.0861 H       
  39 H39            4.3298     2.1620     0.8818 H       
  40 H40            4.2658     4.4649     0.0179 H       
  41 H41            2.1365     5.3738    -0.8849 H       
  42 H42            0.1264     3.9158    -0.8924 H       
@<TRIPOS>BOND
   1    1    2 2
   2    1   17 1
   3    1    5 1
   4    2    3 1
   5    2    6 1
   6    3    4 2
   7    3   23 1
   8    4    5 1
   9    4   12 1
  10    5   24 1
  11    6    7 1
  12    6   11 1
  13    6   25 1
  14    7    8 1
  15    7   26 1
  16    7   27 1
  17    8    9 1
  18    8   28 1
  19    8   29 1
  20    9   10 1
  21    9   30 1
  22    9   31 1
  23   10   11 1
  24   10   32 1
  25   10   33 1
  26   11   34 1
  27   11   35 1
  28   12   13 2
  29   12   36 1
  30   13   14 1
  31   13   37 1
  32   14   15 1
  33   14   16 2
  34   15   38 1
  35   17   18 ar
  36   17   22 ar
  37   18   19 ar
  38   19   20 ar
  39   19   39 1
  40   20   21 ar
  41   20   40 1
  42   21   22 ar
  43   21   41 1
  44   22   42 1

#	End of record

