#	Name: ASD01885228
#	Creating user name:	WinNT
#	Creation time:	15. 06. 2019 19:49

#	Modifying user name:	WinNT
#	Modification time:	15. 06. 2019 19:49

#	Program:	/corina/corina34_cracker 3.40 0067  02.08.2006

@<TRIPOS>MOLECULE
ASD01885228
  46   49    0    0    0
SMALL
NO_CHARGES


@<TRIPOS>ATOM
   1 C1            -0.0164     1.3561     0.0095 C.ar    
   2 C2             0.0021    -0.0041     0.0020 C.ar    
   3 C3             1.2056    -0.7066    -0.0132 C.ar    
   4 C4             2.3988    -0.0488    -0.0206 C.ar    
   5 C5             2.4185     1.3521    -0.0133 C.ar    
   6 C6             1.1968     2.0713     0.0018 C.ar    
   7 C7             3.6407     2.0708    -0.0210 C.ar    
   8 C8             3.5790     3.4576    -0.0135 C.ar    
   9 C9             2.3316     4.0919     0.0013 C.ar    
  10 N10            1.2052     3.4045     0.0084 N.ar    
  11 C11            4.9419     1.3643    -0.0362 C.ar    
  12 C12            2.2743     5.5736     0.0092 C.2     
  13 N13            1.0819     6.2018     0.0235 N.am    
  14 O14            3.3022     6.2214     0.0029 O.2     
  15 C15            5.9187     1.7166    -0.9680 C.ar    
  16 C16            7.1291     1.0556    -0.9781 C.ar    
  17 C17            7.3759     0.0429    -0.0646 C.ar    
  18 C18            6.4088    -0.3107     0.8631 C.ar    
  19 C19            5.1974     0.3482     0.8850 C.ar    
  20 C20           -1.2996    -0.7633     0.0109 C.3     
  21 N21           -1.7352    -1.0020    -1.3674 N.am    
  22 F22            8.5629    -0.6020    -0.0788 F       
  23 C23           -1.3351    -2.1208    -1.9841 C.2     
  24 C24           -1.6989    -2.4269    -3.4104 C.3     
  25 O25           -2.7771    -1.5853    -3.8267 O.3     
  26 C26           -2.5520    -0.2014    -3.5333 C.3     
  27 C27           -2.5941    -0.0126    -2.0137 C.3     
  28 O28           -0.6547    -2.9155    -1.3706 O.2     
  29 H29           -0.9577     1.8854     0.0168 H       
  30 H30            1.1924    -1.7865    -0.0189 H       
  31 H31            3.3248    -0.6045    -0.0317 H       
  32 H32            4.4868     4.0426    -0.0187 H       
  33 H33            0.2613     5.6846     0.0285 H       
  34 H34            1.0444     7.1710     0.0287 H       
  35 H35            5.7272     2.5053    -1.6805 H       
  36 H36            7.8857     1.3273    -1.6993 H       
  37 H37            6.6057    -1.1007     1.5726 H       
  38 H38            4.4461     0.0750     1.6112 H       
  39 H39           -1.1600    -1.7179     0.5182 H       
  40 H40           -2.0567    -0.1804     0.5354 H       
  41 H41           -0.8343    -2.2514    -4.0505 H       
  42 H42           -2.0022    -3.4707    -3.4909 H       
  43 H43           -1.5766     0.0995    -3.9157 H       
  44 H44           -3.3317     0.4024    -3.9975 H       
  45 H45           -3.6174    -0.1345    -1.6585 H       
  46 H46           -2.2431     0.9890    -1.7652 H       
@<TRIPOS>BOND
   1    1    2 ar
   2    1    6 ar
   3    1   29 1
   4    2    3 ar
   5    2   20 1
   6    3    4 ar
   7    3   30 1
   8    4    5 ar
   9    4   31 1
  10    5    7 ar
  11    5    6 ar
  12    6   10 ar
  13    7    8 ar
  14    7   11 1
  15    8    9 ar
  16    8   32 1
  17    9   10 ar
  18    9   12 1
  19   11   15 ar
  20   11   19 ar
  21   12   13 am
  22   12   14 2
  23   13   33 1
  24   13   34 1
  25   15   16 ar
  26   15   35 1
  27   16   17 ar
  28   16   36 1
  29   17   18 ar
  30   17   22 1
  31   18   19 ar
  32   18   37 1
  33   19   38 1
  34   20   21 1
  35   20   39 1
  36   20   40 1
  37   21   23 am
  38   21   27 1
  39   23   24 1
  40   23   28 2
  41   24   25 1
  42   24   41 1
  43   24   42 1
  44   25   26 1
  45   26   27 1
  46   26   43 1
  47   26   44 1
  48   27   45 1
  49   27   46 1

#	End of record

