#	Name: ASD03930166
#	Creating user name:	WinNT
#	Creation time:	15. 06. 2019 20:47

#	Modifying user name:	WinNT
#	Modification time:	15. 06. 2019 20:47

#	Program:	/corina/corina34_cracker 3.40 0067  02.08.2006

@<TRIPOS>MOLECULE
ASD03930166
  55   57    0    0    0
SMALL
NO_CHARGES


@<TRIPOS>ATOM
   1 N1            -0.1189     2.6779    -0.4803 N.pl3   
   2 N2            -0.0341     1.3022    -0.2385 N.2     
   3 C3             1.2229     0.9557    -0.2032 C.2     
   4 C4             2.0020     2.1141    -0.4245 C.2     
   5 C5             1.1255     3.1683    -0.5930 C.2     
   6 C6             3.4725     2.1842    -0.4667 C.2     
   7 O7             4.1338     1.1780    -0.3016 O.2     
   8 O8             4.0848     3.3639    -0.6884 O.3     
   9 C9             1.7518    -0.4356     0.0326 C.3     
  10 F10            0.6830    -1.3360     0.0973 F       
  11 F11            2.6019    -0.7957    -1.0185 F       
  12 F12            2.4614    -0.4666     1.2379 F       
  13 C13           -1.3575     3.4515    -0.5972 C.3     
  14 C14           -4.8350     0.9408    -4.4579 C.3     
  15 C15           -5.8527     0.3367    -3.4671 C.3     
  16 C16           -5.0242     0.2220    -2.1700 C.3     
  17 C17           -3.9600     1.2925    -2.2837 C.ar    
  18 C18           -3.1505     1.8600    -1.3138 C.ar    
  19 C19           -2.2359     2.8364    -1.6560 C.ar    
  20 C20           -2.1271     3.2495    -2.9709 C.ar    
  21 C21           -2.9334     2.6848    -3.9396 C.ar    
  22 C22           -3.8513     1.7054    -3.5983 C.ar    
  23 S23           -4.6981    -0.5901    -6.6833 S.o2    
  24 O24           -3.8213    -1.6400    -7.0682 O.2     
  25 O25           -6.0848    -0.8292    -6.4855 O.2     
  26 N26           -4.1475    -0.1239    -5.1927 N.am    
  27 C27           -4.4470     0.8667    -7.7346 C.3     
  28 C28           -2.9641     1.2434    -7.7383 C.3     
  29 C29           -4.8960     0.5489    -9.1623 C.3     
  30 C30            5.5365     3.3581    -0.7168 C.3     
  31 C31            6.0472     4.7764    -0.9788 C.3     
  32 H32            1.3923     4.1978    -0.7808 H       
  33 H33           -1.8815     3.4448     0.3586 H       
  34 H34           -1.1196     4.4785    -0.8740 H       
  35 H35           -5.3368     1.6163    -5.1507 H       
  36 H36           -6.7013     1.0063    -3.3270 H       
  37 H37           -6.1843    -0.6458    -3.8032 H       
  38 H38           -5.6551     0.4069    -1.3006 H       
  39 H39           -4.5635    -0.7634    -2.1013 H       
  40 H40           -3.2349     1.5378    -0.2864 H       
  41 H41           -1.4121     4.0127    -3.2404 H       
  42 H42           -2.8479     3.0080    -4.9665 H       
  43 H43           -3.3697    -0.5558    -4.8062 H       
  44 H44           -5.0326     1.7001    -7.3465 H       
  45 H45           -2.3784     0.4100    -8.1263 H       
  46 H46           -2.8132     2.1188    -8.3700 H       
  47 H47           -2.6442     1.4699    -6.7211 H       
  48 H48           -5.9524     0.2805    -9.1596 H       
  49 H49           -4.7451     1.4243    -9.7940 H       
  50 H50           -4.3103    -0.2845    -9.5503 H       
  51 H51            5.9173     3.0062     0.2420 H       
  52 H52            5.8818     2.6953    -1.5102 H       
  53 H53            5.6664     5.1283    -1.9376 H       
  54 H54            5.7019     5.4392    -0.1853 H       
  55 H55            7.1369     4.7721    -1.0000 H       
@<TRIPOS>BOND
   1    1    2 1
   2    1    5 1
   3    1   13 1
   4    2    3 2
   5    3    4 1
   6    3    9 1
   7    4    5 2
   8    4    6 1
   9    5   32 1
  10    6    7 2
  11    6    8 1
  12    8   30 1
  13    9   10 1
  14    9   11 1
  15    9   12 1
  16   13   19 1
  17   13   33 1
  18   13   34 1
  19   14   15 1
  20   14   22 1
  21   14   26 1
  22   14   35 1
  23   15   16 1
  24   15   36 1
  25   15   37 1
  26   16   17 1
  27   16   38 1
  28   16   39 1
  29   17   18 ar
  30   17   22 ar
  31   18   19 ar
  32   18   40 1
  33   19   20 ar
  34   20   21 ar
  35   20   41 1
  36   21   22 ar
  37   21   42 1
  38   23   24 2
  39   23   25 2
  40   23   26 am
  41   23   27 1
  42   26   43 1
  43   27   28 1
  44   27   29 1
  45   27   44 1
  46   28   45 1
  47   28   46 1
  48   28   47 1
  49   29   48 1
  50   29   49 1
  51   29   50 1
  52   30   31 1
  53   30   51 1
  54   30   52 1
  55   31   53 1
  56   31   54 1
  57   31   55 1

#	End of record

