#	Name: ASD01915643
#	Creating user name:	WinNT
#	Creation time:	15. 06. 2019 20:05

#	Modifying user name:	WinNT
#	Modification time:	15. 06. 2019 20:05

#	Program:	/corina/corina34_cracker 3.40 0067  02.08.2006

@<TRIPOS>MOLECULE
ASD01915643
  47   50    0    0    0
SMALL
NO_CHARGES


@<TRIPOS>ATOM
   1 C1            -0.1054     1.0764    -0.3508 C.2     
   2 N2            -0.1176    -0.2086     0.1439 N.pl3   
   3 C3            -1.3614    -0.8299     0.6144 C.3     
   4 C4            -2.2921     0.2524     1.1590 C.3     
   5 N5            -2.4044     1.3988     0.2638 N.am    
   6 C6            -1.3269     1.8946    -0.3913 C.2     
   7 C7             1.1800     1.3482    -0.7264 C.2     
   8 C8             1.9008     0.1859    -0.4206 C.2     
   9 N9             1.0646    -0.6852     0.0944 N.2     
  10 C10            3.3760    -0.0266    -0.6437 C.3     
  11 O11            3.9444     1.1497    -1.2227 O.3     
  12 C12            5.2768     1.1242    -1.4894 C.ar    
  13 O13           -1.3676     2.9580    -0.9805 O.2     
  14 C14            5.8942     2.2320    -2.0517 C.ar    
  15 C15            6.0228    -0.0077    -1.1945 C.ar    
  16 C16            7.3769    -0.0312    -1.4666 C.ar    
  17 C17            7.9889     1.0720    -2.0323 C.ar    
  18 C18            7.2487     2.2034    -2.3219 C.ar    
  19 C19           -3.6541     2.0003     0.0771 C.ar    
  20 C20           -4.5035     1.5432    -0.9217 C.ar    
  21 C21           -4.0489     3.0516     0.8944 C.ar    
  22 C22           -5.2824     3.6438     0.7084 C.ar    
  23 C23           -6.1257     3.1901    -0.2921 C.ar    
  24 C24           -5.7365     2.1384    -1.1043 C.ar    
  25 F25           -7.3322     3.7708    -0.4724 F       
  26 C26           -1.7565     0.7309     2.5100 C.3     
  27 C27           -6.6563     1.6468    -2.1921 C.3     
  28 H28           -1.8475    -1.3442    -0.2146 H       
  29 H29           -1.1344    -1.5457     1.4044 H       
  30 H30           -3.2829    -0.1770     1.3074 H       
  31 H31            1.5581     2.2601    -1.1642 H       
  32 H32            3.8616    -0.2332     0.3100 H       
  33 H33            3.5237    -0.8708    -1.3172 H       
  34 H34            5.3164     3.1158    -2.2784 H       
  35 H35            5.5453    -0.8696    -0.7523 H       
  36 H36            7.9582    -0.9120    -1.2369 H       
  37 H37            9.0477     1.0517    -2.2443 H       
  38 H38            7.7289     3.0638    -2.7641 H       
  39 H39           -4.2001     0.7231    -1.5556 H       
  40 H40           -3.3917     3.4055     1.6749 H       
  41 H41           -5.5899     4.4611     1.3439 H       
  42 H42           -0.7538     1.1379     2.3798 H       
  43 H43           -2.4136     1.5041     2.9081 H       
  44 H44           -1.7206    -0.1084     3.2045 H       
  45 H45           -6.4545     2.1937    -3.1132 H       
  46 H46           -6.4877     0.5826    -2.3571 H       
  47 H47           -7.6919     1.8085    -1.8930 H       
@<TRIPOS>BOND
   1    1    2 1
   2    1    7 2
   3    1    6 1
   4    2    3 1
   5    2    9 1
   6    3    4 1
   7    3   28 1
   8    3   29 1
   9    4    5 1
  10    4   26 1
  11    4   30 1
  12    5    6 am
  13    5   19 1
  14    6   13 2
  15    7    8 1
  16    7   31 1
  17    8    9 2
  18    8   10 1
  19   10   11 1
  20   10   32 1
  21   10   33 1
  22   11   12 1
  23   12   14 ar
  24   12   15 ar
  25   14   18 ar
  26   14   34 1
  27   15   16 ar
  28   15   35 1
  29   16   17 ar
  30   16   36 1
  31   17   18 ar
  32   17   37 1
  33   18   38 1
  34   19   20 ar
  35   19   21 ar
  36   20   24 ar
  37   20   39 1
  38   21   22 ar
  39   21   40 1
  40   22   23 ar
  41   22   41 1
  42   23   24 ar
  43   23   25 1
  44   24   27 1
  45   26   42 1
  46   26   43 1
  47   26   44 1
  48   27   45 1
  49   27   46 1
  50   27   47 1

#	End of record

