#	Name: ASD03091494
#	Creating user name:	WinNT
#	Creation time:	15. 06. 2019 20:30

#	Modifying user name:	WinNT
#	Modification time:	15. 06. 2019 20:30

#	Program:	/corina/corina34_cracker 3.40 0067  02.08.2006

@<TRIPOS>MOLECULE
ASD03091494
  54   57    0    0    0
SMALL
NO_CHARGES


@<TRIPOS>ATOM
   1 N1            -0.0163     1.3519     0.0095 N.pl3   
   2 C2             0.0021    -0.0041     0.0020 C.2     
   3 C3             1.1381    -0.7093     0.2660 C.2     
   4 C4             2.3788     0.0267     0.5580 C.2     
   5 C5             2.3734     1.4687     0.2772 C.ar    
   6 C6             3.5462     2.2360     0.2735 C.ar    
   7 N7             3.4819     3.5325     0.0080 N.ar    
   8 C8             2.3374     4.1399    -0.2569 C.ar    
   9 C9             1.1409     3.4582    -0.2709 C.ar    
  10 C10            1.1400     2.0902     0.0024 C.ar    
  11 N11            4.7655     1.6424     0.5463 N.pl3   
  12 C12            5.9894     2.4475     0.5416 C.3     
  13 C13            7.1699     1.5687     0.8662 C.ar    
  14 C14            7.8592     0.9340    -0.1501 C.ar    
  15 C15            8.9420     0.1279     0.1476 C.ar    
  16 C16            9.3358    -0.0431     1.4616 C.ar    
  17 C17            8.6470     0.5923     2.4778 C.ar    
  18 C18            7.5669     1.4019     2.1797 C.ar    
  19 O19            3.3632    -0.5331     1.0114 O.2     
  20 C20           -1.3058     2.0471     0.0193 C.3     
  21 C21           -1.7480     2.2813     1.4652 C.3     
  22 C22           -3.0947     3.0074     1.4754 C.3     
  23 C23           -3.5368     3.2415     2.9213 C.3     
  24 C24            1.1243    -2.1921     0.2597 C.ar    
  25 C25            1.8626    -2.8943    -0.6915 C.ar    
  26 C26            1.8463    -4.2741    -0.6932 C.ar    
  27 C27            1.0983    -4.9610     0.2477 C.ar    
  28 C28            0.3629    -4.2683     1.1943 C.ar    
  29 C29            0.3774    -2.8885     1.2084 C.ar    
  30 Cl30           1.0821    -6.6969     0.2403 Cl      
  31 H31           -0.9091    -0.5401    -0.2190 H       
  32 H32            2.3413     5.1990    -0.4682 H       
  33 H33            0.2179     3.9745    -0.4898 H       
  34 H34            4.8101     0.6931     0.7407 H       
  35 H35            6.1278     2.8925    -0.4438 H       
  36 H36            5.9079     3.2370     1.2887 H       
  37 H37            7.5516     1.0676    -1.1767 H       
  38 H38            9.4801    -0.3685    -0.6463 H       
  39 H39           10.1813    -0.6734     1.6943 H       
  40 H40            8.9544     0.4585     3.5045 H       
  41 H41            7.0310     1.9013     2.9734 H       
  42 H42           -1.2056     3.0057    -0.4898 H       
  43 H43           -2.0504     1.4390    -0.4944 H       
  44 H44           -1.8481     1.3227     1.9743 H       
  45 H45           -1.0034     2.8894     1.9788 H       
  46 H46           -2.9945     3.9660     0.9663 H       
  47 H47           -3.8392     2.3992     0.9617 H       
  48 H48           -4.4962     3.7588     2.9286 H       
  49 H49           -3.6370     2.2830     3.4304 H       
  50 H50           -2.7922     3.8497     3.4350 H       
  51 H51            2.4462    -2.3593    -1.4262 H       
  52 H52            2.4178    -4.8191    -1.4299 H       
  53 H53           -0.2195    -4.8088     1.9258 H       
  54 H54           -0.1925    -2.3491     1.9505 H       
@<TRIPOS>BOND
   1    1    2 1
   2    1   10 1
   3    1   20 1
   4    2    3 2
   5    2   31 1
   6    3    4 1
   7    3   24 1
   8    4    5 1
   9    4   19 2
  10    5    6 ar
  11    5   10 ar
  12    6    7 ar
  13    6   11 1
  14    7    8 ar
  15    8    9 ar
  16    8   32 1
  17    9   10 ar
  18    9   33 1
  19   11   12 1
  20   11   34 1
  21   12   13 1
  22   12   35 1
  23   12   36 1
  24   13   14 ar
  25   13   18 ar
  26   14   15 ar
  27   14   37 1
  28   15   16 ar
  29   15   38 1
  30   16   17 ar
  31   16   39 1
  32   17   18 ar
  33   17   40 1
  34   18   41 1
  35   20   21 1
  36   20   42 1
  37   20   43 1
  38   21   22 1
  39   21   44 1
  40   21   45 1
  41   22   23 1
  42   22   46 1
  43   22   47 1
  44   23   48 1
  45   23   49 1
  46   23   50 1
  47   24   25 ar
  48   24   29 ar
  49   25   26 ar
  50   25   51 1
  51   26   27 ar
  52   26   52 1
  53   27   28 ar
  54   27   30 1
  55   28   29 ar
  56   28   53 1
  57   29   54 1

#	End of record

