#	Name: ASD03731464
#	Creating user name:	WinNT
#	Creation time:	15. 06. 2019 20:45

#	Modifying user name:	WinNT
#	Modification time:	15. 06. 2019 20:45

#	Program:	/corina/corina34_cracker 3.40 0067  02.08.2006

@<TRIPOS>MOLECULE
ASD03731464
  55   60    0    0    0
SMALL
NO_CHARGES


@<TRIPOS>ATOM
   1 C1            -0.0180     1.4727     0.0101 C.2     
   2 C2             0.0021    -0.0041     0.0020 C.ar    
   3 C3             1.2206    -0.6904    -0.0133 C.ar    
   4 C4             1.2301    -2.0731    -0.0209 C.ar    
   5 C5             0.0390    -2.7750    -0.0138 C.ar    
   6 C6            -1.1697    -2.1007     0.0009 C.ar    
   7 C7            -1.1953    -0.7221     0.0154 C.ar    
   8 O8             1.0265     2.0948     0.0035 O.2     
   9 N9            -1.1942     2.1306     0.0193 N.am    
  10 C10           -1.2140     3.5955     0.0274 C.3     
  11 C11           -2.6633     4.0858     0.0369 C.3     
  12 C12           -2.6841     5.6157     0.0453 C.3     
  13 O13           -8.8975     2.7092     2.1987 O.3     
  14 C14          -10.3146     2.7627     2.4479 C.3     
  15 O15          -10.5197     4.0871     2.9742 O.3     
  16 C16           -9.5161     4.8493     2.4482 C.ar    
  17 C17           -8.5185     4.0015     1.9724 C.ar    
  18 C18           -9.3713     6.2203     2.3342 C.ar    
  19 C19           -8.2318     6.7625     1.7474 C.ar    
  20 C20           -7.2383     5.9057     1.2833 C.ar    
  21 C21           -7.3826     4.5381     1.3900 C.ar    
  22 O22           -7.9028     8.0672     1.5241 O.3     
  23 C23           -6.1399     6.7783     0.7376 C.3     
  24 C24           -6.4842     8.1667     1.2937 C.3     
  25 N25           -4.0718     6.0852     0.0544 N.am    
  26 C26           -4.7791     6.3207     1.1775 C.2     
  27 C27           -6.0966     6.7711    -0.7617 C.ar    
  28 C28           -7.0122     7.0840    -1.7415 C.ar    
  29 C29           -6.6638     6.9746    -3.0759 C.ar    
  30 C30           -5.3943     6.5496    -3.4232 C.ar    
  31 C31           -4.4740     6.2341    -2.4455 C.ar    
  32 C32           -4.8158     6.3417    -1.0997 C.ar    
  33 O33           -4.3921     6.1892     2.3194 O.2     
  34 F34            2.3846    -0.0046    -0.0211 F       
  35 H35            2.1695    -2.6057    -0.0327 H       
  36 H36            0.0518    -3.8549    -0.0201 H       
  37 H37           -2.0959    -2.6563     0.0057 H       
  38 H38           -2.1398    -0.1986     0.0317 H       
  39 H39           -2.0275     1.6343     0.0205 H       
  40 H40           -0.7010     3.9609     0.9169 H       
  41 H41           -0.7094     3.9706    -0.8630 H       
  42 H42           -3.1764     3.7204    -0.8527 H       
  43 H43           -3.1679     3.7107     0.9272 H       
  44 H44           -2.1710     5.9811     0.9349 H       
  45 H45           -2.1794     5.9908    -0.8451 H       
  46 H46          -10.8718     2.6285     1.5208 H       
  47 H47          -10.6030     2.0101     3.1817 H       
  48 H48          -10.1476     6.8742     2.7030 H       
  49 H49           -6.6074     3.8842     1.0187 H       
  50 H50           -6.2646     8.9428     0.5605 H       
  51 H51           -5.9526     8.3527     2.2269 H       
  52 H52           -8.0030     7.4154    -1.4680 H       
  53 H53           -7.3814     7.2208    -3.8446 H       
  54 H54           -5.1224     6.4641    -4.4649 H       
  55 H55           -3.4848     5.9024    -2.7246 H       
@<TRIPOS>BOND
   1    1    2 1
   2    1    8 2
   3    1    9 am
   4    2    3 ar
   5    2    7 ar
   6    3    4 ar
   7    3   34 1
   8    4    5 ar
   9    4   35 1
  10    5    6 ar
  11    5   36 1
  12    6    7 ar
  13    6   37 1
  14    7   38 1
  15    9   10 1
  16    9   39 1
  17   10   11 1
  18   10   40 1
  19   10   41 1
  20   11   12 1
  21   11   42 1
  22   11   43 1
  23   12   25 1
  24   12   44 1
  25   12   45 1
  26   13   14 1
  27   13   17 1
  28   14   15 1
  29   14   46 1
  30   14   47 1
  31   15   16 1
  32   16   17 ar
  33   16   18 ar
  34   17   21 ar
  35   18   19 ar
  36   18   48 1
  37   19   20 ar
  38   19   22 1
  39   20   21 ar
  40   20   23 1
  41   21   49 1
  42   22   24 1
  43   23   24 1
  44   23   26 1
  45   23   27 1
  46   24   50 1
  47   24   51 1
  48   25   26 am
  49   25   32 1
  50   26   33 2
  51   27   28 ar
  52   27   32 ar
  53   28   29 ar
  54   28   52 1
  55   29   30 ar
  56   29   53 1
  57   30   31 ar
  58   30   54 1
  59   31   32 ar
  60   31   55 1

#	End of record

