#	Name: ASD01884149
#	Creating user name:	WinNT
#	Creation time:	15. 06. 2019 19:47

#	Modifying user name:	WinNT
#	Modification time:	15. 06. 2019 19:47

#	Program:	/corina/corina34_cracker 3.40 0067  02.08.2006

@<TRIPOS>MOLECULE
ASD01884149
  26   27    0    0    0
SMALL
NO_CHARGES


@<TRIPOS>ATOM
   1 C1            -0.0179     1.4653     0.0101 C.3     
   2 N2             0.0021    -0.0041     0.0020 N.3     
   3 C3             0.6984    -0.5119    -1.1883 C.3     
   4 C4             2.1352     0.0152    -1.1992 C.3     
   5 N5             2.1153     1.4846    -1.1911 N.3     
   6 C6             1.4190     1.9924    -0.0008 C.3     
   7 C7            -1.2922    -0.5227     0.0841 C.ar    
   8 C8            -1.4922    -1.8973     0.0908 C.ar    
   9 C9            -2.7733    -2.4067     0.1726 C.ar    
  10 C10           -3.8562    -1.5501     0.2477 C.ar    
  11 C11           -3.6607    -0.1811     0.2413 C.ar    
  12 C12           -2.3820     0.3350     0.1650 C.ar    
  13 H13           -0.5445     1.8267    -0.8732 H       
  14 H14           -0.5275     1.8172     0.9071 H       
  15 H15            0.7109    -1.6016    -1.1650 H       
  16 H16            0.1799    -0.1730    -2.0852 H       
  17 H17            2.6619    -0.3462    -0.3159 H       
  18 H18            2.6449    -0.3367    -2.0962 H       
  19 H19            3.0503     1.8592    -1.2504 H       
  20 H20            1.4064     3.0821    -0.0241 H       
  21 H21            1.9375     1.6535     0.8961 H       
  22 H22           -0.6469    -2.5669     0.0318 H       
  23 H23           -2.9295    -3.4754     0.1775 H       
  24 H24           -4.8570    -1.9511     0.3112 H       
  25 H25           -4.5086     0.4851     0.3001 H       
  26 H26           -2.2296     1.4042     0.1645 H       
@<TRIPOS>BOND
   1    1    2 1
   2    1    6 1
   3    1   13 1
   4    1   14 1
   5    2    3 1
   6    2    7 1
   7    3    4 1
   8    3   15 1
   9    3   16 1
  10    4    5 1
  11    4   17 1
  12    4   18 1
  13    5    6 1
  14    5   19 1
  15    6   20 1
  16    6   21 1
  17    7    8 ar
  18    7   12 ar
  19    8    9 ar
  20    8   22 1
  21    9   10 ar
  22    9   23 1
  23   10   11 ar
  24   10   24 1
  25   11   12 ar
  26   11   25 1
  27   12   26 1

#	End of record

