#	Name: ASD02560283
#	Creating user name:	WinNT
#	Creation time:	15. 06. 2019 20:25

#	Modifying user name:	WinNT
#	Modification time:	15. 06. 2019 20:25

#	Program:	/corina/corina34_cracker 3.40 0067  02.08.2006

@<TRIPOS>MOLECULE
ASD02560283
  48   50    0    0    0
SMALL
NO_CHARGES


@<TRIPOS>ATOM
   1 N1            -0.0476     1.3400    -0.0057 N.ar    
   2 C2            -0.0510     0.0116    -0.0128 C.ar    
   3 C3             1.1666    -0.6668    -0.0090 C.ar    
   4 C4             2.3321     0.0765     0.0020 C.ar    
   5 N5             2.2546     1.3991     0.0086 N.ar    
   6 C6             1.0868     2.0100     0.0048 C.ar    
   7 O7            -1.2203    -0.6734    -0.0231 O.3     
   8 C8            -2.3762     0.0387    -0.0258 C.ar    
   9 C9            -4.7351     1.4926    -0.0315 C.ar    
  10 C10           -4.1429     1.1227     1.1791 C.ar    
  11 C11           -2.9700     0.4006     1.1774 C.ar    
  12 C12           -2.9593     0.4086    -1.2319 C.ar    
  13 C13           -4.1317     1.1315    -1.2392 C.ar    
  14 C14           -2.3299     0.0021     2.4822 C.3     
  15 C15           -2.3076     0.0186    -2.5335 C.3     
  16 C16           -5.9546     2.2433    -0.0344 C.1     
  17 N17           -6.9220     2.8388    -0.0368 N.1     
  18 S18            1.0414     3.7714     0.0133 S.o2    
  19 C19            1.0187     4.2151     1.7720 C.3     
  20 C20            0.9792     5.7152     1.9112 C.2     
  21 N21            0.9569     6.2780     3.1356 N.am    
  22 C22            1.0053     7.6713     3.2667 C.ar    
  23 O23            0.9675     6.4160     0.9213 O.2     
  24 C24            0.6039     9.8573     2.3663 C.ar    
  25 C25            0.5556     8.4829     2.2344 C.ar    
  26 C26            1.4985     8.2441     4.4331 C.ar    
  27 C27            1.5445     9.6194     4.5595 C.ar    
  28 C28            1.0997    10.4256     3.5262 C.ar    
  29 O29            2.2727     4.1566    -0.5823 O.2     
  30 O30           -0.2004     4.0929    -0.5981 O.2     
  31 Cl31           1.1588    12.1530     3.6880 Cl      
  32 Cl32           2.0554     7.2331     5.7297 Cl      
  33 H33            1.1987    -1.7463    -0.0142 H       
  34 H34            3.2939    -0.4148     0.0056 H       
  35 H35           -4.6060     1.3998     2.1146 H       
  36 H36           -4.5861     1.4153    -2.1769 H       
  37 H37           -2.7143    -0.9692     2.7937 H       
  38 H38           -1.2493    -0.0593     2.3530 H       
  39 H39           -2.5631     0.7464     3.2436 H       
  40 H40           -2.6895    -0.9503    -2.8551 H       
  41 H41           -2.5337     0.7681    -3.2919 H       
  42 H42           -1.2283    -0.0440    -2.3950 H       
  43 H43            0.1366     3.7831     2.2444 H       
  44 H44            1.9159     3.8289     2.2558 H       
  45 H45            0.9072     5.7179     3.9260 H       
  46 H46            0.2543    10.4888     1.5629 H       
  47 H47            0.1684     8.0402     1.3285 H       
  48 H48            1.9276    10.0655     5.4655 H       
@<TRIPOS>BOND
   1    1    2 ar
   2    1    6 ar
   3    2    3 ar
   4    2    7 1
   5    3    4 ar
   6    3   33 1
   7    4    5 ar
   8    4   34 1
   9    5    6 ar
  10    6   18 1
  11    7    8 1
  12    8   12 ar
  13    8   11 ar
  14    9   10 ar
  15    9   13 ar
  16    9   16 1
  17   10   11 ar
  18   10   35 1
  19   11   14 1
  20   12   13 ar
  21   12   15 1
  22   13   36 1
  23   14   37 1
  24   14   38 1
  25   14   39 1
  26   15   40 1
  27   15   41 1
  28   15   42 1
  29   16   17 3
  30   18   19 1
  31   18   29 2
  32   18   30 2
  33   19   20 1
  34   19   43 1
  35   19   44 1
  36   20   21 am
  37   20   23 2
  38   21   22 1
  39   21   45 1
  40   22   26 ar
  41   22   25 ar
  42   24   25 ar
  43   24   28 ar
  44   24   46 1
  45   25   47 1
  46   26   27 ar
  47   26   32 1
  48   27   28 ar
  49   27   48 1
  50   28   31 1

#	End of record

