#	Name: ASD02401023
#	Creating user name:	WinNT
#	Creation time:	15. 06. 2019 20:20

#	Modifying user name:	WinNT
#	Modification time:	15. 06. 2019 20:20

#	Program:	/corina/corina34_cracker 3.40 0067  02.08.2006

@<TRIPOS>MOLECULE
ASD02401023
  32   33    0    0    0
SMALL
NO_CHARGES


@<TRIPOS>ATOM
   1 C1            -0.0168     1.3849     0.0097 C.ar    
   2 C2             0.0021    -0.0041     0.0020 C.ar    
   3 C3             1.2161    -0.6790    -0.0132 C.ar    
   4 C4             2.3998     0.0323    -0.0207 C.ar    
   5 C5             2.3774     1.4150    -0.0126 C.ar    
   6 C6             1.1706     2.0901     0.0021 C.ar    
   7 C7             5.3892     3.2305    -1.4730 C.ar    
   8 C8             6.5960     2.5554    -1.4882 C.ar    
   9 C9             7.7834     3.2606    -1.4953 C.ar    
  10 C10            7.7645     4.6496    -1.4871 C.ar    
  11 C11            6.5505     5.3245    -1.4719 C.ar    
  12 C12            5.3668     4.6132    -1.4706 C.ar    
  13 N13            8.9636     5.3659    -1.4938 N.pl3   
  14 N14           -1.1970    -0.7204     0.0101 N.pl3   
  15 C15            3.6712     2.1879    -0.0203 C.3     
  16 C16            4.0955     2.4576    -1.4653 C.3     
  17 H17           -0.9590     1.9127     0.0170 H       
  18 H18            1.2343    -1.7589    -0.0188 H       
  19 H19            3.3440    -0.4918    -0.0325 H       
  20 H20            1.1567     3.1700     0.0084 H       
  21 H21            6.6099     1.4755    -1.4941 H       
  22 H22            8.7255     2.7328    -1.5067 H       
  23 H23            6.5324     6.4043    -1.4656 H       
  24 H24            4.4225     5.1373    -1.4591 H       
  25 H25            9.8107     4.8935    -1.5041 H       
  26 H26            8.9492     6.3357    -1.4882 H       
  27 H27           -2.0441    -0.2480     0.0210 H       
  28 H28           -1.1826    -1.6903     0.0047 H       
  29 H29            3.5315     3.1353     0.5003 H       
  30 H30            4.4442     1.6072     0.4830 H       
  31 H31            3.3224     3.0382    -1.9686 H       
  32 H32            4.2351     1.5102    -1.9859 H       
@<TRIPOS>BOND
   1    1    2 ar
   2    1    6 ar
   3    1   17 1
   4    2    3 ar
   5    2   14 1
   6    3    4 ar
   7    3   18 1
   8    4    5 ar
   9    4   19 1
  10    5    6 ar
  11    5   15 1
  12    6   20 1
  13    7    8 ar
  14    7   16 1
  15    7   12 ar
  16    8    9 ar
  17    8   21 1
  18    9   10 ar
  19    9   22 1
  20   10   11 ar
  21   10   13 1
  22   11   12 ar
  23   11   23 1
  24   12   24 1
  25   13   25 1
  26   13   26 1
  27   14   27 1
  28   14   28 1
  29   15   16 1
  30   15   29 1
  31   15   30 1
  32   16   31 1
  33   16   32 1

#	End of record

