#	Name: ASD03720010
#	Creating user name:	WinNT
#	Creation time:	15. 06. 2019 20:43

#	Modifying user name:	WinNT
#	Modification time:	15. 06. 2019 20:43

#	Program:	/corina/corina34_cracker 3.40 0067  02.08.2006

@<TRIPOS>MOLECULE
ASD03720010
  69   72    0    0    0
SMALL
NO_CHARGES


@<TRIPOS>ATOM
   1 C1            -0.0444     2.1464    -0.0786 C.3     
   2 C2             0.1280     0.6035     0.0092 C.3     
   3 C3             1.3439     2.6989    -0.2081 C.2     
   4 C4            -0.7815     2.4394     1.2302 C.3     
   5 C5            -1.2458     0.1248     0.4522 C.3     
   6 C6             0.6590     0.1265    -1.3224 C.3     
   7 C7             1.8462     3.5718     0.6586 C.2     
   8 C8             2.1362     2.1886    -1.4033 C.3     
   9 C9            -1.8215     1.2859     1.3043 C.3     
  10 C10           -2.1364    -0.1337    -0.7647 C.3     
  11 C11            2.0927     0.6633    -1.4692 C.3     
  12 C12            3.2154     4.0798     0.4810 C.2     
  13 C13           -3.4836    -0.6918    -0.3014 C.3     
  14 C14            3.6795     5.0330     1.2820 C.2     
  15 C15            5.1286     5.4580     1.2127 C.3     
  16 C16            2.7662     5.7158     2.2745 C.3     
  17 C17            5.1835     6.9724     0.9744 C.3     
  18 C18            2.8264     7.2297     2.0338 C.3     
  19 C19            4.2717     7.6509     1.9712 C.2     
  20 O20            4.7448     7.2652    -0.3537 O.3     
  21 O21            2.1766     7.9124     3.1078 O.3     
  22 C22            1.1527     0.2731     1.0963 C.3     
  23 C23            4.7293     8.5906     2.7610 C.2     
  24 C24           -4.3001    -1.1297    -1.5190 C.3     
  25 C25           -2.3604     1.1776    -1.5205 C.3     
  26 O26           -4.6593     0.0260    -2.3186 O.3     
  27 C27           -5.9873     0.1671    -2.4088 C.2     
  28 C28           -6.6904    -0.8901    -1.6714 C.2     
  29 C29           -5.6202    -1.7740    -1.0644 C.3     
  30 C30           -8.0078    -1.0415    -1.5579 C.2     
  31 O31           -6.5410     1.0579    -3.0228 O.2     
  32 H32           -0.6506     2.4216    -0.9417 H       
  33 H33           -0.0965     2.3970     2.0770 H       
  34 H34           -1.2807     3.4073     1.1840 H       
  35 H35           -1.1558    -0.7798     1.0537 H       
  36 H36            0.6674    -0.9632    -1.3484 H       
  37 H37            0.0352     0.5118    -2.1289 H       
  38 H38            1.2494     3.9083     1.4934 H       
  39 H39            1.7099     2.5998    -2.3184 H       
  40 H40            3.1723     2.5147    -1.3128 H       
  41 H41           -1.9502     0.9638     2.3377 H       
  42 H42           -2.7755     1.6151     0.8927 H       
  43 H43           -1.6517    -0.8544    -1.4233 H       
  44 H44            2.7086     0.2554    -0.6677 H       
  45 H45            2.4976     0.3374    -2.4273 H       
  46 H46            3.8434     3.6781    -0.3005 H       
  47 H47           -3.3167    -1.5486     0.3514 H       
  48 H48           -4.0284     0.0793     0.2432 H       
  49 H49            5.6258     5.2172     2.1523 H       
  50 H50            5.6229     4.9401     0.3909 H       
  51 H51            1.7444     5.3634     2.1341 H       
  52 H52            3.0966     5.4932     3.2891 H       
  53 H53            6.2048     7.3276     1.1118 H       
  54 H54            2.3304     7.4707     1.0936 H       
  55 H55            4.7543     8.2071    -0.5724 H       
  56 H56            2.1777     8.8754     3.0197 H       
  57 H57            0.8175     0.6840     2.0486 H       
  58 H58            1.2545    -0.8087     1.1830 H       
  59 H59            2.1163     0.7086     0.8318 H       
  60 H60            5.7662     8.8869     2.7034 H       
  61 H61            4.0695     9.0691     3.4696 H       
  62 H62           -3.7261    -1.8356    -2.1193 H       
  63 H63           -2.7210     1.9388    -0.8285 H       
  64 H64           -1.4208     1.5061    -1.9645 H       
  65 H65           -3.0991     1.0222    -2.3068 H       
  66 H66           -5.7013    -2.7906    -1.4491 H       
  67 H67           -5.6927    -1.7693     0.0231 H       
  68 H68           -8.6752    -0.3419    -2.0391 H       
  69 H69           -8.4094    -1.8640    -0.9847 H       
@<TRIPOS>BOND
   1    1    2 1
   2    1    3 1
   3    1    4 1
   4    1   32 1
   5    2    5 1
   6    2    6 1
   7    2   22 1
   8    3    7 2
   9    3    8 1
  10    4    9 1
  11    4   33 1
  12    4   34 1
  13    5   10 1
  14    5    9 1
  15    5   35 1
  16    6   11 1
  17    6   36 1
  18    6   37 1
  19    7   12 1
  20    7   38 1
  21    8   11 1
  22    8   39 1
  23    8   40 1
  24    9   41 1
  25    9   42 1
  26   10   13 1
  27   10   25 1
  28   10   43 1
  29   11   44 1
  30   11   45 1
  31   12   14 2
  32   12   46 1
  33   13   24 1
  34   13   47 1
  35   13   48 1
  36   14   15 1
  37   14   16 1
  38   15   17 1
  39   15   49 1
  40   15   50 1
  41   16   18 1
  42   16   51 1
  43   16   52 1
  44   17   19 1
  45   17   20 1
  46   17   53 1
  47   18   21 1
  48   18   19 1
  49   18   54 1
  50   19   23 2
  51   20   55 1
  52   21   56 1
  53   22   57 1
  54   22   58 1
  55   22   59 1
  56   23   60 1
  57   23   61 1
  58   24   26 1
  59   24   29 1
  60   24   62 1
  61   25   63 1
  62   25   64 1
  63   25   65 1
  64   26   27 1
  65   27   28 1
  66   27   31 2
  67   28   29 1
  68   28   30 2
  69   29   66 1
  70   29   67 1
  71   30   68 1
  72   30   69 1

#	End of record

