#	Name: ASD08070054
#	Creating user name:	WinNT
#	Creation time:	15. 06. 2019 21:14

#	Modifying user name:	WinNT
#	Modification time:	15. 06. 2019 21:14

#	Program:	/corina/corina34_cracker 3.40 0067  02.08.2006

@<TRIPOS>MOLECULE
ASD08070054
  46   47    0    0    0
SMALL
NO_CHARGES


@<TRIPOS>ATOM
   1 C1            -0.0169     1.3916     0.0097 C.ar    
   2 C2             0.0021    -0.0041     0.0020 C.ar    
   3 C3            -1.1845    -0.7103     0.0092 C.ar    
   4 C4            -2.4028    -0.0256     0.0242 C.ar    
   5 C5            -2.4149     1.3709     0.0319 C.ar    
   6 C6            -1.2277     2.0705     0.0198 C.ar    
   7 O7             1.2696     1.8438    -0.0002 O.3     
   8 C8             2.0762     0.7203     0.3996 C.3     
   9 O9             1.3020    -0.4216    -0.0122 O.3     
  10 C10           -3.6735    -0.7766     0.0314 C.2     
  11 N11           -4.8474    -0.1147     0.0459 N.am    
  12 O12           -3.6612    -1.9924     0.0243 O.2     
  13 C13           -6.1086    -0.8600     0.0530 C.3     
  14 C14           -7.1907    -0.0105     0.6682 C.2     
  15 C15           -6.4968    -1.2194    -1.3826 C.3     
  16 C16           -5.4606    -2.1827    -1.9651 C.3     
  17 C17           -5.5004    -3.5027    -1.1925 C.3     
  18 C18           -5.7791    -2.4444    -3.4386 C.3     
  19 O19           -6.9347     1.1032     1.0605 O.2     
  20 O20           -8.4389    -0.4912     0.7805 O.3     
  21 C21           -9.4300     0.3824     1.3830 C.3     
  22 C22          -10.7820    -0.3327     1.4250 C.3     
  23 C23          -11.8263     0.5877     2.0599 C.3     
  24 H24           -1.1711    -1.7902     0.0029 H       
  25 H25           -3.3549     1.9027     0.0436 H       
  26 H26           -1.2392     3.1504     0.0261 H       
  27 H27            3.0373     0.7368    -0.1144 H       
  28 H28            2.2188     0.7166     1.4802 H       
  29 H29           -4.8572     0.8553     0.0516 H       
  30 H30           -5.9878    -1.7730     0.6361 H       
  31 H31           -7.4774    -1.6954    -1.3856 H       
  32 H32           -6.5309    -0.3133    -1.9875 H       
  33 H33           -4.4671    -1.7422    -1.8808 H       
  34 H34           -4.7622    -4.1890    -1.6075 H       
  35 H35           -5.2735    -3.3163    -0.1428 H       
  36 H36           -6.4938    -3.9433    -1.2769 H       
  37 H37           -5.7507    -1.5040    -3.9890 H       
  38 H38           -5.0409    -3.1306    -3.8535 H       
  39 H39           -6.7725    -2.8849    -3.5229 H       
  40 H40           -9.1218     0.6365     2.3971 H       
  41 H41           -9.5191     1.2934     0.7913 H       
  42 H42          -11.0902    -0.5869     0.4108 H       
  43 H43          -10.6929    -1.2438     2.0167 H       
  44 H44          -11.5180     0.8419     3.0740 H       
  45 H45          -11.9153     1.4988     1.4681 H       
  46 H46          -12.7894     0.0783     2.0898 H       
@<TRIPOS>BOND
   1    1    2 ar
   2    1    7 1
   3    1    6 ar
   4    2    3 ar
   5    2    9 1
   6    3    4 ar
   7    3   24 1
   8    4    5 ar
   9    4   10 1
  10    5    6 ar
  11    5   25 1
  12    6   26 1
  13    7    8 1
  14    8    9 1
  15    8   27 1
  16    8   28 1
  17   10   11 am
  18   10   12 2
  19   11   13 1
  20   11   29 1
  21   13   14 1
  22   13   15 1
  23   13   30 1
  24   14   19 2
  25   14   20 1
  26   15   16 1
  27   15   31 1
  28   15   32 1
  29   16   17 1
  30   16   18 1
  31   16   33 1
  32   17   34 1
  33   17   35 1
  34   17   36 1
  35   18   37 1
  36   18   38 1
  37   18   39 1
  38   20   21 1
  39   21   22 1
  40   21   40 1
  41   21   41 1
  42   22   23 1
  43   22   42 1
  44   22   43 1
  45   23   44 1
  46   23   45 1
  47   23   46 1

#	End of record

