#	Name: ASD08150390
#	Creating user name:	WinNT
#	Creation time:	15. 06. 2019 21:15

#	Modifying user name:	WinNT
#	Modification time:	15. 06. 2019 21:15

#	Program:	/corina/corina34_cracker 3.40 0067  02.08.2006

@<TRIPOS>MOLECULE
ASD08150390
  67   72    0    0    0
SMALL
NO_CHARGES


@<TRIPOS>ATOM
   1 N1             0.6888     2.5505     2.2354 N.am    
   2 C2             1.2847     2.5881     3.4430 C.2     
   3 C3             2.5112     1.9301     3.6655 C.2     
   4 C4             3.1119     1.2458     2.6587 C.2     
   5 C5             2.4878     1.2041     1.3870 C.ar    
   6 C6             3.0679     0.5084     0.3090 C.ar    
   7 N7             2.4899     0.4716    -0.8631 N.ar    
   8 C8             1.3228     1.0867    -1.1074 C.ar    
   9 C9             0.6671     1.8102    -0.0810 C.ar    
  10 C10            1.2666     1.8697     1.1991 C.ar    
  11 C11           -0.5483     2.4485    -0.3460 C.ar    
  12 C12           -1.1000     2.3660    -1.6146 C.ar    
  13 C13           -0.4453     1.6477    -2.6252 C.ar    
  14 C14            0.7373     1.0216    -2.3825 C.ar    
  15 O15            0.7561     3.1999     4.3557 O.2     
  16 C16           -2.3884     3.0398    -1.9043 C.ar    
  17 C17           -0.5331     3.2079     2.0412 C.ar    
  18 C18           -0.5521     4.5643     1.7417 C.ar    
  19 C19           -1.7556     5.2120     1.5504 C.ar    
  20 C20           -2.9483     4.5073     1.6569 C.ar    
  21 C21           -2.9291     3.1510     1.9559 C.ar    
  22 C22           -1.7249     2.5023     2.1424 C.ar    
  23 N23           -4.1675     5.1634     1.4636 N.3     
  24 C24           -4.0225     6.2753     0.5137 C.3     
  25 C25           -4.7204     5.6345     2.7411 C.3     
  26 C26           -6.0888     6.2748     2.4965 C.3     
  27 N27           -5.9437     7.3868     1.5466 N.3     
  28 C28           -5.3909     6.9156     0.2691 C.3     
  29 C29           -3.5932     2.3399    -1.8028 C.ar    
  30 C30           -4.7700     3.0105    -2.0829 C.ar    
  31 C31           -4.7201     4.3479    -2.4535 C.ar    
  32 N32           -3.5646     4.9877    -2.5420 N.ar    
  33 C33           -2.4166     4.3880    -2.2780 C.ar    
  34 C34           -4.2227     2.3866     2.0719 C.3     
  35 F35           -3.9469     1.0229     2.2186 F       
  36 F36           -4.9345     2.8410     3.1873 F       
  37 F37           -4.9874     2.5862     0.9176 F       
  38 O38           -5.8725     5.0084    -2.7293 O.3     
  39 C39           -5.7587     6.3824    -3.1052 C.3     
  40 O40           -1.2560     5.0818    -2.3810 O.3     
  41 C41           -1.3519     6.4511    -2.7785 C.3     
  42 H42            2.9748     1.9708     4.6402 H       
  43 H43            4.0520     0.7407     2.8243 H       
  44 H44            4.0077    -0.0040     0.4530 H       
  45 H45           -1.0536     3.0013     0.4321 H       
  46 H46           -0.8860     1.5908    -3.6096 H       
  47 H47            1.2281     0.4730    -3.1728 H       
  48 H48            0.3750     5.1120     1.6589 H       
  49 H49           -1.7703     6.2666     1.3182 H       
  50 H50           -1.7098     1.4469     2.3712 H       
  51 H51           -3.3413     7.0195     0.9263 H       
  52 H52           -3.6234     5.8991    -0.4283 H       
  53 H53           -4.8301     4.7913     3.4229 H       
  54 H54           -4.0471     6.3715     3.1789 H       
  55 H55           -6.7700     5.5306     2.0839 H       
  56 H56           -6.4879     6.6510     3.4384 H       
  57 H57           -6.8237     7.8603     1.4071 H       
  58 H58           -5.2812     7.7588    -0.4128 H       
  59 H59           -6.0642     6.1786    -0.1688 H       
  60 H60           -3.6054     1.2996    -1.5128 H       
  61 H61           -5.7187     2.4988    -2.0144 H       
  62 H62           -6.7513     6.7898    -3.2975 H       
  63 H63           -5.2865     6.9420    -2.2978 H       
  64 H64           -5.1517     6.4634    -4.0069 H       
  65 H65           -1.9568     6.9979    -2.0552 H       
  66 H66           -0.3540     6.8876    -2.8216 H       
  67 H67           -1.8179     6.5122    -3.7620 H       
@<TRIPOS>BOND
   1    1    2 am
   2    1   10 1
   3    1   17 1
   4    2    3 1
   5    2   15 2
   6    3    4 2
   7    3   42 1
   8    4    5 1
   9    4   43 1
  10    5    6 ar
  11    5   10 ar
  12    6    7 ar
  13    6   44 1
  14    7    8 ar
  15    8    9 ar
  16    8   14 ar
  17    9   10 ar
  18    9   11 ar
  19   11   12 ar
  20   11   45 1
  21   12   13 ar
  22   12   16 1
  23   13   14 ar
  24   13   46 1
  25   14   47 1
  26   16   29 ar
  27   16   33 ar
  28   17   18 ar
  29   17   22 ar
  30   18   19 ar
  31   18   48 1
  32   19   20 ar
  33   19   49 1
  34   20   21 ar
  35   20   23 1
  36   21   22 ar
  37   21   34 1
  38   22   50 1
  39   23   24 1
  40   23   25 1
  41   24   28 1
  42   24   51 1
  43   24   52 1
  44   25   26 1
  45   25   53 1
  46   25   54 1
  47   26   27 1
  48   26   55 1
  49   26   56 1
  50   27   28 1
  51   27   57 1
  52   28   58 1
  53   28   59 1
  54   29   30 ar
  55   29   60 1
  56   30   31 ar
  57   30   61 1
  58   31   32 ar
  59   31   38 1
  60   32   33 ar
  61   33   40 1
  62   34   35 1
  63   34   36 1
  64   34   37 1
  65   38   39 1
  66   39   62 1
  67   39   63 1
  68   39   64 1
  69   40   41 1
  70   41   65 1
  71   41   66 1
  72   41   67 1

#	End of record

