#	Name: ASD01911661
#	Creating user name:	WinNT
#	Creation time:	15. 06. 2019 19:58

#	Modifying user name:	WinNT
#	Modification time:	15. 06. 2019 19:58

#	Program:	/corina/corina34_cracker 3.40 0067  02.08.2006

@<TRIPOS>MOLECULE
ASD01911661
  44   46    0    0    0
SMALL
NO_CHARGES


@<TRIPOS>ATOM
   1 N1            -0.0203     1.2504     0.4943 N.am    
   2 C2             0.0021    -0.0041     0.0020 C.2     
   3 C3             1.2748    -0.7187    -0.1246 C.2     
   4 C4             1.4470    -2.0747    -0.0500 C.2     
   5 S5             2.8518     0.0159    -0.4072 S.3     
   6 C6             3.5963    -1.5802    -0.3909 C.2     
   7 N7             2.6740    -2.4890    -0.1928 N.2     
   8 C8             4.9923    -1.8438    -0.5711 C.1     
   9 C9             6.1367    -2.0599    -0.7188 C.1     
  10 C10            7.5327    -2.3234    -0.8990 C.ar    
  11 C11            8.0097    -3.6374    -0.8661 C.ar    
  12 C12            9.3552    -3.8832    -1.0409 C.ar    
  13 C13           10.2329    -2.8333    -1.2481 C.ar    
  14 C14            9.7684    -1.5301    -1.2820 C.ar    
  15 C15            8.4248    -1.2686    -1.1146 C.ar    
  16 O16           -1.0350    -0.5432    -0.3374 O.2     
  17 C17            1.1994     1.8630     1.0382 C.3     
  18 C18            0.9082     2.3676     2.4550 C.3     
  19 C19           -0.3030     3.3024     2.4203 C.3     
  20 C20           -1.5283     2.5342     1.9198 C.3     
  21 C21           -1.2635     2.0334     0.4918 C.3     
  22 O22           -0.5578     3.8005     3.7353 O.3     
  23 C23           -1.1446     5.1032     3.7598 C.3     
  24 C24           -1.3718     5.5330     5.2105 C.3     
  25 H25            0.6236    -2.7534     0.1160 H       
  26 H26            7.3261    -4.4576    -0.7038 H       
  27 H27            9.7252    -4.8975    -1.0157 H       
  28 H28           11.2857    -3.0321    -1.3836 H       
  29 H29           10.4595    -0.7160    -1.4437 H       
  30 H30            8.0638    -0.2511    -1.1412 H       
  31 H31            1.9974     1.1212     1.0713 H       
  32 H32            1.5009     2.6991     0.4072 H       
  33 H33            0.6951     1.5201     3.1064 H       
  34 H34            1.7750     2.9092     2.8336 H       
  35 H35           -0.0986     4.1369     1.7494 H       
  36 H36           -1.7185     1.6851     2.5763 H       
  37 H37           -2.3957     3.1943     1.9176 H       
  38 H38           -1.1639     2.8849    -0.1814 H       
  39 H39           -2.0907     1.4025     0.1665 H       
  40 H40           -0.4760     5.8121     3.2713 H       
  41 H41           -2.0989     5.0818     3.2335 H       
  42 H42           -1.8194     6.5267     5.2292 H       
  43 H43           -2.0403     4.8241     5.6990 H       
  44 H44           -0.4175     5.5544     5.7368 H       
@<TRIPOS>BOND
   1    1    2 am
   2    1   17 1
   3    1   21 1
   4    2    3 1
   5    2   16 2
   6    3    4 2
   7    3    5 1
   8    4    7 1
   9    4   25 1
  10    5    6 1
  11    6    7 2
  12    6    8 1
  13    8    9 3
  14    9   10 1
  15   10   11 ar
  16   10   15 ar
  17   11   12 ar
  18   11   26 1
  19   12   13 ar
  20   12   27 1
  21   13   14 ar
  22   13   28 1
  23   14   15 ar
  24   14   29 1
  25   15   30 1
  26   17   18 1
  27   17   31 1
  28   17   32 1
  29   18   19 1
  30   18   33 1
  31   18   34 1
  32   19   20 1
  33   19   22 1
  34   19   35 1
  35   20   21 1
  36   20   36 1
  37   20   37 1
  38   21   38 1
  39   21   39 1
  40   22   23 1
  41   23   24 1
  42   23   40 1
  43   23   41 1
  44   24   42 1
  45   24   43 1
  46   24   44 1

#	End of record

