#	Name: ASD03091975
#	Creating user name:	WinNT
#	Creation time:	15. 06. 2019 20:31

#	Modifying user name:	WinNT
#	Modification time:	15. 06. 2019 20:31

#	Program:	/corina/corina34_cracker 3.40 0067  02.08.2006

@<TRIPOS>MOLECULE
ASD03091975
  51   55    0    0    0
SMALL
NO_CHARGES


@<TRIPOS>ATOM
   1 C1            -0.0150     1.4030     0.0122 C.ar    
   2 C2            -1.2279     2.0727     0.0343 C.ar    
   3 C3            -2.4095     1.3526     0.0344 C.ar    
   4 C4            -2.3909    -0.0327     0.0125 C.ar    
   5 C5            -1.1912    -0.7141    -0.0096 C.ar    
   6 C6             0.0034     0.0001    -0.0096 C.ar    
   7 O7             1.1657     2.0697     0.0167 O.3     
   8 C8             2.2614     1.4539     0.6938 C.3     
   9 N9             2.4083     0.0563     0.2863 N.am    
  10 C10            1.3155    -0.6785    -0.0267 C.2     
  11 C11           -3.6883    -0.7995     0.0133 C.3     
  12 C12           -4.1347    -1.0328    -1.4071 C.ar    
  13 C13           -4.9432    -0.1122    -2.0447 C.ar    
  14 C14           -3.7332    -2.1723    -2.0903 C.ar    
  15 C15           -4.1660    -2.3477    -3.3933 C.ar    
  16 C16           -4.9829    -1.3828    -3.9697 C.ar    
  17 N17           -5.3397    -0.3067    -3.2876 N.ar    
  18 O18            1.4104    -1.8567    -0.3116 O.2     
  19 C19            3.7407    -0.5489     0.2168 C.3     
  20 C20            4.5953     0.1751    -0.8440 C.3     
  21 C21            4.4691    -0.3755     1.5612 C.3     
  22 C22            5.7408     0.4477     1.2704 C.3     
  23 C23            5.4066     1.2156    -0.0326 C.3     
  24 O24            4.8241    -1.6531     2.0938 O.3     
  25 N25           -5.4272    -1.5477    -5.2851 N.pl3   
  26 C26           -6.2211    -0.6883    -5.9755 C.2     
  27 C27           -6.4172    -1.2120    -7.2073 C.2     
  28 C28           -5.7248    -2.4263    -7.2755 C.2     
  29 N29           -5.1281    -2.6256    -6.1285 N.2     
  30 F30           -1.2568     3.4232     0.0560 F       
  31 H31           -3.3546     1.8750     0.0521 H       
  32 H32           -1.1792    -1.7939    -0.0263 H       
  33 H33            3.1780     1.9943     0.4575 H       
  34 H34            2.0880     1.4972     1.7691 H       
  35 H35           -3.5432    -1.7584     0.5107 H       
  36 H36           -4.4487    -0.2264     0.5437 H       
  37 H37           -5.2550     0.7781    -1.5188 H       
  38 H38           -3.0972    -2.9052    -1.6162 H       
  39 H39           -3.8724    -3.2225    -3.9544 H       
  40 H40            3.6573    -1.6076    -0.0288 H       
  41 H41            5.2645    -0.5282    -1.3396 H       
  42 H42            3.9565     0.6737    -1.5730 H       
  43 H43            3.8312     0.1588     2.2652 H       
  44 H44            5.9381     1.1454     2.0843 H       
  45 H45            6.5951    -0.2115     1.1162 H       
  46 H46            6.3180     1.4929    -0.5622 H       
  47 H47            4.8005     2.0957     0.1823 H       
  48 H48            5.2869    -1.6109     2.9418 H       
  49 H49           -6.6232     0.2440    -5.6074 H       
  50 H50           -7.0051    -0.7709    -7.9986 H       
  51 H51           -5.6861    -3.0846    -8.1308 H       
@<TRIPOS>BOND
   1    1    6 ar
   2    1    7 1
   3    1    2 ar
   4    2    3 ar
   5    2   30 1
   6    3    4 ar
   7    3   31 1
   8    4    5 ar
   9    4   11 1
  10    5    6 ar
  11    5   32 1
  12    6   10 1
  13    7    8 1
  14    8    9 1
  15    8   33 1
  16    8   34 1
  17    9   10 am
  18    9   19 1
  19   10   18 2
  20   11   12 1
  21   11   35 1
  22   11   36 1
  23   12   14 ar
  24   12   13 ar
  25   13   17 ar
  26   13   37 1
  27   14   15 ar
  28   14   38 1
  29   15   16 ar
  30   15   39 1
  31   16   17 ar
  32   16   25 1
  33   19   21 1
  34   19   20 1
  35   19   40 1
  36   20   23 1
  37   20   41 1
  38   20   42 1
  39   21   22 1
  40   21   24 1
  41   21   43 1
  42   22   23 1
  43   22   44 1
  44   22   45 1
  45   23   46 1
  46   23   47 1
  47   24   48 1
  48   25   29 1
  49   25   26 1
  50   26   27 2
  51   26   49 1
  52   27   28 1
  53   27   50 1
  54   28   29 2
  55   28   51 1

#	End of record

