#	Name: ASD01940147
#	Creating user name:	WinNT
#	Creation time:	15. 06. 2019 20:11

#	Modifying user name:	WinNT
#	Modification time:	15. 06. 2019 20:11

#	Program:	/corina/corina34_cracker 3.40 0067  02.08.2006

@<TRIPOS>MOLECULE
ASD01940147
  39   40    0    0    0
SMALL
NO_CHARGES


@<TRIPOS>ATOM
   1 Br1            2.7878    -4.3912    -1.5790 Br      
   2 F2             1.9021     1.6004     2.2855 F       
   3 C3             1.0633     2.1517     1.3814 C.ar    
   4 C4             1.3878     2.1344     0.0314 C.ar    
   5 C5             0.5191     2.7046    -0.8977 C.ar    
   6 C6            -0.6649     3.2864    -0.4699 C.ar    
   7 C7            -0.9829     3.3008     0.8757 C.ar    
   8 C8            -0.1245     2.7300     1.7999 C.ar    
   9 N9             2.5859     1.5455    -0.3958 N.pl3   
  10 N10            0.8417     2.6904    -2.2612 N.am    
  11 C11            2.6328     0.1755    -0.6688 C.ar    
  12 C12            1.4777    -0.5906    -0.5852 C.ar    
  13 C13            1.5269    -1.9444    -0.8560 C.ar    
  14 C14            2.7254    -2.5377    -1.2099 C.ar    
  15 C15            3.8790    -1.7776    -1.2939 C.ar    
  16 C16            3.8352    -0.4221    -1.0303 C.ar    
  17 Cl17           5.2824     0.5310    -1.1359 Cl      
  18 F18           -0.4428     2.7418     3.1128 F       
  19 S19            0.4249     3.9716    -3.2241 S.o2    
  20 O20            0.9902     3.6575    -4.4894 O.2     
  21 O21           -0.9815     4.0908    -3.0594 O.2     
  22 C22            1.2754     5.3914    -2.4816 C.3     
  23 O23            0.9858     6.5689    -3.2377 O.3     
  24 C24           -0.5276     8.3397    -3.8813 C.3     
  25 C25           -0.3293     7.0866    -3.0263 C.3     
  26 H26           -1.3390     3.7290    -1.1883 H       
  27 H27           -1.9056     3.7545     1.2062 H       
  28 H28            3.3825     2.0888    -0.5021 H       
  29 H29            1.3092     1.9301    -2.6411 H       
  30 H30            0.5416    -0.1286    -0.3083 H       
  31 H31            0.6286    -2.5404    -0.7910 H       
  32 H32            4.8133    -2.2437    -1.5701 H       
  33 H33            0.9321     5.5247    -1.4557 H       
  34 H34            2.3507     5.2130    -2.4846 H       
  35 H35           -1.5307     8.7346    -3.7200 H       
  36 H36            0.2088     9.0923    -3.5994 H       
  37 H37           -0.4023     8.0851    -4.9337 H       
  38 H38           -1.0657     6.3340    -3.3082 H       
  39 H39           -0.4546     7.3412    -1.9739 H       
@<TRIPOS>BOND
   1    1   14 1
   2    2    3 1
   3    3    4 ar
   4    3    8 ar
   5    4    5 ar
   6    4    9 1
   7    5    6 ar
   8    5   10 1
   9    6    7 ar
  10    6   26 1
  11    7    8 ar
  12    7   27 1
  13    8   18 1
  14    9   11 1
  15    9   28 1
  16   10   19 am
  17   10   29 1
  18   11   12 ar
  19   11   16 ar
  20   12   13 ar
  21   12   30 1
  22   13   14 ar
  23   13   31 1
  24   14   15 ar
  25   15   16 ar
  26   15   32 1
  27   16   17 1
  28   19   20 2
  29   19   21 2
  30   19   22 1
  31   22   23 1
  32   22   33 1
  33   22   34 1
  34   23   25 1
  35   24   25 1
  36   24   35 1
  37   24   36 1
  38   24   37 1
  39   25   38 1
  40   25   39 1

#	End of record

