#	Name: ASD03092461
#	Creating user name:	WinNT
#	Creation time:	15. 06. 2019 20:32

#	Modifying user name:	WinNT
#	Modification time:	15. 06. 2019 20:32

#	Program:	/corina/corina34_cracker 3.40 0067  02.08.2006

@<TRIPOS>MOLECULE
ASD03092461
  61   64    0    0    0
SMALL
NO_CHARGES


@<TRIPOS>ATOM
   1 O1             0.1245     0.8115    -0.9122 O.3     
   2 N2             0.1514    -0.3844    -1.0890 N.2     
   3 C3             1.3713    -0.8256    -1.1971 C.2     
   4 C4             2.2162     0.2998    -1.0617 C.2     
   5 C5             1.3590     1.3326    -0.8794 C.2     
   6 C6             1.7924     3.4706    -2.0184 C.2     
   7 C7             1.7217     2.7817    -0.6799 C.3     
   8 O8             1.5703     2.8464    -3.0342 O.2     
   9 N9             2.1026     4.7804    -2.0866 N.am    
  10 C10            1.7983    -2.2533    -1.4218 C.3     
  11 C11            2.1714     5.4501    -3.3877 C.3     
  12 S12            2.4604     9.4075    -2.8837 S.3     
  13 C13            3.9607     8.5883    -2.8976 C.2     
  14 N14            3.7765     7.3132    -3.0653 N.2     
  15 C15            2.5341     6.8992    -3.1883 C.2     
  16 C16            1.6117     7.8819    -3.1208 C.2     
  17 C17           -1.9752     8.3289    -4.1400 C.ar    
  18 C18           -0.6130     8.5259    -4.0717 C.ar    
  19 C19            0.1497     7.7091    -3.2263 C.ar    
  20 C20           -0.5145     6.7232    -2.4844 C.ar    
  21 C21           -1.8806     6.5968    -2.6142 C.ar    
  22 N22           -2.5611     7.3878    -3.4231 N.ar    
  23 C23           -2.6078     5.5409    -1.8222 C.3     
  24 C24           -2.8084     9.2043    -5.0403 C.3     
  25 N25            5.1944     9.1961    -2.7517 N.3     
  26 C26            5.0490    10.6490    -2.5811 C.3     
  27 C27            6.4371    11.2874    -2.4834 C.3     
  28 O28            7.1585    10.6851    -1.4052 O.3     
  29 C29            7.3192     9.2704    -1.5393 C.3     
  30 C30            5.9400     8.6116    -1.6275 C.3     
  31 C31            8.0696     8.7239    -0.3231 C.3     
  32 C32            6.2921    12.7885    -2.2255 C.3     
  33 H33            3.2953     0.3291    -1.0951 H       
  34 H34            0.9640     3.2642    -0.0626 H       
  35 H35            2.6905     2.8489    -0.1850 H       
  36 H36            2.2803     5.2797    -1.2741 H       
  37 H37            1.8655    -2.4483    -2.4921 H       
  38 H38            2.7721    -2.4181    -0.9606 H       
  39 H39            1.0663    -2.9261    -0.9751 H       
  40 H40            2.9291     4.9676    -4.0051 H       
  41 H41            1.2026     5.3828    -3.8826 H       
  42 H42           -0.1404     9.2976    -4.6613 H       
  43 H43            0.0357     6.0722    -1.8212 H       
  44 H44           -2.9180     5.9554    -0.8631 H       
  45 H45           -3.4864     5.2114    -2.3769 H       
  46 H46           -1.9450     4.6921    -1.6539 H       
  47 H47           -2.8744     8.7501    -6.0289 H       
  48 H48           -3.8090     9.3087    -4.6208 H       
  49 H49           -2.3444    10.1872    -5.1222 H       
  50 H50            4.5167    11.0645    -3.4367 H       
  51 H51            4.4890    10.8541    -1.6687 H       
  52 H52            6.9774    11.1282    -3.4166 H       
  53 H53            7.8851     9.0526    -2.4451 H       
  54 H54            5.3943     8.7841    -0.6998 H       
  55 H55            6.0581     7.5398    -1.7871 H       
  56 H56            7.5018     8.9406     0.5817 H       
  57 H57            8.1918     7.6457    -0.4259 H       
  58 H58            9.0499     9.1961    -0.2587 H       
  59 H59            5.7534    12.9463    -1.2912 H       
  60 H60            7.2807    13.2424    -2.1561 H       
  61 H61            5.7390    13.2463    -3.0456 H       
@<TRIPOS>BOND
   1    1    2 1
   2    1    5 1
   3    2    3 2
   4    3    4 1
   5    3   10 1
   6    4    5 2
   7    4   33 1
   8    5    7 1
   9    6    7 1
  10    6    8 2
  11    6    9 am
  12    7   34 1
  13    7   35 1
  14    9   11 1
  15    9   36 1
  16   10   37 1
  17   10   38 1
  18   10   39 1
  19   11   15 1
  20   11   40 1
  21   11   41 1
  22   12   13 1
  23   12   16 1
  24   13   14 2
  25   13   25 1
  26   14   15 1
  27   15   16 2
  28   16   19 1
  29   17   18 ar
  30   17   22 ar
  31   17   24 1
  32   18   19 ar
  33   18   42 1
  34   19   20 ar
  35   20   21 ar
  36   20   43 1
  37   21   22 ar
  38   21   23 1
  39   23   44 1
  40   23   45 1
  41   23   46 1
  42   24   47 1
  43   24   48 1
  44   24   49 1
  45   25   26 1
  46   25   30 1
  47   26   27 1
  48   26   50 1
  49   26   51 1
  50   27   28 1
  51   27   32 1
  52   27   52 1
  53   28   29 1
  54   29   30 1
  55   29   31 1
  56   29   53 1
  57   30   54 1
  58   30   55 1
  59   31   56 1
  60   31   57 1
  61   31   58 1
  62   32   59 1
  63   32   60 1
  64   32   61 1

#	End of record

