#	Name: ASD03090708
#	Creating user name:	WinNT
#	Creation time:	15. 06. 2019 20:29

#	Modifying user name:	WinNT
#	Modification time:	15. 06. 2019 20:29

#	Program:	/corina/corina34_cracker 3.40 0067  02.08.2006

@<TRIPOS>MOLECULE
ASD03090708
  35   36    0    0    0
SMALL
NO_CHARGES


@<TRIPOS>ATOM
   1 N1            -0.0162     1.3436     0.0094 N.am    
   2 C2             0.0227     0.1485     0.6313 C.2     
   3 O3             1.0775    -0.2815     1.0566 O.2     
   4 N4            -1.1077    -0.5700     0.7817 N.am    
   5 O5            -1.7242    -3.6115     2.2251 O.3     
   6 N6            -2.0746    -2.6111     1.6433 N.2     
   7 C7            -1.0674    -1.8067     1.4253 C.2     
   8 C8             0.0761    -2.4451     1.9749 C.2     
   9 C9            -0.4072    -3.6043     2.4767 C.2     
  10 C10            0.3808    -4.6783     3.1816 C.3     
  11 C11            1.1436     2.1300    -0.0729 C.ar    
  12 C12            1.0404     3.5151    -0.2026 C.ar    
  13 C13            2.1888     4.2890    -0.2832 C.ar    
  14 C14            3.4357     3.6845    -0.2345 C.ar    
  15 C15            3.5359     2.3063    -0.1054 C.ar    
  16 C16            2.3927     1.5318    -0.0195 C.ar    
  17 S17           -0.5456     4.2801    -0.2647 S.3     
  18 C18           -0.1431     6.0409    -0.4331 C.3     
  19 O19            4.5617     4.4429    -0.3139 O.3     
  20 C20            4.3850     5.8547    -0.4462 C.3     
  21 Cl21           5.0989     1.5533    -0.0448 Cl      
  22 H22           -0.8447     1.6584    -0.3848 H       
  23 H23           -1.9492    -0.2270     0.4424 H       
  24 H24            1.0951    -2.0878     1.9889 H       
  25 H25           -0.2876    -5.4900     3.4689 H       
  26 H26            1.1515    -5.0616     2.5129 H       
  27 H27            0.8484    -4.2600     4.0729 H       
  28 H28            2.1118     5.3615    -0.3840 H       
  29 H29            2.4736     0.4600     0.0851 H       
  30 H30           -1.0645     6.6212    -0.4819 H       
  31 H31            0.4441     6.3632     0.4268 H       
  32 H32            0.4330     6.1963    -1.3452 H       
  33 H33            5.3598     6.3395    -0.4987 H       
  34 H34            3.8242     6.0670    -1.3564 H       
  35 H35            3.8362     6.2345     0.4156 H       
@<TRIPOS>BOND
   1    1    2 am
   2    1   11 1
   3    1   22 1
   4    2    3 2
   5    2    4 am
   6    4    7 1
   7    4   23 1
   8    5    6 1
   9    5    9 1
  10    6    7 2
  11    7    8 1
  12    8    9 2
  13    8   24 1
  14    9   10 1
  15   10   25 1
  16   10   26 1
  17   10   27 1
  18   11   12 ar
  19   11   16 ar
  20   12   13 ar
  21   12   17 1
  22   13   14 ar
  23   13   28 1
  24   14   15 ar
  25   14   19 1
  26   15   16 ar
  27   15   21 1
  28   16   29 1
  29   17   18 1
  30   18   30 1
  31   18   31 1
  32   18   32 1
  33   19   20 1
  34   20   33 1
  35   20   34 1
  36   20   35 1

#	End of record

