#	Name: ASD05313002
#	Creating user name:	WinNT
#	Creation time:	15. 06. 2019 20:58

#	Modifying user name:	WinNT
#	Modification time:	15. 06. 2019 20:58

#	Program:	/corina/corina34_cracker 3.40 0067  02.08.2006

@<TRIPOS>MOLECULE
ASD05313002
  65   69    0    0    0
SMALL
NO_CHARGES


@<TRIPOS>ATOM
   1 C1            -0.0278     1.3815     0.0056 C.ar    
   2 C2            -0.0019     0.0023    -0.0085 C.ar    
   3 C3             1.2389    -0.6659    -0.0414 C.ar    
   4 C4             2.4374     0.0872    -0.0595 C.ar    
   5 C5             2.3667     1.4903    -0.0446 C.ar    
   6 C6             1.1554     2.1122    -0.0123 C.ar    
   7 C7             1.3109    -2.0718    -0.0563 C.ar    
   8 C8             2.5421    -2.6558    -0.0878 C.ar    
   9 C9             3.6934    -1.8563    -0.1045 C.ar    
  10 N10            3.6190    -0.5411    -0.0900 N.ar    
  11 N11            4.9397    -2.4639    -0.1366 N.pl3   
  12 C12            5.0419    -3.9252    -0.1527 C.3     
  13 C13            6.5161    -4.3330    -0.1877 C.3     
  14 N14            6.6186    -5.7983    -0.2038 N.3     
  15 C15            8.0232    -6.2274    -0.2376 C.3     
  16 C16            8.0892    -7.7559    -0.2535 C.3     
  17 O17            7.5152    -8.2449    -1.4674 O.3     
  18 N18           -1.1928    -0.7245     0.0100 N.am    
  19 C19           -2.2568    -0.2573     0.6927 C.2     
  20 O20           -2.1500     0.7408     1.3733 O.2     
  21 C21           -3.5793    -0.9752     0.6102 C.3     
  22 C22           -4.6110    -0.2440     1.4715 C.3     
  23 C23           -5.9537    -0.9728     1.3878 C.3     
  24 C24           -4.1349    -0.2175     2.9253 C.3     
  25 C25           -5.1666     0.5137     3.7866 C.3     
  26 C26           -5.3318     1.9471     3.2778 C.3     
  27 C27           -5.8080     1.9206     1.8240 C.3     
  28 C28           -7.1506     1.1918     1.7403 C.3     
  29 C29           -6.9854    -0.2416     2.2491 C.3     
  30 C30           -6.5093    -0.2151     3.7029 C.3     
  31 C31           -4.7762     1.1894     0.9627 C.3     
  32 H32           -0.9757     1.8986     0.0263 H       
  33 H33            3.2738     2.0763    -0.0581 H       
  34 H34            1.1129     3.1914    -0.0010 H       
  35 H35            0.4133    -2.6724    -0.0427 H       
  36 H36            2.6304    -3.7321    -0.0995 H       
  37 H37            5.7436    -1.9213    -0.1485 H       
  38 H38            4.5736    -4.3321     0.7436 H       
  39 H39            4.5360    -4.3152    -1.0359 H       
  40 H40            6.9844    -3.9261    -1.0840 H       
  41 H41            7.0220    -3.9430     0.6955 H       
  42 H42            6.1357    -6.2033     0.5841 H       
  43 H43            8.5019    -5.8337    -1.1342 H       
  44 H44            8.5395    -5.8506     0.6453 H       
  45 H45            9.1293    -8.0754    -0.1889 H       
  46 H46            7.5339    -8.1525     0.5965 H       
  47 H47            7.5231    -9.2087    -1.5459 H       
  48 H48           -1.2549    -1.5661    -0.4683 H       
  49 H49           -3.9185    -0.9941    -0.4255 H       
  50 H50           -3.4616    -1.9964     0.9727 H       
  51 H51           -6.2929    -0.9917     0.3521 H       
  52 H52           -5.8360    -1.9940     1.7503 H       
  53 H53           -4.0172    -1.2387     3.2878 H       
  54 H54           -3.1784     0.3017     2.9849 H       
  55 H55           -4.8274     0.5326     4.8223 H       
  56 H56           -6.0669     2.4680     3.8914 H       
  57 H57           -4.3753     2.4664     3.3374 H       
  58 H58           -5.9256     2.9418     1.4615 H       
  59 H59           -7.8856     1.7127     2.3539 H       
  60 H60           -7.4898     1.1729     0.7046 H       
  61 H61           -7.9420    -0.7608     2.1895 H       
  62 H62           -6.3916    -1.2363     4.0654 H       
  63 H63           -7.2443     0.3058     4.3165 H       
  64 H64           -3.8197     1.7086     1.0223 H       
  65 H65           -5.1154     1.1705    -0.0730 H       
@<TRIPOS>BOND
   1    1    2 ar
   2    1    6 ar
   3    1   32 1
   4    2    3 ar
   5    2   18 1
   6    3    4 ar
   7    3    7 ar
   8    4    5 ar
   9    4   10 ar
  10    5    6 ar
  11    5   33 1
  12    6   34 1
  13    7    8 ar
  14    7   35 1
  15    8    9 ar
  16    8   36 1
  17    9   10 ar
  18    9   11 1
  19   11   12 1
  20   11   37 1
  21   12   13 1
  22   12   38 1
  23   12   39 1
  24   13   14 1
  25   13   40 1
  26   13   41 1
  27   14   15 1
  28   14   42 1
  29   15   16 1
  30   15   43 1
  31   15   44 1
  32   16   17 1
  33   16   45 1
  34   16   46 1
  35   17   47 1
  36   18   19 am
  37   18   48 1
  38   19   20 2
  39   19   21 1
  40   21   22 1
  41   21   49 1
  42   21   50 1
  43   22   23 1
  44   22   24 1
  45   22   31 1
  46   23   29 1
  47   23   51 1
  48   23   52 1
  49   24   25 1
  50   24   53 1
  51   24   54 1
  52   25   26 1
  53   25   30 1
  54   25   55 1
  55   26   27 1
  56   26   56 1
  57   26   57 1
  58   27   28 1
  59   27   31 1
  60   27   58 1
  61   28   29 1
  62   28   59 1
  63   28   60 1
  64   29   30 1
  65   29   61 1
  66   30   62 1
  67   30   63 1
  68   31   64 1
  69   31   65 1

#	End of record

