#	Name: ASD01911381
#	Creating user name:	WinNT
#	Creation time:	15. 06. 2019 19:57

#	Modifying user name:	WinNT
#	Modification time:	15. 06. 2019 19:57

#	Program:	/corina/corina34_cracker 3.40 0067  02.08.2006

@<TRIPOS>MOLECULE
ASD01911381
  46   49    0    0    0
SMALL
NO_CHARGES


@<TRIPOS>ATOM
   1 C1            -0.0173     1.4278     0.0099 C.ar    
   2 C2             0.0021    -0.0041     0.0020 C.1     
   3 C3             0.0180    -1.1779    -0.0044 C.1     
   4 C4             0.0374    -2.6098    -0.0123 C.ar    
   5 N5            -1.1126    -3.2811    -0.0049 N.ar    
   6 C6            -1.1402    -4.5954    -0.0108 C.ar    
   7 C7             0.0510    -5.3262    -0.0416 C.ar    
   8 C8             1.2772    -4.6524    -0.0428 C.ar    
   9 C9             1.2645    -3.2821    -0.0334 C.ar    
  10 C10           -2.4537    -5.3334     0.0374 C.3     
  11 C11           -2.3546    -6.6319    -0.7588 C.3     
  12 N12           -1.1812    -7.4046    -0.3572 N.am    
  13 C13           -0.0076    -6.7990    -0.0930 C.2     
  14 O14            0.9942    -7.4601     0.1009 O.2     
  15 C15           -1.2831    -8.8613    -0.2396 C.3     
  16 C16           -0.2937    -9.5211    -1.2023 C.3     
  17 C17           -0.4002   -11.0424    -1.0795 C.3     
  18 C18           -0.0732   -11.4624     0.3549 C.3     
  19 C19           -1.0626   -10.8026     1.3176 C.3     
  20 C20           -0.9562    -9.2813     1.1948 C.3     
  21 C21            1.1759     2.1550     0.0024 C.ar    
  22 N22            1.1570     3.4716     0.0092 N.ar    
  23 C23            0.0271     4.1525     0.0232 C.ar    
  24 C24           -1.1970     3.5071     0.0318 C.ar    
  25 C25           -1.2339     2.1246     0.0194 C.ar    
  26 H26            2.2092    -5.1980    -0.0553 H       
  27 H27            2.1912    -2.7273    -0.0338 H       
  28 H28           -2.7016    -5.5628     1.0737 H       
  29 H29           -3.2365    -4.7065    -0.3894 H       
  30 H30           -3.2513    -7.2271    -0.5860 H       
  31 H31           -2.2816    -6.3961    -1.8205 H       
  32 H32           -2.2967    -9.1758    -0.4883 H       
  33 H33           -0.5266    -9.2219    -2.2242 H       
  34 H34            0.7198    -9.2065    -0.9537 H       
  35 H35           -1.4137   -11.3570    -1.3281 H       
  36 H36            0.3047   -11.5125    -1.7653 H       
  37 H37           -0.1490   -12.5463     0.4424 H       
  38 H38            0.9404   -11.1479     0.6036 H       
  39 H39           -2.0762   -11.1172     1.0690 H       
  40 H40           -0.8297   -11.1018     2.3395 H       
  41 H41            0.0574    -8.9667     1.4434 H       
  42 H42           -1.6610    -8.8112     1.8806 H       
  43 H43            2.1213     1.6330    -0.0087 H       
  44 H44            0.0580     5.2320     0.0283 H       
  45 H45           -2.1141     4.0772     0.0436 H       
  46 H46           -2.1754     1.5954     0.0253 H       
@<TRIPOS>BOND
   1    1    2 1
   2    1   21 ar
   3    1   25 ar
   4    2    3 3
   5    3    4 1
   6    4    5 ar
   7    4    9 ar
   8    5    6 ar
   9    6    7 ar
  10    6   10 1
  11    7    8 ar
  12    7   13 1
  13    8    9 ar
  14    8   26 1
  15    9   27 1
  16   10   11 1
  17   10   28 1
  18   10   29 1
  19   11   12 1
  20   11   30 1
  21   11   31 1
  22   12   13 am
  23   12   15 1
  24   13   14 2
  25   15   16 1
  26   15   20 1
  27   15   32 1
  28   16   17 1
  29   16   33 1
  30   16   34 1
  31   17   18 1
  32   17   35 1
  33   17   36 1
  34   18   19 1
  35   18   37 1
  36   18   38 1
  37   19   20 1
  38   19   39 1
  39   19   40 1
  40   20   41 1
  41   20   42 1
  42   21   22 ar
  43   21   43 1
  44   22   23 ar
  45   23   24 ar
  46   23   44 1
  47   24   25 ar
  48   24   45 1
  49   25   46 1

#	End of record

