#	Name: ASD03430304
#	Creating user name:	WinNT
#	Creation time:	15. 06. 2019 20:40

#	Modifying user name:	WinNT
#	Modification time:	15. 06. 2019 20:40

#	Program:	/corina/corina34_cracker 3.40 0067  02.08.2006

@<TRIPOS>MOLECULE
ASD03430304
  49   54    0    0    0
SMALL
NO_CHARGES


@<TRIPOS>ATOM
   1 C1            -0.0166     1.3737     0.0096 C.ar    
   2 C2             0.0021    -0.0041     0.0020 C.ar    
   3 C3             1.2039    -0.6793    -0.0058 C.ar    
   4 C4             2.4065     0.0236     0.0048 C.ar    
   5 C5             2.3788     1.4126     0.0036 C.ar    
   6 C6             1.1692     2.0977     0.0022 C.ar    
   7 O7             3.4725    -0.8262     0.0284 O.3     
   8 C8             1.5596    -2.1407    -0.0385 C.3     
   9 C9             3.0497    -2.1322    -0.4078 C.3     
  10 C10            0.4371    -3.8656     1.0011 C.ar    
  11 C11            1.3127    -2.8210     1.2748 C.ar    
  12 C12            0.7423    -2.9039    -1.0413 C.2     
  13 N13            0.1219    -3.8878    -0.3603 N.am    
  14 O14            0.6573    -2.6790    -2.2301 O.2     
  15 C15            1.7650    -2.6013     2.5713 C.ar    
  16 C16            1.3381    -3.4383     3.6061 C.ar    
  17 C17            0.4705    -4.4755     3.3320 C.ar    
  18 C18            0.0215    -4.6914     2.0441 C.ar    
  19 C19           -0.7776    -4.8668    -0.9756 C.3     
  20 C20           -1.1521     2.3780     0.0355 C.3     
  21 C21           -0.4181     3.6807     0.4326 C.3     
  22 O22            0.9260     3.4378    -0.0160 O.3     
  23 C23           -2.2109    -4.3325    -0.9447 C.3     
  24 C24           -3.1656    -5.3556    -1.5901 C.3     
  25 C25           -4.1863    -5.6798    -0.4722 C.3     
  26 C26           -4.0476    -4.4499     0.4608 C.3     
  27 O27           -2.6357    -4.1510     0.4164 O.3     
  28 C28            2.6644    -1.5212     2.8453 C.1     
  29 N29            3.3779    -0.6644     3.0627 N.1     
  30 H30           -0.9263    -0.5559     0.0026 H       
  31 H31            3.3064     1.9657     0.0039 H       
  32 H32            3.1822    -2.2424    -1.4841 H       
  33 H33            3.5865    -2.9129     0.1312 H       
  34 H34            1.6854    -3.2738     4.6154 H       
  35 H35            0.1404    -5.1235     4.1304 H       
  36 H36           -0.6576    -5.5068     1.8434 H       
  37 H37           -0.4759    -5.0383    -2.0089 H       
  38 H38           -0.7274    -5.8045    -0.4220 H       
  39 H39           -1.6101     2.4736    -0.9490 H       
  40 H40           -1.8957     2.1060     0.7847 H       
  41 H41           -0.8483     4.5390    -0.0834 H       
  42 H42           -0.4446     3.8250     1.5127 H       
  43 H43           -2.2648    -3.3853    -1.4816 H       
  44 H44           -3.6695    -4.9168    -2.4513 H       
  45 H45           -2.6214    -6.2538    -1.8820 H       
  46 H46           -5.1963    -5.7497    -0.8761 H       
  47 H47           -3.9133    -6.5968     0.0499 H       
  48 H48           -4.6296    -3.6110     0.0792 H       
  49 H49           -4.3550    -4.7015     1.4758 H       
@<TRIPOS>BOND
   1    1    2 ar
   2    1    6 ar
   3    1   20 1
   4    2    3 ar
   5    2   30 1
   6    3    4 ar
   7    3    8 1
   8    4    5 ar
   9    4    7 1
  10    5    6 ar
  11    5   31 1
  12    6   22 1
  13    7    9 1
  14    8    9 1
  15    8   11 1
  16    8   12 1
  17    9   32 1
  18    9   33 1
  19   10   11 ar
  20   10   13 1
  21   10   18 ar
  22   11   15 ar
  23   12   13 am
  24   12   14 2
  25   13   19 1
  26   15   16 ar
  27   15   28 1
  28   16   17 ar
  29   16   34 1
  30   17   18 ar
  31   17   35 1
  32   18   36 1
  33   19   23 1
  34   19   37 1
  35   19   38 1
  36   20   21 1
  37   20   39 1
  38   20   40 1
  39   21   22 1
  40   21   41 1
  41   21   42 1
  42   23   24 1
  43   23   27 1
  44   23   43 1
  45   24   25 1
  46   24   44 1
  47   24   45 1
  48   25   26 1
  49   25   46 1
  50   25   47 1
  51   26   27 1
  52   26   48 1
  53   26   49 1
  54   28   29 3

#	End of record

