#	Name: ASD01200052
#	Creating user name:	WinNT
#	Creation time:	15. 06. 2019 19:08

#	Modifying user name:	WinNT
#	Modification time:	15. 06. 2019 19:08

#	Program:	/corina/corina34_cracker 3.40 0067  02.08.2006

@<TRIPOS>MOLECULE
ASD01200052
  37   39    0    0    0
SMALL
NO_CHARGES


@<TRIPOS>ATOM
   1 C1             0.0382     1.2892    -0.1766 C.ar    
   2 C2            -0.1906    -0.0375     0.1758 C.ar    
   3 C3            -1.4660    -0.5611     0.1294 C.ar    
   4 C4            -2.5325     0.2341    -0.2697 C.ar    
   5 C5            -2.3092     1.5731    -0.6261 C.ar    
   6 C6            -1.0150     2.0964    -0.5711 C.ar    
   7 C7            -3.4350     2.4243    -1.0509 C.2     
   8 N8            -3.2438     3.7429    -1.2538 N.am    
   9 C9            -4.3047     4.5451    -1.6542 C.2     
  10 N10           -4.2292     5.8201    -1.8761 N.2     
  11 C11           -5.3389     6.4279    -2.2522 C.2     
  12 C12           -6.4026     5.6285    -2.3528 C.2     
  13 S13           -5.8987     3.9933    -1.9332 S.3     
  14 O14           -4.5365     1.9368    -1.2184 O.2     
  15 C15           -5.3997     7.9051    -2.5442 C.3     
  16 S16            1.6722     1.9455    -0.1136 S.3     
  17 N17           -3.8183    -0.2952    -0.3165 N.pl3   
  18 C18            2.2558     1.4668    -1.7057 C.2     
  19 N19            1.5724     0.8313    -2.6290 N.2     
  20 N20            2.3087     0.6442    -3.6658 N.2     
  21 C21            3.4955     1.1448    -3.4679 C.2     
  22 N22            3.5028     1.6918    -2.2148 N.pl3   
  23 C23            4.6195     2.3705    -1.5525 C.3     
  24 H24            0.6348    -0.6607     0.4870 H       
  25 H25           -1.6356    -1.5918     0.4038 H       
  26 H26           -0.8354     3.1258    -0.8439 H       
  27 H27           -2.3652     4.1318    -1.1203 H       
  28 H28           -7.3977     5.9304    -2.6443 H       
  29 H29           -5.1827     8.0762    -3.5986 H       
  30 H30           -6.3965     8.2804    -2.3129 H       
  31 H31           -4.6639     8.4270    -1.9325 H       
  32 H32           -3.9456    -1.2528    -0.4051 H       
  33 H33           -4.5874     0.2932    -0.2605 H       
  34 H34            4.3193     1.1336    -4.1661 H       
  35 H35            4.5825     3.4361    -1.7785 H       
  36 H36            4.5454     2.2249    -0.4748 H       
  37 H37            5.5613     1.9554    -1.9113 H       
@<TRIPOS>BOND
   1    1    2 ar
   2    1   16 1
   3    1    6 ar
   4    2    3 ar
   5    2   24 1
   6    3    4 ar
   7    3   25 1
   8    4    5 ar
   9    4   17 1
  10    5    6 ar
  11    5    7 1
  12    6   26 1
  13    7    8 am
  14    7   14 2
  15    8    9 1
  16    8   27 1
  17    9   10 2
  18    9   13 1
  19   10   11 1
  20   11   12 2
  21   11   15 1
  22   12   13 1
  23   12   28 1
  24   15   29 1
  25   15   30 1
  26   15   31 1
  27   16   18 1
  28   17   32 1
  29   17   33 1
  30   18   19 2
  31   18   22 1
  32   19   20 1
  33   20   21 2
  34   21   22 1
  35   21   34 1
  36   22   23 1
  37   23   35 1
  38   23   36 1
  39   23   37 1

#	End of record

