#	Name: ASD09116171
#	Creating user name:	WinNT
#	Creation time:	15. 06. 2019 21:20

#	Modifying user name:	WinNT
#	Modification time:	15. 06. 2019 21:20

#	Program:	/corina/corina34_cracker 3.40 0067  02.08.2006

@<TRIPOS>MOLECULE
ASD09116171
  84   91    0    0    0
SMALL
NO_CHARGES


@<TRIPOS>ATOM
   1 N1            -0.0266     1.4808     0.1052 N.2     
   2 C2            -0.0140     0.0097     0.1910 C.3     
   3 C3             1.2225     1.8593     0.0812 C.2     
   4 N4             2.0842     0.8235     0.1404 N.2     
   5 C5             1.4646    -0.3259     0.2084 C.2     
   6 N6             1.6191     3.1791     0.0037 N.pl3   
   7 C7             2.9773     3.5091     0.0982 C.ar    
   8 C8             3.4711     4.6162    -0.5781 C.ar    
   9 C9             3.8284     2.7317     0.8732 C.ar    
  10 C10            5.1682     3.0575     0.9663 C.ar    
  11 C11            5.6632     4.1637     0.2837 C.ar    
  12 C12            4.8106     4.9422    -0.4859 C.ar    
  13 N13            2.0277    -1.5620     0.2792 N.pl3   
  14 C14           -0.6794    -0.4545     1.4610 C.ar    
  15 C15           -1.3060     0.4710     2.2703 C.ar    
  16 N16           -0.6535    -1.7438     1.7718 N.ar    
  17 C17           -1.2178    -2.1775     2.8601 C.ar    
  18 C18           -1.8706    -1.3094     3.7432 C.ar    
  19 C19           -1.9269     0.0448     3.4546 C.ar    
  20 C20           -1.2561    -3.6226     3.3224 C.3     
  21 C21           -0.6299    -3.6381     4.7321 C.3     
  22 C22           -1.3465    -2.6164     5.6176 C.3     
  23 N23           -2.4195    -1.9398     4.8627 N.3     
  24 C24           -3.4060    -2.9456     4.4220 C.3     
  25 C25           -2.6077     1.0019     4.3598 C.ar    
  26 C26           -1.9564     2.1655     4.7655 C.ar    
  27 N27            7.0212     4.4951     0.3778 N.3     
  28 C28            7.6621     4.4705    -0.9444 C.3     
  29 C29            9.1207     4.9141    -0.8097 C.3     
  30 N30            9.8172     4.0209     0.1267 N.3     
  31 C31            9.1763     4.0455     1.4489 C.3     
  32 C32            7.7177     3.6019     1.3141 C.3     
  33 N33           11.2265     4.3648     0.2243 N.3     
  34 C34           -2.5951     3.0528     5.6077 C.ar    
  35 C35           -3.8793     2.7892     6.0491 C.ar    
  36 C36           -4.5306     1.6360     5.6498 C.ar    
  37 C37           -3.9037     0.7441     4.8036 C.ar    
  38 F38            5.9966     2.3022     1.7203 F       
  39 C39           -2.7469    -3.9758     3.5022 C.3     
  40 C40           11.9225     3.4723     1.1599 C.3     
  41 C41           13.4237     3.7677     1.1278 C.3     
  42 C42           13.6597     5.2297     1.5168 C.3     
  43 C43           12.8852     6.1366     0.5564 C.3     
  44 C44           11.3996     5.7725     0.6050 C.3     
  45 H45           -0.5005    -0.4304    -0.6795 H       
  46 H46            0.9574     3.8781    -0.1163 H       
  47 H47            2.8080     5.2228    -1.1770 H       
  48 H48            3.4431     1.8732     1.4032 H       
  49 H49            5.1948     5.8012    -1.0159 H       
  50 H50            2.9932    -1.6557     0.2826 H       
  51 H51            1.4639    -2.3499     0.3264 H       
  52 H52           -1.3183     1.5152     1.9946 H       
  53 H53           -0.7413    -4.2919     2.6331 H       
  54 H54           -0.7354    -4.6325     5.1658 H       
  55 H55            0.4272    -3.3816     4.6632 H       
  56 H56           -1.7789    -3.1268     6.4781 H       
  57 H57           -0.6276    -1.8740     5.9643 H       
  58 H58           -3.8166    -3.4532     5.2948 H       
  59 H59           -4.2123    -2.4470     3.8841 H       
  60 H60           -0.9536     2.3721     4.4217 H       
  61 H61            7.6256     3.4584    -1.3475 H       
  62 H62            7.1363     5.1490    -1.6161 H       
  63 H63            9.6061     4.8689    -1.7846 H       
  64 H64            9.1567     5.9360    -0.4323 H       
  65 H65            9.7021     3.3670     2.1206 H       
  66 H66            9.2128     5.0576     1.8519 H       
  67 H67            7.2323     3.6471     2.2890 H       
  68 H68            7.6817     2.5799     0.9367 H       
  69 H69           -2.0912     3.9545     5.9229 H       
  70 H70           -4.3752     3.4863     6.7084 H       
  71 H71           -5.5332     1.4353     5.9976 H       
  72 H72           -4.4131    -0.1559     4.4924 H       
  73 H73           -3.2425    -3.9662     2.5315 H       
  74 H74           -2.8345    -4.9677     3.9456 H       
  75 H75           11.5418     3.6350     2.1683 H       
  76 H76           11.7500     2.4359     0.8696 H       
  77 H77           13.9381     3.1157     1.8339 H       
  78 H78           13.8078     3.5919     0.1230 H       
  79 H79           13.3110     5.3963     2.5360 H       
  80 H80           14.7240     5.4563     1.4533 H       
  81 H81           13.0148     7.1771     0.8541 H       
  82 H82           13.2608     5.9980    -0.4575 H       
  83 H83           10.8473     6.4068    -0.0883 H       
  84 H84           11.0213     5.9244     1.6160 H       
@<TRIPOS>BOND
   1    1    2 1
   2    1    3 2
   3    2   14 1
   4    2    5 1
   5    2   45 1
   6    3    4 1
   7    3    6 1
   8    4    5 2
   9    5   13 1
  10    6    7 1
  11    6   46 1
  12    7    8 ar
  13    7    9 ar
  14    8   12 ar
  15    8   47 1
  16    9   10 ar
  17    9   48 1
  18   10   11 ar
  19   10   38 1
  20   11   12 ar
  21   11   27 1
  22   12   49 1
  23   13   50 1
  24   13   51 1
  25   14   15 ar
  26   14   16 ar
  27   15   19 ar
  28   15   52 1
  29   16   17 ar
  30   17   18 ar
  31   17   20 1
  32   18   19 ar
  33   18   23 1
  34   19   25 1
  35   20   21 1
  36   20   39 1
  37   20   53 1
  38   21   22 1
  39   21   54 1
  40   21   55 1
  41   22   23 1
  42   22   56 1
  43   22   57 1
  44   23   24 1
  45   24   39 1
  46   24   58 1
  47   24   59 1
  48   25   26 ar
  49   25   37 ar
  50   26   34 ar
  51   26   60 1
  52   27   28 1
  53   27   32 1
  54   28   29 1
  55   28   61 1
  56   28   62 1
  57   29   30 1
  58   29   63 1
  59   29   64 1
  60   30   31 1
  61   30   33 1
  62   31   32 1
  63   31   65 1
  64   31   66 1
  65   32   67 1
  66   32   68 1
  67   33   40 1
  68   33   44 1
  69   34   35 ar
  70   34   69 1
  71   35   36 ar
  72   35   70 1
  73   36   37 ar
  74   36   71 1
  75   37   72 1
  76   39   73 1
  77   39   74 1
  78   40   41 1
  79   40   75 1
  80   40   76 1
  81   41   42 1
  82   41   77 1
  83   41   78 1
  84   42   43 1
  85   42   79 1
  86   42   80 1
  87   43   44 1
  88   43   81 1
  89   43   82 1
  90   44   83 1
  91   44   84 1

#	End of record

