#	Name: ASD05720313
#	Creating user name:	WinNT
#	Creation time:	15. 06. 2019 21:02

#	Modifying user name:	WinNT
#	Modification time:	15. 06. 2019 21:02

#	Program:	/corina/corina34_cracker 3.40 0067  02.08.2006

@<TRIPOS>MOLECULE
ASD05720313
  58   62    0    0    0
SMALL
NO_CHARGES


@<TRIPOS>ATOM
   1 N1            -0.1007     1.5932    -0.5609 N.am    
   2 C2            -0.1729     0.2755    -1.1971 C.3     
   3 C3             1.0554     2.2859    -0.5752 C.2     
   4 O4             2.0383     1.8172    -1.1160 O.2     
   5 N5             1.1218     3.4981     0.0101 N.am    
   6 C6             2.3451     4.1667     0.0945 C.ar    
   7 C7             2.3868     5.5528    -0.0081 C.ar    
   8 C8             3.5920     6.2150     0.0743 C.ar    
   9 C9             4.7721     5.4931     0.2614 C.ar    
  10 C10            4.7270     4.1017     0.3645 C.ar    
  11 C11            3.5183     3.4453     0.2866 C.ar    
  12 C12            7.4564     7.9352    -0.2967 C.ar    
  13 N13            6.2966     7.2947    -0.3713 N.ar    
  14 C14            6.0681     6.2013     0.3498 C.ar    
  15 C15            7.0902     5.7327     1.2014 C.ar    
  16 C16            8.3049     6.4473     1.2462 C.ar    
  17 N17            8.4417     7.5317     0.4875 N.ar    
  18 N18            9.1075     5.7927     2.1336 N.pl3   
  19 N19            8.4024     4.6897     2.6314 N.2     
  20 C20            7.2179     4.6450     2.0913 C.2     
  21 N21            7.6440     9.0654    -1.0736 N.3     
  22 C22            6.4492     9.3548    -1.8799 C.3     
  23 C23            6.6772    10.6422    -2.6763 C.3     
  24 O24            7.8511    10.4979    -3.4804 O.3     
  25 C25            9.0337    10.2161    -2.7272 C.3     
  26 C26            8.8297     8.9243    -1.9313 C.3     
  27 C27           10.4722     6.1771     2.5025 C.3     
  28 C28           10.5507     6.4575     4.0134 C.3     
  29 C29           11.5673     5.4540     4.5957 C.3     
  30 C30           12.4588     5.0724     3.3880 C.3     
  31 C31           11.4440     5.0128     2.2194 C.3     
  32 H32           -0.8859     1.9688    -0.1329 H       
  33 H33           -1.1794    -0.1276    -1.0847 H       
  34 H34            0.0643     0.3701    -2.2568 H       
  35 H35            0.5426    -0.3965    -0.7232 H       
  36 H36            0.3201     3.9062     0.3728 H       
  37 H37            1.4734     6.1107    -0.1528 H       
  38 H38            3.6238     7.2915    -0.0061 H       
  39 H39            5.6384     3.5405     0.5089 H       
  40 H40            3.4823     2.3692     0.3703 H       
  41 H41            6.4612     3.9007     2.2907 H       
  42 H42            6.2654     8.5292    -2.5674 H       
  43 H43            5.5886     9.4807    -1.2229 H       
  44 H44            5.8168    10.8300    -3.3187 H       
  45 H45            6.8077    11.4775    -1.9883 H       
  46 H46            9.8777    10.0956    -3.4064 H       
  47 H47            9.2328    11.0390    -2.0407 H       
  48 H48            9.7066     8.7360    -1.3120 H       
  49 H49            8.6839     8.0918    -2.6197 H       
  50 H50           10.7750     7.0617     1.9423 H       
  51 H51           10.8923     7.4780     4.1865 H       
  52 H52            9.5733     6.3077     4.4722 H       
  53 H53           12.1641     5.9253     5.3766 H       
  54 H54           11.0548     4.5741     4.9847 H       
  55 H55           13.2123     5.8388     3.2066 H       
  56 H56           12.9254     4.0998     3.5443 H       
  57 H57           10.9116     4.0617     2.2245 H       
  58 H58           11.9508     5.1622     1.2660 H       
@<TRIPOS>BOND
   1    1    2 1
   2    1    3 am
   3    1   32 1
   4    2   33 1
   5    2   34 1
   6    2   35 1
   7    3    4 2
   8    3    5 am
   9    5    6 1
  10    5   36 1
  11    6    7 ar
  12    6   11 ar
  13    7    8 ar
  14    7   37 1
  15    8    9 ar
  16    8   38 1
  17    9   10 ar
  18    9   14 1
  19   10   11 ar
  20   10   39 1
  21   11   40 1
  22   12   13 ar
  23   12   17 ar
  24   12   21 1
  25   13   14 ar
  26   14   15 ar
  27   15   16 ar
  28   15   20 1
  29   16   17 ar
  30   16   18 1
  31   18   19 1
  32   18   27 1
  33   19   20 2
  34   20   41 1
  35   21   22 1
  36   21   26 1
  37   22   23 1
  38   22   42 1
  39   22   43 1
  40   23   24 1
  41   23   44 1
  42   23   45 1
  43   24   25 1
  44   25   26 1
  45   25   46 1
  46   25   47 1
  47   26   48 1
  48   26   49 1
  49   27   28 1
  50   27   31 1
  51   27   50 1
  52   28   29 1
  53   28   51 1
  54   28   52 1
  55   29   30 1
  56   29   53 1
  57   29   54 1
  58   30   31 1
  59   30   55 1
  60   30   56 1
  61   31   57 1
  62   31   58 1

#	End of record

