#	Name: ASD03091618
#	Creating user name:	WinNT
#	Creation time:	15. 06. 2019 20:31

#	Modifying user name:	WinNT
#	Modification time:	15. 06. 2019 20:31

#	Program:	/corina/corina34_cracker 3.40 0067  02.08.2006

@<TRIPOS>MOLECULE
ASD03091618
  26   27    0    0    0
SMALL
NO_CHARGES


@<TRIPOS>ATOM
   1 C1            -0.0161     1.3344     0.0094 C.2     
   2 C2             0.0021    -0.0041     0.0020 C.2     
   3 C3             1.2756    -0.5925    -0.0133 C.ar    
   4 C4             2.3065     0.3561    -0.0181 C.ar    
   5 S5             1.6173     1.9757    -0.0028 S.3     
   6 C6             3.6404    -0.0621    -0.0326 C.ar    
   7 C7             3.9461    -1.4062    -0.0423 C.ar    
   8 C8             2.9206    -2.3574    -0.0381 C.ar    
   9 C9             1.6162    -1.9680    -0.0235 C.ar    
  10 C10           -1.2336     2.1523     0.0198 C.2     
  11 O11           -2.3255     1.6172     0.0222 O.2     
  12 O12           -1.1420     3.4979     0.0266 O.3     
  13 O13            5.2445    -1.8074    -0.0565 O.3     
  14 C14            6.2402    -0.7824    -0.0605 C.3     
  15 O15            3.2292    -3.6824    -0.0487 O.3     
  16 C16            2.1364    -4.6031    -0.0437 C.3     
  17 H17           -0.9038    -0.5921     0.0079 H       
  18 H18            4.4340     0.6703    -0.0366 H       
  19 H19            0.8347    -2.7134    -0.0197 H       
  20 H20           -1.9718     3.9944     0.0334 H       
  21 H21            6.1331    -0.1683     0.8337 H       
  22 H22            7.2304    -1.2378    -0.0721 H       
  23 H23            6.1165    -0.1592    -0.9462 H       
  24 H24            2.5206    -5.6231    -0.0532 H       
  25 H25            1.5359    -4.4494     0.8529 H       
  26 H26            1.5191    -4.4391    -0.9269 H       
@<TRIPOS>BOND
   1    1    2 2
   2    1    5 1
   3    1   10 1
   4    2    3 1
   5    2   17 1
   6    3    4 ar
   7    3    9 ar
   8    4    5 1
   9    4    6 ar
  10    6    7 ar
  11    6   18 1
  12    7    8 ar
  13    7   13 1
  14    8    9 ar
  15    8   15 1
  16    9   19 1
  17   10   11 2
  18   10   12 1
  19   12   20 1
  20   13   14 1
  21   14   21 1
  22   14   22 1
  23   14   23 1
  24   15   16 1
  25   16   24 1
  26   16   25 1
  27   16   26 1

#	End of record

