#	Name: ASD01200022
#	Creating user name:	WinNT
#	Creation time:	15. 06. 2019 19:08

#	Modifying user name:	WinNT
#	Modification time:	15. 06. 2019 19:08

#	Program:	/corina/corina34_cracker 3.40 0067  02.08.2006

@<TRIPOS>MOLECULE
ASD01200022
  48   50    0    0    0
SMALL
NO_CHARGES


@<TRIPOS>ATOM
   1 C1            -0.2965     1.5348     0.0832 C.ar    
   2 C2            -0.0598     0.0495    -0.0114 C.3     
   3 S3            -0.7768    -0.7706     1.4391 S.o2    
   4 N4            -0.5601    -2.3866     1.1493 N.am    
   5 C5             0.7203    -2.9137     1.0861 C.2     
   6 C6            -0.7189    -0.4922    -1.2814 C.3     
   7 C7             0.0091     0.0593    -2.5089 C.3     
   8 C8             0.7769     2.4054     0.1122 C.ar    
   9 C9             0.5597     3.7678     0.1990 C.ar    
  10 C10           -0.7309     4.2597     0.2563 C.ar    
  11 C11           -1.8043     3.3892     0.2264 C.ar    
  12 C12           -1.5872     2.0270     0.1352 C.ar    
  13 S13            1.0894    -4.5575     0.7951 S.3     
  14 C14            2.8113    -4.2015     0.9041 C.2     
  15 C15            2.9501    -2.8978     1.1459 C.2     
  16 N16            1.8129    -2.2309     1.2335 N.2     
  17 S17           -1.0077     5.9962     0.3681 S.o2    
  18 O18           -2.2713     6.1092     1.0082 O.2     
  19 O19            0.1714     6.5003     0.9803 O.2     
  20 O20            0.0076    -0.5137     2.5958 O.2     
  21 O21           -2.1879    -0.6044     1.4591 O.2     
  22 C22           -0.5322    -0.6066    -3.7861 C.3     
  23 C23           -1.1153     0.5237    -4.6592 C.3     
  24 C24           -0.3735     1.7958    -4.1789 C.3     
  25 C25           -0.2640     1.5710    -2.6504 C.3     
  26 C26           -1.1159     6.5492    -1.3562 C.3     
  27 H27            1.0120    -0.1460    -0.0465 H       
  28 H28           -1.3291    -2.9642     1.0237 H       
  29 H29           -0.6625    -1.5807    -1.2841 H       
  30 H30           -1.7636    -0.1824    -1.3090 H       
  31 H31            1.0804    -0.1205    -2.4193 H       
  32 H32            1.7852     2.0211     0.0674 H       
  33 H33            1.3983     4.4479     0.2223 H       
  34 H34           -2.8126     3.7735     0.2715 H       
  35 H35           -2.4259     1.3469     0.1118 H       
  36 H36            3.6145    -4.9151     0.7943 H       
  37 H37            3.9144    -2.4242     1.2571 H       
  38 H38            0.2766    -1.1089    -4.3168 H       
  39 H39           -1.3136    -1.3226    -3.5315 H       
  40 H40           -0.9090     0.3367    -5.7130 H       
  41 H41           -2.1878     0.6211    -4.4908 H       
  42 H42            0.6159     1.8601    -4.6318 H       
  43 H43           -0.9582     2.6894    -4.3971 H       
  44 H44           -1.1990     1.8375    -2.1576 H       
  45 H45            0.5636     2.1484    -2.2382 H       
  46 H46           -1.9409     6.0367    -1.8510 H       
  47 H47           -1.2885     7.6251    -1.3825 H       
  48 H48           -0.1834     6.3181    -1.8711 H       
@<TRIPOS>BOND
   1    1    2 1
   2    1    8 ar
   3    1   12 ar
   4    2    3 1
   5    2    6 1
   6    2   27 1
   7    3    4 am
   8    3   20 2
   9    3   21 2
  10    4    5 1
  11    4   28 1
  12    5   13 1
  13    5   16 2
  14    6    7 1
  15    6   29 1
  16    6   30 1
  17    7   22 1
  18    7   25 1
  19    7   31 1
  20    8    9 ar
  21    8   32 1
  22    9   10 ar
  23    9   33 1
  24   10   11 ar
  25   10   17 1
  26   11   12 ar
  27   11   34 1
  28   12   35 1
  29   13   14 1
  30   14   15 2
  31   14   36 1
  32   15   16 1
  33   15   37 1
  34   17   18 2
  35   17   19 2
  36   17   26 1
  37   22   23 1
  38   22   38 1
  39   22   39 1
  40   23   24 1
  41   23   40 1
  42   23   41 1
  43   24   25 1
  44   24   42 1
  45   24   43 1
  46   25   44 1
  47   25   45 1
  48   26   46 1
  49   26   47 1
  50   26   48 1

#	End of record

