#	Name: ASD00311487
#	Creating user name:	WinNT
#	Creation time:	15. 06. 2019 18:34

#	Modifying user name:	WinNT
#	Modification time:	15. 06. 2019 18:34

#	Program:	/corina/corina34_cracker 3.40 0067  02.08.2006

@<TRIPOS>MOLECULE
ASD00311487
  50   54    0    0    0
SMALL
NO_CHARGES


@<TRIPOS>ATOM
   1 C1            -0.0167     1.3777     0.0096 C.2     
   2 C2             0.0021    -0.0041     0.0020 C.2     
   3 C3             1.2588    -0.6767    -0.0131 C.2     
   4 C4             2.4315     0.0673    -0.0199 C.2     
   5 C5             2.3574     1.4752    -0.0117 C.2     
   6 N6             1.1648     2.0903     0.0022 N.am    
   7 C7            -1.3432    -0.5752     0.0118 C.2     
   8 C8            -2.3227     0.3261     0.0260 C.2     
   9 S9            -1.6793     1.9562     0.0358 S.3     
  10 O10            3.3823     2.1373    -0.0171 O.2     
  11 C11            3.7477    -0.6120    -0.0352 C.ar    
  12 C12            4.5938    -0.4746    -1.1354 C.ar    
  13 C13            5.8189    -1.1095    -1.1435 C.ar    
  14 C14            6.2084    -1.8811    -0.0633 C.ar    
  15 C15            5.3733    -2.0216     1.0307 C.ar    
  16 C16            4.1483    -1.3870     1.0531 C.ar    
  17 O17            1.3087    -2.0292    -0.0204 O.3     
  18 C18           -2.0691    -4.7664    -0.0070 C.ar    
  19 C19           -2.7060    -3.9525     0.9300 C.ar    
  20 C20           -2.4708    -2.5956     0.9366 C.ar    
  21 C21           -1.5956    -2.0348     0.0056 C.ar    
  22 C22           -0.9586    -2.8492    -0.9316 C.ar    
  23 C23           -1.1937    -4.2061    -0.9375 C.ar    
  24 C24           -2.3180    -6.2277    -0.0102 C.ar    
  25 C25           -2.6578    -6.8795    -1.2005 C.ar    
  26 C26           -2.8889    -8.2448    -1.1954 C.ar    
  27 C27           -2.7842    -8.9612    -0.0152 C.ar    
  28 C28           -2.4477    -8.3175     1.1650 C.ar    
  29 C29           -2.2090    -6.9583     1.1711 C.ar    
  30 O30           -2.7611    -6.1753    -2.3576 O.3     
  31 C31           -3.1117    -6.9074    -3.5336 C.3     
  32 F32           -3.0113   -10.2930    -0.0141 F       
  33 H33            1.1326     3.0598     0.0073 H       
  34 H34           -3.3753     0.0846     0.0343 H       
  35 H35            4.2907     0.1272    -1.9794 H       
  36 H36            6.4748    -1.0041    -1.9950 H       
  37 H37            7.1683    -2.3761    -0.0742 H       
  38 H38            5.6828    -2.6255     1.8709 H       
  39 H39            3.4993    -1.4935     1.9097 H       
  40 H40            2.2060    -2.3896    -0.0307 H       
  41 H41           -3.3836    -4.3866     1.6503 H       
  42 H42           -2.9645    -1.9655     1.6615 H       
  43 H43           -0.2814    -2.4153    -1.6525 H       
  44 H44           -0.7007    -4.8364    -1.6627 H       
  45 H45           -3.1514    -8.7512    -2.1125 H       
  46 H46           -2.3677    -8.8821     2.0822 H       
  47 H47           -1.9423    -6.4605     2.0917 H       
  48 H48           -3.1601    -6.2274    -4.3841 H       
  49 H49           -2.3592    -7.6729    -3.7229 H       
  50 H50           -4.0833    -7.3805    -3.3909 H       
@<TRIPOS>BOND
   1    1    2 2
   2    1    6 1
   3    1    9 1
   4    2    3 1
   5    2    7 1
   6    3    4 2
   7    3   17 1
   8    4    5 1
   9    4   11 1
  10    5    6 am
  11    5   10 2
  12    6   33 1
  13    7    8 2
  14    7   21 1
  15    8    9 1
  16    8   34 1
  17   11   12 ar
  18   11   16 ar
  19   12   13 ar
  20   12   35 1
  21   13   14 ar
  22   13   36 1
  23   14   15 ar
  24   14   37 1
  25   15   16 ar
  26   15   38 1
  27   16   39 1
  28   17   40 1
  29   18   19 ar
  30   18   23 ar
  31   18   24 1
  32   19   20 ar
  33   19   41 1
  34   20   21 ar
  35   20   42 1
  36   21   22 ar
  37   22   23 ar
  38   22   43 1
  39   23   44 1
  40   24   25 ar
  41   24   29 ar
  42   25   26 ar
  43   25   30 1
  44   26   27 ar
  45   26   45 1
  46   27   28 ar
  47   27   32 1
  48   28   29 ar
  49   28   46 1
  50   29   47 1
  51   30   31 1
  52   31   48 1
  53   31   49 1
  54   31   50 1

#	End of record

