#	Name: ASD04591025
#	Creating user name:	WinNT
#	Creation time:	15. 06. 2019 20:51

#	Modifying user name:	WinNT
#	Modification time:	15. 06. 2019 20:51

#	Program:	/corina/corina34_cracker 3.40 0067  02.08.2006

@<TRIPOS>MOLECULE
ASD04591025
  76   81    0    0    0
SMALL
NO_CHARGES


@<TRIPOS>ATOM
   1 N1            -2.3781    -2.7059     0.0202 N.ar    
   2 C2            -1.2116    -2.0738     0.0039 C.ar    
   3 N3            -0.0573    -2.7202    -0.0183 N.ar    
   4 C4            -0.0258    -4.0496    -0.0246 C.ar    
   5 C5            -1.2485    -4.7505    -0.0072 C.ar    
   6 C6            -2.4368    -4.0275     0.0154 C.ar    
   7 N7             0.9984    -4.9633    -0.0458 N.pl3   
   8 C8             0.4946    -6.2551    -0.0430 C.ar    
   9 C9            -0.9101    -6.1797    -0.0192 C.ar    
  10 C10            1.0918    -7.5071    -0.0581 C.ar    
  11 N11            0.3580    -8.6025    -0.0503 N.ar    
  12 C12           -0.9659    -8.5692    -0.0279 C.ar    
  13 C13           -1.6459    -7.3627    -0.0114 C.ar    
  14 N14           -1.2019    -0.6888     0.0098 N.pl3   
  15 C15           -2.4013     0.0174    -0.0802 C.ar    
  16 N16           -3.5340    -0.6391    -0.2721 N.ar    
  17 C17           -4.6918    -0.0125    -0.3630 C.ar    
  18 C18           -4.7606     1.3686    -0.2599 C.ar    
  19 C19           -3.5876     2.0943    -0.0574 C.ar    
  20 C20           -2.3937     1.4030     0.0385 C.ar    
  21 N21           -5.9926     2.0262    -0.3583 N.3     
  22 C22            2.4229    -4.6218    -0.0682 C.3     
  23 C23            2.7458    -3.7900    -1.3218 C.3     
  24 C24            3.2821    -2.4320    -0.8235 C.3     
  25 C25            3.8149    -2.7330     0.5993 C.3     
  26 C26            2.7741    -3.7403     1.1481 C.3     
  27 O27           -1.6657    -9.7329    -0.0214 O.3     
  28 C28           -0.9090   -10.9450    -0.0394 C.3     
  29 C29           -7.0854     1.0676    -0.5702 C.3     
  30 C30           -8.4277     1.8028    -0.4914 C.3     
  31 N31           -8.3985     2.9311    -1.4344 N.am    
  32 C32           -7.2595     3.8596    -1.3735 C.3     
  33 C33           -5.9632     3.0435    -1.4176 C.3     
  34 C34           -9.3894     3.1096    -2.3303 C.2     
  35 O35          -10.3232     2.3329    -2.3663 O.2     
  36 O36           -9.3447     4.1486    -3.1854 O.3     
  37 C37          -10.4460     4.2788    -4.1227 C.3     
  38 C38          -11.7570     4.4382    -3.3502 C.3     
  39 C39          -10.2216     5.5080    -5.0057 C.3     
  40 C40          -10.5198     3.0274    -4.9999 C.3     
  41 H41           -3.3897    -4.5357     0.0295 H       
  42 H42            2.1688    -7.5854    -0.0769 H       
  43 H43           -2.7255    -7.3394     0.0067 H       
  44 H44           -0.3610    -0.2099     0.0766 H       
  45 H45           -5.5961    -0.5819    -0.5199 H       
  46 H46           -3.6112     3.1708     0.0266 H       
  47 H47           -1.4660     1.9331     0.1956 H       
  48 H48            3.0247    -5.5306    -0.0578 H       
  49 H49            3.5050    -4.2947    -1.9194 H       
  50 H50            1.8427    -3.6404    -1.9135 H       
  51 H51            4.0890    -2.0813    -1.4668 H       
  52 H52            2.4787    -1.6965    -0.7824 H       
  53 H53            4.8048    -3.1870     0.5531 H       
  54 H54            3.8323    -1.8270     1.2050 H       
  55 H55            1.8887    -3.2161     1.5077 H       
  56 H56            3.2104    -4.3443     1.9437 H       
  57 H57           -1.5882   -11.7975    -0.0318 H       
  58 H58           -0.2957   -10.9771    -0.9400 H       
  59 H59           -0.2659   -10.9850     0.8397 H       
  60 H60           -6.9801     0.6072    -1.5525 H       
  61 H61           -7.0473     0.2966     0.1993 H       
  62 H62           -9.2347     1.1214    -0.7605 H       
  63 H63           -8.5820     2.1757     0.5211 H       
  64 H64           -7.2942     4.5380    -2.2259 H       
  65 H65           -7.3015     4.4303    -0.4458 H       
  66 H66           -5.1112     3.7054    -1.2627 H       
  67 H67           -5.8735     2.5555    -2.3882 H       
  68 H68          -11.7044     5.3297    -2.7253 H       
  69 H69          -12.5837     4.5360    -4.0539 H       
  70 H70          -11.9169     3.5625    -2.7212 H       
  71 H71           -9.2876     5.3945    -5.5560 H       
  72 H72          -11.0483     5.6058    -5.7093 H       
  73 H73          -10.1690     6.3996    -4.3807 H       
  74 H74          -10.6797     2.1517    -4.3708 H       
  75 H75          -11.3465     3.1252    -5.7035 H       
  76 H76           -9.5858     2.9139    -5.5502 H       
@<TRIPOS>BOND
   1    1    2 ar
   2    1    6 ar
   3    2    3 ar
   4    2   14 1
   5    3    4 ar
   6    4    5 ar
   7    4    7 1
   8    5    6 ar
   9    5    9 1
  10    6   41 1
  11    7    8 1
  12    7   22 1
  13    8    9 ar
  14    8   10 ar
  15    9   13 ar
  16   10   11 ar
  17   10   42 1
  18   11   12 ar
  19   12   13 ar
  20   12   27 1
  21   13   43 1
  22   14   15 1
  23   14   44 1
  24   15   16 ar
  25   15   20 ar
  26   16   17 ar
  27   17   18 ar
  28   17   45 1
  29   18   19 ar
  30   18   21 1
  31   19   20 ar
  32   19   46 1
  33   20   47 1
  34   21   29 1
  35   21   33 1
  36   22   23 1
  37   22   26 1
  38   22   48 1
  39   23   24 1
  40   23   49 1
  41   23   50 1
  42   24   25 1
  43   24   51 1
  44   24   52 1
  45   25   26 1
  46   25   53 1
  47   25   54 1
  48   26   55 1
  49   26   56 1
  50   27   28 1
  51   28   57 1
  52   28   58 1
  53   28   59 1
  54   29   30 1
  55   29   60 1
  56   29   61 1
  57   30   31 1
  58   30   62 1
  59   30   63 1
  60   31   32 1
  61   31   34 am
  62   32   33 1
  63   32   64 1
  64   32   65 1
  65   33   66 1
  66   33   67 1
  67   34   35 2
  68   34   36 1
  69   36   37 1
  70   37   38 1
  71   37   39 1
  72   37   40 1
  73   38   68 1
  74   38   69 1
  75   38   70 1
  76   39   71 1
  77   39   72 1
  78   39   73 1
  79   40   74 1
  80   40   75 1
  81   40   76 1

#	End of record

