#	Name: ASD00841016
#	Creating user name:	WinNT
#	Creation time:	15. 06. 2019 18:40

#	Modifying user name:	WinNT
#	Modification time:	15. 06. 2019 18:40

#	Program:	/corina/corina34_cracker 3.40 0067  02.08.2006

@<TRIPOS>MOLECULE
ASD00841016
  94   99    0    0    0
SMALL
NO_CHARGES


@<TRIPOS>ATOM
   1 N1            -0.0159     1.3183     0.0093 N.ar    
   2 C2             0.0021    -0.0041     0.0020 C.ar    
   3 C3             1.2069    -0.6955    -0.0132 C.ar    
   4 C4             2.3925     0.0180    -0.0207 C.ar    
   5 C5             2.3308     1.4049    -0.0127 C.ar    
   6 C6             1.0980     2.0259     0.0025 C.ar    
   7 C7             1.2224    -2.2024    -0.0209 C.3     
   8 C8             0.4763    -2.7343    -1.2260 C.2     
   9 O9             2.5880    -2.6958    -0.0096 O.3     
  10 C10            3.3814    -2.3221    -1.0311 C.2     
  11 N11            4.6601    -2.7453    -1.0809 N.am    
  12 O12            2.9448    -1.6033    -1.9081 O.2     
  13 C13            5.5381    -2.3459    -2.1892 C.3     
  14 C14            6.1425    -3.6054    -2.8179 C.3     
  15 C15            6.8369    -4.4300    -1.7316 C.3     
  16 C16            5.8107    -4.8596    -0.6806 C.3     
  17 C17            5.2042    -3.6097    -0.0248 C.3     
  18 N18            7.4462    -5.6220    -2.3365 N.3     
  19 C19            8.2232    -6.3775    -1.3440 C.3     
  20 C20            8.7741    -7.6498    -1.9923 C.3     
  21 N21            9.6095    -7.2866    -3.1454 N.3     
  22 C22            8.8325    -6.5311    -4.1379 C.3     
  23 C23            8.2816    -5.2588    -3.4896 C.3     
  24 C24           10.2188    -8.4786    -3.7503 C.3     
  25 O25            0.7557    -2.5393    -2.3900 O.2     
  26 N26           -0.5539    -3.4626    -0.7638 N.am    
  27 C27            0.4501    -2.7460     1.1591 C.ar    
  28 C28           -0.5980    -3.4898     0.6311 C.ar    
  29 C29            0.6149    -2.6258     2.5206 C.ar    
  30 C30           -0.2710    -3.2513     3.3818 C.ar    
  31 C31           -1.3206    -3.9961     2.8679 C.ar    
  32 C32           -1.4864    -4.1171     1.5014 C.ar    
  33 Cl33          -0.0671    -3.1033     5.0994 Cl      
  34 F34           -2.1857    -4.6069     3.7068 F       
  35 C35           -1.0174    -5.8570    -2.0393 C.ar    
  36 C36            0.1602    -6.0221    -2.7534 C.ar    
  37 C37           -1.6942    -6.9621    -1.5601 C.ar    
  38 C38           -1.1983    -8.2317    -1.7914 C.ar    
  39 C39           -0.0245    -8.3990    -2.5031 C.ar    
  40 C40            0.6555    -7.2974    -2.9847 C.ar    
  41 H41            0.3608    -9.3918    -2.6825 H       
  42 O42            0.8275    -4.9367    -3.2262 O.3     
  43 C43            2.0331    -5.1822    -3.9529 C.3     
  44 C44            2.6382    -3.8505    -4.4017 C.3     
  45 C45           10.8711    -8.0984    -5.0810 C.3     
  46 C46           11.5057    -9.3399    -5.7110 C.3     
  47 S47           -1.6459    -4.2388    -1.7372 S.o2    
  48 O48           -2.8262    -4.4047    -0.9636 O.2     
  49 O49           -1.6238    -3.5603    -2.9856 O.2     
  50 O50           -1.1673    -0.6919     0.0099 O.3     
  51 C51           -3.5777    -0.8652     0.0330 C.3     
  52 C52           -2.3720     0.0766     0.0260 C.3     
  53 H53            3.3442    -0.4925    -0.0322 H       
  54 H54            3.2375     1.9916    -0.0178 H       
  55 H55            1.0444     3.1046     0.0084 H       
  56 H56            4.9588    -1.8057    -2.9380 H       
  57 H57            6.3363    -1.7072    -1.8110 H       
  58 H58            5.3512    -4.1992    -3.2754 H       
  59 H59            6.8694    -3.3196    -3.5781 H       
  60 H60            7.6116    -3.8273    -1.2576 H       
  61 H61            5.0225    -5.4416    -1.1583 H       
  62 H62            6.3014    -5.4664     0.0803 H       
  63 H63            5.9766    -3.0766     0.5294 H       
  64 H64            4.4031    -3.9050     0.6529 H       
  65 H65            9.0502    -5.7643    -0.9862 H       
  66 H66            7.5798    -6.6457    -0.5060 H       
  67 H67            9.3748    -8.1973    -1.2660 H       
  68 H68            7.9463    -8.2758    -2.3257 H       
  69 H69            9.4759    -6.2630    -4.9759 H       
  70 H70            8.0055    -7.1444    -4.4957 H       
  71 H71            7.6809    -4.7114    -4.2159 H       
  72 H72            9.1094    -4.6329    -3.1562 H       
  73 H73           10.9753    -8.8814    -3.0768 H       
  74 H74            9.4497    -9.2311    -3.9245 H       
  75 H75            1.4345    -2.0447     2.9166 H       
  76 H76           -2.3067    -4.6987     1.1074 H       
  77 H77           -2.6111    -6.8340    -1.0040 H       
  78 H78           -1.7284    -9.0942    -1.4154 H       
  79 H79            1.5719    -7.4287    -3.5410 H       
  80 H80            2.7428    -5.7064    -3.3129 H       
  81 H81            1.8120    -5.7939    -4.8276 H       
  82 H82            1.9285    -3.3263    -5.0418 H       
  83 H83            2.8593    -3.2388    -3.5271 H       
  84 H84            3.5579    -4.0377    -4.9561 H       
  85 H85           10.1146    -7.6956    -5.7545 H       
  86 H86           11.6402    -7.3459    -4.9068 H       
  87 H87           12.2622    -9.7427    -5.0376 H       
  88 H88           10.7366   -10.0924    -5.8853 H       
  89 H89           11.9704    -9.0690    -6.6591 H       
  90 H90           -4.4966    -0.2790     0.0452 H       
  91 H91           -3.5566    -1.4891    -0.8606 H       
  92 H92           -3.5390    -1.4986     0.9192 H       
  93 H93           -2.3931     0.7004     0.9196 H       
  94 H94           -2.4108     0.7099    -0.8602 H       
@<TRIPOS>BOND
   1    1    2 ar
   2    1    6 ar
   3    2    3 ar
   4    2   50 1
   5    3    4 ar
   6    3    7 1
   7    4    5 ar
   8    4   53 1
   9    5    6 ar
  10    5   54 1
  11    6   55 1
  12    7    8 1
  13    7    9 1
  14    7   27 1
  15    8   25 2
  16    8   26 am
  17    9   10 1
  18   10   11 am
  19   10   12 2
  20   11   13 1
  21   11   17 1
  22   13   14 1
  23   13   56 1
  24   13   57 1
  25   14   15 1
  26   14   58 1
  27   14   59 1
  28   15   16 1
  29   15   18 1
  30   15   60 1
  31   16   17 1
  32   16   61 1
  33   16   62 1
  34   17   63 1
  35   17   64 1
  36   18   19 1
  37   18   23 1
  38   19   20 1
  39   19   65 1
  40   19   66 1
  41   20   21 1
  42   20   67 1
  43   20   68 1
  44   21   22 1
  45   21   24 1
  46   22   23 1
  47   22   69 1
  48   22   70 1
  49   23   71 1
  50   23   72 1
  51   24   45 1
  52   24   73 1
  53   24   74 1
  54   26   47 am
  55   26   28 1
  56   27   28 ar
  57   27   29 ar
  58   28   32 ar
  59   29   30 ar
  60   29   75 1
  61   30   31 ar
  62   30   33 1
  63   31   32 ar
  64   31   34 1
  65   32   76 1
  66   35   36 ar
  67   35   37 ar
  68   35   47 1
  69   36   42 1
  70   36   40 ar
  71   37   38 ar
  72   37   77 1
  73   38   39 ar
  74   38   78 1
  75   39   40 ar
  76   39   41 1
  77   40   79 1
  78   42   43 1
  79   43   44 1
  80   43   80 1
  81   43   81 1
  82   44   82 1
  83   44   83 1
  84   44   84 1
  85   45   46 1
  86   45   85 1
  87   45   86 1
  88   46   87 1
  89   46   88 1
  90   46   89 1
  91   47   48 2
  92   47   49 2
  93   50   52 1
  94   51   52 1
  95   51   90 1
  96   51   91 1
  97   51   92 1
  98   52   93 1
  99   52   94 1

#	End of record

