#	Name: ASD01814862
#	Creating user name:	WinNT
#	Creation time:	15. 06. 2019 19:33

#	Modifying user name:	WinNT
#	Modification time:	15. 06. 2019 19:33

#	Program:	/corina/corina34_cracker 3.40 0067  02.08.2006

@<TRIPOS>MOLECULE
ASD01814862
  49   52    0    0    0
SMALL
NO_CHARGES


@<TRIPOS>ATOM
   1 C1            -0.3033     0.9989     0.1282 C.2     
   2 C2            -0.1771    -0.3968     0.1241 C.2     
   3 C3             1.0654    -0.9585     0.0803 C.2     
   4 C4             2.1976    -0.1279     0.0399 C.2     
   5 N5             2.0451     1.2320     0.0453 N.am    
   6 C6             0.7983     1.7821     0.0890 C.2     
   7 C7             3.4756    -0.7027    -0.0051 C.2     
   8 C8             4.5821     0.0951    -0.0441 C.2     
   9 C9             4.4214     1.4931    -0.0390 C.2     
  10 C10            3.1231     2.0409     0.0072 C.2     
  11 O11            2.9746     3.2512     0.0116 O.2     
  12 C12            5.5927     2.3714    -0.0798 C.2     
  13 O13            5.4319     3.7108    -0.0746 O.3     
  14 O14            6.7105     1.8932    -0.1184 O.2     
  15 C15            3.6274    -2.2020    -0.0099 C.3     
  16 N16            3.7480    -2.6775    -1.3946 N.3     
  17 C17            4.1331    -4.0952    -1.4329 C.3     
  18 C18            4.1703    -4.5718    -2.8869 C.3     
  19 N19            5.1235    -3.7495    -3.6450 N.3     
  20 C20            4.7383    -2.3318    -3.6067 C.3     
  21 C21            4.7012    -1.8552    -2.1527 C.3     
  22 H22            5.1195    -4.2163    -0.9852 H       
  23 C23            5.2377    -4.1999    -4.9568 C.ar    
  24 C24            4.1512    -4.1450    -5.8293 C.ar    
  25 C25            6.4436    -4.7129    -5.4349 C.ar    
  26 C26            6.5152    -5.1489    -6.7409 C.ar    
  27 N27            5.4622    -5.0853    -7.5344 N.ar    
  28 C28            4.3057    -4.6016    -7.1214 C.ar    
  29 H29            4.4838    -5.6153    -2.9196 H       
  30 H30            3.1775    -4.4762    -3.3264 H       
  31 N31            7.6296    -4.7877    -4.5526 N.pl3   
  32 O32            8.6499    -5.3228    -4.9479 O.2     
  33 O33            7.5853    -4.3142    -3.4313 O.2     
  34 H34           -1.2839     1.4505     0.1583 H       
  35 H35           -1.0565    -1.0228     0.1558 H       
  36 H36            1.1776    -2.0326     0.0769 H       
  37 H37            0.6892     2.8566     0.0928 H       
  38 H38            5.5694    -0.3413    -0.0782 H       
  39 H39            6.2345     4.2494    -0.1026 H       
  40 H40            4.5219    -2.4784     0.5483 H       
  41 H41            2.7533    -2.6572     0.4558 H       
  42 H42            3.4054    -4.6849    -0.8754 H       
  43 H43            5.4660    -1.7421    -4.1642 H       
  44 H44            3.7520    -2.2107    -4.0544 H       
  45 H45            4.3876    -0.8117    -2.1200 H       
  46 H46            5.6940    -1.9508    -1.7132 H       
  47 H47            3.2020    -3.7507    -5.4977 H       
  48 H48            7.4449    -5.5472    -7.1197 H       
  49 H49            3.4684    -4.5672    -7.8027 H       
@<TRIPOS>BOND
   1    1    2 1
   2    1    6 2
   3    1   34 1
   4    2    3 2
   5    2   35 1
   6    3    4 1
   7    3   36 1
   8    4    5 1
   9    4    7 2
  10    5    6 1
  11    5   10 am
  12    6   37 1
  13    7   15 1
  14    7    8 1
  15    8    9 2
  16    8   38 1
  17    9   10 1
  18    9   12 1
  19   10   11 2
  20   12   13 1
  21   12   14 2
  22   13   39 1
  23   15   16 1
  24   15   40 1
  25   15   41 1
  26   16   17 1
  27   16   21 1
  28   17   18 1
  29   17   22 1
  30   17   42 1
  31   18   19 1
  32   18   29 1
  33   18   30 1
  34   19   20 1
  35   19   23 1
  36   20   21 1
  37   20   43 1
  38   20   44 1
  39   21   45 1
  40   21   46 1
  41   23   24 ar
  42   23   25 ar
  43   24   28 ar
  44   24   47 1
  45   25   26 ar
  46   25   31 1
  47   26   27 ar
  48   26   48 1
  49   27   28 ar
  50   28   49 1
  51   31   32 2
  52   31   33 2

#	End of record

