#	Name: ASD01140533
#	Creating user name:	WinNT
#	Creation time:	15. 06. 2019 19:01

#	Modifying user name:	WinNT
#	Modification time:	15. 06. 2019 19:01

#	Program:	/corina/corina34_cracker 3.40 0067  02.08.2006

@<TRIPOS>MOLECULE
ASD01140533
  54   57    0    0    0
SMALL
NO_CHARGES


@<TRIPOS>ATOM
   1 C1            -0.0250     1.5274     0.0152 C.3     
   2 C2            -0.0061    -0.0025     0.0079 C.3     
   3 C3             0.7078    -0.4972    -1.2517 C.3     
   4 C4             2.1436     0.0309    -1.2652 C.3     
   5 C5             2.1254     1.5608    -1.2568 C.3     
   6 C6             1.4111     2.0550     0.0029 C.3     
   7 C7             1.3938     3.5841     0.0124 C.3     
   8 C8             3.5617     2.0873    -1.2709 C.3     
   9 C9             3.5470     3.6172    -1.2531 C.3     
  10 C10            2.8397     4.1045     0.0124 C.3     
  11 C11            0.6622     5.6229     1.3198 C.3     
  12 C12            0.6168     4.0886     1.2237 C.3     
  13 C13            2.1211     6.0290     1.3782 C.3     
  14 C14            2.4144     7.4964     1.4808 C.2     
  15 C15            2.7735     5.6205     0.0295 C.3     
  16 C16            4.1229     6.3440     0.1216 C.3     
  17 C17            3.7287     7.7142     0.7378 C.3     
  18 C18            2.1517     1.5465     1.2415 C.3     
  19 C19            2.8138     5.2940     2.5275 C.3     
  20 C20            0.7270    -2.0271    -1.2595 C.3     
  21 O21            0.0153    -0.0238    -2.4086 O.3     
  22 H22            3.3643     3.7343     0.8931 H       
  23 H23            1.5976     1.9227    -2.1391 H       
  24 H24            0.8916     3.9368    -0.8885 H       
  25 H25            2.1829     5.9866    -0.8103 H       
  26 O26            1.7464     8.3343     2.0375 O.2     
  27 H27           -0.5524     1.8885    -0.8677 H       
  28 H28           -0.5341     1.8801     0.9122 H       
  29 H29            0.5220    -0.3637     0.8904 H       
  30 H30           -1.0291    -0.3787     0.0173 H       
  31 H31            2.6720    -0.3310    -0.3832 H       
  32 H32            2.6517    -0.3214    -2.1629 H       
  33 H33            4.0920     1.7191    -0.3926 H       
  34 H34            4.0670     1.7396    -2.1719 H       
  35 H35            4.5709     3.9907    -1.2638 H       
  36 H36            3.0163     3.9858    -2.1309 H       
  37 H37            0.1897     6.0634     0.4419 H       
  38 H38            0.1491     5.9531     2.2230 H       
  39 H39           -0.4214     3.7671     1.1406 H       
  40 H40            1.0499     3.6617     2.1282 H       
  41 H41            4.8063     5.8063     0.7789 H       
  42 H42            4.5597     6.4761    -0.8682 H       
  43 H43            3.5932     8.4534    -0.0517 H       
  44 H44            4.4998     8.0467     1.4328 H       
  45 H45            2.1648     0.4566     1.2350 H       
  46 H46            3.1748     1.9223     1.2328 H       
  47 H47            1.6429     1.8984     2.1389 H       
  48 H48            2.6689     4.2199     2.4116 H       
  49 H49            3.8799     5.5204     2.5133 H       
  50 H50            2.3861     5.6181     3.4762 H       
  51 H51           -0.2960    -2.4033    -1.2501 H       
  52 H52            1.2355    -2.3795    -2.1568 H       
  53 H53            1.2551    -2.3883    -0.3770 H       
  54 H54           -0.9033    -0.3205    -2.4660 H       
@<TRIPOS>BOND
   1    1    2 1
   2    1    6 1
   3    1   27 1
   4    1   28 1
   5    2    3 1
   6    2   29 1
   7    2   30 1
   8    3    4 1
   9    3   20 1
  10    3   21 1
  11    4    5 1
  12    4   31 1
  13    4   32 1
  14    5    6 1
  15    5    8 1
  16    5   23 1
  17    6    7 1
  18    6   18 1
  19    7   10 1
  20    7   24 1
  21    7   12 1
  22    8    9 1
  23    8   33 1
  24    8   34 1
  25    9   10 1
  26    9   35 1
  27    9   36 1
  28   10   15 1
  29   10   22 1
  30   11   12 1
  31   11   13 1
  32   11   37 1
  33   11   38 1
  34   12   39 1
  35   12   40 1
  36   13   15 1
  37   13   19 1
  38   13   14 1
  39   14   17 1
  40   14   26 2
  41   15   16 1
  42   15   25 1
  43   16   17 1
  44   16   41 1
  45   16   42 1
  46   17   43 1
  47   17   44 1
  48   18   45 1
  49   18   46 1
  50   18   47 1
  51   19   48 1
  52   19   49 1
  53   19   50 1
  54   20   51 1
  55   20   52 1
  56   20   53 1
  57   21   54 1

#	End of record

