#	Name: ASD01813758
#	Creating user name:	WinNT
#	Creation time:	15. 06. 2019 19:31

#	Modifying user name:	WinNT
#	Modification time:	15. 06. 2019 19:31

#	Program:	/corina/corina34_cracker 3.40 0067  02.08.2006

@<TRIPOS>MOLECULE
ASD01813758
  38   41    0    0    0
SMALL
NO_CHARGES


@<TRIPOS>ATOM
   1 C1            -0.0168     1.3835    -0.0519 C.ar    
   2 C2             0.0020    -0.0037    -0.0589 C.ar    
   3 C3             1.1977    -0.6920    -0.0537 C.ar    
   4 C4             2.4035     0.0084    -0.0413 C.ar    
   5 C5             2.3797     1.4130    -0.0343 C.ar    
   6 C6             1.1627     2.0947    -0.0396 C.ar    
   7 N7             3.6056    -0.6668    -0.0350 N.pl3   
   8 C8             4.7891    -0.0410    -0.0217 C.2     
   9 C9             4.8932     1.3356    -0.0133 C.2     
  10 C10            3.6619     2.1417    -0.0212 C.2     
  11 O11            3.7002     3.3596    -0.0146 O.2     
  12 C12            6.2115     1.9851     0.0022 C.2     
  13 O13            6.3001     3.3302     0.0103 O.3     
  14 O14            7.2220     1.3094     0.0078 O.2     
  15 C15            3.5871    -2.1316    -0.0427 C.3     
  16 C16            3.4445    -2.6248    -1.4595 C.ar    
  17 N17            2.2479    -2.7328    -2.0031 N.ar    
  18 N18            2.0765    -3.1478    -3.2055 N.ar    
  19 C19            3.0915    -3.4954    -3.9810 C.ar    
  20 C20            4.3933    -3.4143    -3.4923 C.ar    
  21 C21            4.5725    -2.9598    -2.1944 C.ar    
  22 F22            1.2003    -2.0429    -0.0602 F       
  23 N23            2.8576    -3.9428    -5.2856 N.pl3   
  24 C24            1.6613    -4.0740    -5.8928 C.2     
  25 N25            1.8695    -4.5193    -7.1051 N.2     
  26 C26            3.1765    -4.6838    -7.3085 C.2     
  27 N27            3.8227    -4.3389    -6.2259 N.2     
  28 H28           -0.9607     1.9082    -0.0606 H       
  29 H29           -0.9292    -0.5507    -0.0682 H       
  30 H30            1.1454     3.1746    -0.0345 H       
  31 H31            5.6925    -0.6328    -0.0171 H       
  32 H32            7.1887     3.7116     0.0205 H       
  33 H33            4.5175    -2.5090     0.3815 H       
  34 H34            2.7459    -2.4875     0.5522 H       
  35 H35            5.2371    -3.6928    -4.1063 H       
  36 H36            5.5603    -2.8771    -1.7656 H       
  37 H37            0.6995    -3.8506    -5.4552 H       
  38 H38            3.6289    -5.0403    -8.2221 H       
@<TRIPOS>BOND
   1    1    2 ar
   2    1    6 ar
   3    1   28 1
   4    2    3 ar
   5    2   29 1
   6    3   22 1
   7    3    4 ar
   8    4    5 ar
   9    4    7 1
  10    5    6 ar
  11    5   10 1
  12    6   30 1
  13    7    8 1
  14    7   15 1
  15    8    9 2
  16    8   31 1
  17    9   10 1
  18    9   12 1
  19   10   11 2
  20   12   13 1
  21   12   14 2
  22   13   32 1
  23   15   16 1
  24   15   33 1
  25   15   34 1
  26   16   17 ar
  27   16   21 ar
  28   17   18 ar
  29   18   19 ar
  30   19   20 ar
  31   19   23 1
  32   20   21 ar
  33   20   35 1
  34   21   36 1
  35   23   24 1
  36   23   27 1
  37   24   25 2
  38   24   37 1
  39   25   26 1
  40   26   27 2
  41   26   38 1

#	End of record

