#	Name: ASD01912745
#	Creating user name:	WinNT
#	Creation time:	15. 06. 2019 20:00

#	Modifying user name:	WinNT
#	Modification time:	15. 06. 2019 20:00

#	Program:	/corina/corina34_cracker 3.40 0067  02.08.2006

@<TRIPOS>MOLECULE
ASD01912745
  45   48    0    0    0
SMALL
NO_CHARGES


@<TRIPOS>ATOM
   1 C1            -0.0165     1.3669     0.0096 C.2     
   2 N2             0.0021    -0.0041     0.0020 N.pl3   
   3 C3            -1.2024    -0.6923     0.0098 C.2     
   4 C4            -2.3629    -0.0503     0.0243 C.2     
   5 N5            -2.4359     1.3310     0.0320 N.am    
   6 C6            -1.3020     2.0669     0.0309 C.2     
   7 C7             1.3014     1.7836    -0.0008 C.2     
   8 C8             2.0550     0.6110    -0.0143 C.2     
   9 N9             1.2244    -0.4045    -0.0118 N.2     
  10 O10           -1.3488     3.2836     0.0376 O.2     
  11 C11           -3.6763     1.9628     0.0463 C.ar    
  12 C12            3.5594     0.5248    -0.0291 C.3     
  13 O13            4.1120     1.8427    -0.0273 O.3     
  14 C14            5.4672     1.9434    -0.0397 C.ar    
  15 C15            6.0712     3.1924    -0.0388 C.ar    
  16 C16            7.4489     3.2922    -0.0514 C.ar    
  17 C17            8.2259     2.1486    -0.0650 C.ar    
  18 C18            7.6265     0.9026    -0.0664 C.ar    
  19 C19            6.2492     0.7975    -0.0476 C.ar    
  20 C20           -4.8457     1.2178     0.1575 C.ar    
  21 C21           -6.0615     1.8928     0.1679 C.ar    
  22 C22           -4.9337     3.8951    -0.0273 C.ar    
  23 N23           -3.7591     3.2878    -0.0406 N.ar    
  24 N24           -6.0663     3.2183     0.0720 N.ar    
  25 O25           -4.9786     5.2459    -0.1177 O.3     
  26 C26           -6.2713     5.8547    -0.0989 C.3     
  27 O27           -7.2262     1.2078     0.2740 O.3     
  28 C28           -8.4320     1.9748     0.2773 C.3     
  29 H29           -1.1950    -1.7722     0.0036 H       
  30 H30           -3.2784    -0.6232     0.0300 H       
  31 H31            1.6684     2.7994     0.0006 H       
  32 H32            3.9013    -0.0137     0.8548 H       
  33 H33            3.8843    -0.0041    -0.9251 H       
  34 H34            5.4647     4.0860    -0.0285 H       
  35 H35            7.9195     4.2643    -0.0511 H       
  36 H36            9.3029     2.2287    -0.0749 H       
  37 H37            8.2356     0.0109    -0.0778 H       
  38 H38            5.7814    -0.1759    -0.0487 H       
  39 H39           -4.8103     0.1411     0.2335 H       
  40 H40           -6.7762     5.6068     0.8347 H       
  41 H41           -6.1645     6.9366    -0.1781 H       
  42 H42           -6.8592     5.4852    -0.9391 H       
  43 H43           -8.4207     2.6658     1.1202 H       
  44 H44           -8.5070     2.5378    -0.6530 H       
  45 H45           -9.2879     1.3059     0.3673 H       
@<TRIPOS>BOND
   1    1    2 1
   2    1    7 2
   3    1    6 1
   4    2    3 1
   5    2    9 1
   6    3    4 2
   7    3   29 1
   8    4    5 1
   9    4   30 1
  10    5    6 am
  11    5   11 1
  12    6   10 2
  13    7    8 1
  14    7   31 1
  15    8    9 2
  16    8   12 1
  17   11   20 ar
  18   11   23 ar
  19   12   13 1
  20   12   32 1
  21   12   33 1
  22   13   14 1
  23   14   15 ar
  24   14   19 ar
  25   15   16 ar
  26   15   34 1
  27   16   17 ar
  28   16   35 1
  29   17   18 ar
  30   17   36 1
  31   18   19 ar
  32   18   37 1
  33   19   38 1
  34   20   21 ar
  35   20   39 1
  36   21   24 ar
  37   21   27 1
  38   22   23 ar
  39   22   25 1
  40   22   24 ar
  41   25   26 1
  42   26   40 1
  43   26   41 1
  44   26   42 1
  45   27   28 1
  46   28   43 1
  47   28   44 1
  48   28   45 1

#	End of record

