#	Name: ASD03091104
#	Creating user name:	WinNT
#	Creation time:	15. 06. 2019 20:30

#	Modifying user name:	WinNT
#	Modification time:	15. 06. 2019 20:30

#	Program:	/corina/corina34_cracker 3.40 0067  02.08.2006

@<TRIPOS>MOLECULE
ASD03091104
  58   62    0    0    0
SMALL
NO_CHARGES


@<TRIPOS>ATOM
   1 C1             0.2435     1.4363    -0.0000 C.3     
   2 N2             0.1471    -0.0255     0.0015 N.am    
   3 C3             0.1564    -0.7001     1.1817 C.2     
   4 N4             0.0750    -1.9928     1.2659 N.2     
   5 C5            -0.0269    -2.7732     0.1602 C.ar    
   6 C6            -0.0445    -2.1588    -1.1116 C.ar    
   7 C7             0.0439    -0.6921    -1.1719 C.2     
   8 C8             0.2676     0.0937     2.4579 C.3     
   9 O9             0.0340    -0.1012    -2.2362 O.2     
  10 C10           -0.1140    -4.1641     0.2520 C.ar    
  11 C11           -0.2150    -4.9164    -0.8832 C.ar    
  12 C12           -0.2329    -4.3151    -2.1416 C.ar    
  13 C13           -0.1480    -2.9383    -2.2614 C.ar    
  14 N14           -0.3366    -5.1071    -3.2886 N.3     
  15 C15           -1.1275     2.0303     0.1969 C.2     
  16 N16           -1.2836     3.3686     0.2298 N.am    
  17 C17           -2.6164     3.9461     0.4212 C.3     
  18 O18           -2.0902     1.3041     0.3258 O.2     
  19 C19           -2.4840     5.3436     1.0298 C.3     
  20 C20           -3.3289     4.0432    -0.9292 C.3     
  21 C21           -0.3113    -0.5290     3.7299 C.3     
  22 C22            1.2046    -0.4407     3.5429 C.3     
  23 C23            0.7594    -4.8056    -4.2445 C.3     
  24 C24            0.2418    -5.3124    -5.6067 C.3     
  25 C25           -1.3050    -5.3026    -5.4736 C.3     
  26 C26           -1.5758    -4.7908    -4.0435 C.3     
  27 C27            0.5531    -4.2520    -6.6832 C.3     
  28 N28           -0.6917    -4.1538    -7.4872 N.3     
  29 C29           -1.7821    -4.2370    -6.4823 C.3     
  30 H30            0.8986     1.7581     0.8095 H       
  31 H31            0.6516     1.7725    -0.9532 H       
  32 H32            0.1905     1.1753     2.3469 H       
  33 H33           -0.1011    -4.6441     1.2194 H       
  34 H34           -0.2816    -5.9916    -0.8056 H       
  35 H35           -0.1619    -2.4736    -3.2362 H       
  36 H36           -0.5136     3.9494     0.1267 H       
  37 H37           -3.1946     3.3109     1.0922 H       
  38 H38           -1.9058     5.9788     0.3587 H       
  39 H39           -3.4756     5.7732     1.1722 H       
  40 H40           -1.9764     5.2744     1.9919 H       
  41 H41           -3.4232     3.0476    -1.3628 H       
  42 H42           -4.3204     4.4729    -0.7868 H       
  43 H43           -2.7506     4.6784    -1.6003 H       
  44 H44           -0.7689     0.1429     4.4560 H       
  45 H45           -0.7726    -1.5129     3.6437 H       
  46 H46            1.7407    -1.3664     3.3337 H       
  47 H47            1.7444     0.2894     4.1460 H       
  48 H48            0.9443    -3.7321    -4.2840 H       
  49 H49            1.6674    -5.3380    -3.9613 H       
  50 H50            0.6327    -6.2983    -5.8585 H       
  51 H51           -1.7456    -6.2831    -5.6539 H       
  52 H52           -2.4288    -5.3120    -3.6089 H       
  53 H53           -1.7511    -3.7150    -4.0521 H       
  54 H54            0.7808    -3.2933    -6.2172 H       
  55 H55            1.3843    -4.5781    -7.3084 H       
  56 H56           -0.7294    -3.2799    -7.9901 H       
  57 H57           -2.7119    -4.5520    -6.9560 H       
  58 H58           -1.9146    -3.2760    -5.9853 H       
@<TRIPOS>BOND
   1    1    2 1
   2    1   15 1
   3    1   30 1
   4    1   31 1
   5    2    3 1
   6    2    7 am
   7    3    4 2
   8    3    8 1
   9    4    5 1
  10    5    6 ar
  11    5   10 ar
  12    6    7 1
  13    6   13 ar
  14    7    9 2
  15    8   21 1
  16    8   22 1
  17    8   32 1
  18   10   11 ar
  19   10   33 1
  20   11   12 ar
  21   11   34 1
  22   12   13 ar
  23   12   14 1
  24   13   35 1
  25   14   23 1
  26   14   26 1
  27   15   16 am
  28   15   18 2
  29   16   17 1
  30   16   36 1
  31   17   19 1
  32   17   20 1
  33   17   37 1
  34   19   38 1
  35   19   39 1
  36   19   40 1
  37   20   41 1
  38   20   42 1
  39   20   43 1
  40   21   22 1
  41   21   44 1
  42   21   45 1
  43   22   46 1
  44   22   47 1
  45   23   24 1
  46   23   48 1
  47   23   49 1
  48   24   25 1
  49   24   27 1
  50   24   50 1
  51   25   26 1
  52   25   29 1
  53   25   51 1
  54   26   52 1
  55   26   53 1
  56   27   28 1
  57   27   54 1
  58   27   55 1
  59   28   29 1
  60   28   56 1
  61   29   57 1
  62   29   58 1

#	End of record

