#	Name: ASD02039293
#	Creating user name:	WinNT
#	Creation time:	15. 06. 2019 20:18

#	Modifying user name:	WinNT
#	Modification time:	15. 06. 2019 20:18

#	Program:	/corina/corina34_cracker 3.40 0067  02.08.2006

@<TRIPOS>MOLECULE
ASD02039293
  53   56    0    0    0
SMALL
NO_CHARGES


@<TRIPOS>ATOM
   1 C1             0.1366     1.1859    -0.3141 C.ar    
   2 C2             0.5193    -0.0919     0.0528 C.ar    
   3 C3            -0.3840    -1.1371    -0.0143 C.ar    
   4 C4            -1.6763    -0.9099    -0.4487 C.ar    
   5 C5            -2.0677     0.3788    -0.8198 C.ar    
   6 C6            -1.1522     1.4278    -0.7441 C.ar    
   7 C7            -3.4505     0.6307    -1.2867 C.ar    
   8 C8            -4.5445     0.4629    -0.4059 C.ar    
   9 C9             1.1282     2.3182    -0.2380 C.3     
  10 N10            1.9438     2.3357    -1.4548 N.am    
  11 C11            1.4494     3.0090    -2.6584 C.3     
  12 C12            3.1489     1.7324    -1.4670 C.2     
  13 C13            3.6013     0.9668    -0.2925 C.2     
  14 C14            4.7345     0.2117    -0.2097 C.2     
  15 C15            2.4316     4.1084    -3.0676 C.3     
  16 N16            2.9696     0.8889     0.9066 N.2     
  17 C17            3.6630     0.1233     1.6988 C.2     
  18 N18            4.7658    -0.3145     1.0372 N.pl3   
  19 O19            3.8629     1.8200    -2.4477 O.2     
  20 C20            5.8024    -1.1983     1.5761 C.3     
  21 F21           -2.5583    -1.9311    -0.5145 F       
  22 C22            1.3194     1.9925    -3.7944 C.3     
  23 C23           -3.6862     1.0383    -2.5881 C.ar    
  24 C24           -4.9826     1.2759    -3.0309 C.ar    
  25 C25           -6.0519     1.1161    -2.2029 C.ar    
  26 C26           -5.8592     0.7084    -0.8710 C.ar    
  27 N27           -6.8973     0.5460    -0.0442 N.ar    
  28 C28           -6.7258     0.1658     1.1990 C.ar    
  29 C29           -5.4593    -0.0871     1.7189 C.ar    
  30 C30           -4.3556     0.0562     0.9247 C.ar    
  31 H31            1.5281    -0.2741     0.3928 H       
  32 H32           -0.0789    -2.1326     0.2728 H       
  33 H33           -1.4489     2.4263    -1.0292 H       
  34 H34            0.5937     3.2636    -0.1452 H       
  35 H35            1.7730     2.1788     0.6297 H       
  36 H36            0.4744     3.4509    -2.4529 H       
  37 H37            5.4664     0.0621    -0.9897 H       
  38 H38            3.4225     3.6764    -3.2082 H       
  39 H39            2.0985     4.5646    -3.9998 H       
  40 H40            2.4737     4.8673    -2.2864 H       
  41 H41            3.4049    -0.1217     2.7184 H       
  42 H42            5.5346    -2.2360     1.3772 H       
  43 H43            6.7565    -0.9717     1.1002 H       
  44 H44            5.8875    -1.0448     2.6519 H       
  45 H45            0.5856     1.2342    -3.5213 H       
  46 H46            0.9952     2.5015    -4.7021 H       
  47 H47            2.2848     1.5175    -3.9692 H       
  48 H48           -2.8559     1.1734    -3.2655 H       
  49 H49           -5.1446     1.5934    -4.0504 H       
  50 H50           -7.0498     1.3072    -2.5689 H       
  51 H51           -7.5895     0.0460     1.8362 H       
  52 H52           -5.3491    -0.3986     2.7471 H       
  53 H53           -3.3654    -0.1359     1.3108 H       
@<TRIPOS>BOND
   1    1    2 ar
   2    1    9 1
   3    1    6 ar
   4    2    3 ar
   5    2   31 1
   6    3    4 ar
   7    3   32 1
   8    4    5 ar
   9    4   21 1
  10    5    6 ar
  11    5    7 1
  12    6   33 1
  13    7   23 ar
  14    7    8 ar
  15    8   26 ar
  16    8   30 ar
  17    9   10 1
  18    9   34 1
  19    9   35 1
  20   10   11 1
  21   10   12 am
  22   11   22 1
  23   11   15 1
  24   11   36 1
  25   12   13 1
  26   12   19 2
  27   13   14 2
  28   13   16 1
  29   14   18 1
  30   14   37 1
  31   15   38 1
  32   15   39 1
  33   15   40 1
  34   16   17 2
  35   17   18 1
  36   17   41 1
  37   18   20 1
  38   20   42 1
  39   20   43 1
  40   20   44 1
  41   22   45 1
  42   22   46 1
  43   22   47 1
  44   23   24 ar
  45   23   48 1
  46   24   25 ar
  47   24   49 1
  48   25   26 ar
  49   25   50 1
  50   26   27 ar
  51   27   28 ar
  52   28   29 ar
  53   28   51 1
  54   29   30 ar
  55   29   52 1
  56   30   53 1

#	End of record

