#	Name: ASD01881525
#	Creating user name:	WinNT
#	Creation time:	15. 06. 2019 19:42

#	Modifying user name:	WinNT
#	Modification time:	15. 06. 2019 19:42

#	Program:	/corina/corina34_cracker 3.40 0067  02.08.2006

@<TRIPOS>MOLECULE
ASD01881525
  37   39    0    0    0
SMALL
NO_CHARGES


@<TRIPOS>ATOM
   1 C1            -0.0168     1.3888     0.0097 C.ar    
   2 C2             0.0021    -0.0041     0.0020 C.ar    
   3 C3            -1.1871    -0.7086     0.0091 C.ar    
   4 C4             1.2567     2.1503     0.0016 C.ar    
   5 C5             1.2384     3.5436     0.0093 C.ar    
   6 C6             2.4260     4.2468     0.0022 C.ar    
   7 C7             3.6328     3.5710    -0.0129 C.ar    
   8 C8             3.6568     2.1880    -0.0206 C.ar    
   9 C9             2.4753     1.4747    -0.0078 C.ar    
  10 C10            4.9262     4.3444    -0.0216 C.3     
  11 N11            5.3587     4.5881     1.3567 N.am    
  12 C12            6.1486     3.7823     2.0796 C.2     
  13 O13            6.3966     4.2333     3.3143 O.3     
  14 C14            5.7141     5.5051     3.5131 C.3     
  15 C15            5.0020     5.7602     2.1706 C.3     
  16 O16            6.5980     2.7372     1.6527 O.2     
  17 C17            4.6982     5.3963     4.6521 C.3     
  18 F18           -1.1713    -2.0595     0.0021 F       
  19 Cl19          -3.8872    -0.9192     0.0327 Cl      
  20 C20           -2.3961    -0.0303     0.0238 C.ar    
  21 C21           -2.4177     1.3536     0.0319 C.ar    
  22 C22           -1.2354     2.0651     0.0191 C.ar    
  23 H23            0.9440    -0.5324    -0.0098 H       
  24 H24            0.2967     4.0722     0.0204 H       
  25 H25            2.4130     5.3267     0.0081 H       
  26 H26            4.6019     1.6654    -0.0324 H       
  27 H27            2.4952     0.3949    -0.0138 H       
  28 H28            5.6897     3.7696    -0.5458 H       
  29 H29            4.7764     5.2973    -0.5292 H       
  30 H30            6.4343     6.2976     3.7166 H       
  31 H31            5.3691     6.6778     1.7109 H       
  32 H32            3.9224     5.8073     2.3127 H       
  33 H33            5.2162     5.1485     5.5785 H       
  34 H34            4.1801     6.3481     4.7689 H       
  35 H35            3.9746     4.6148     4.4201 H       
  36 H36           -3.3619     1.8778     0.0437 H       
  37 H37           -1.2542     3.1449     0.0254 H       
@<TRIPOS>BOND
   1    1    2 ar
   2    1    4 1
   3    1   22 ar
   4    2    3 ar
   5    2   23 1
   6    3   18 1
   7    3   20 ar
   8    4    5 ar
   9    4    9 ar
  10    5    6 ar
  11    5   24 1
  12    6    7 ar
  13    6   25 1
  14    7    8 ar
  15    7   10 1
  16    8    9 ar
  17    8   26 1
  18    9   27 1
  19   10   11 1
  20   10   28 1
  21   10   29 1
  22   11   12 am
  23   11   15 1
  24   12   13 1
  25   12   16 2
  26   13   14 1
  27   14   15 1
  28   14   17 1
  29   14   30 1
  30   15   31 1
  31   15   32 1
  32   17   33 1
  33   17   34 1
  34   17   35 1
  35   19   20 1
  36   20   21 ar
  37   21   22 ar
  38   21   36 1
  39   22   37 1

#	End of record

