#	Name: ASD01180128
#	Creating user name:	WinNT
#	Creation time:	15. 06. 2019 19:06

#	Modifying user name:	WinNT
#	Modification time:	15. 06. 2019 19:06

#	Program:	/corina/corina34_cracker 3.40 0067  02.08.2006

@<TRIPOS>MOLECULE
ASD01180128
  20   20    0    0    0
SMALL
NO_CHARGES


@<TRIPOS>ATOM
   1 C1            -0.0143     1.2036     0.0087 C.2     
   2 O2             0.0021    -0.0041     0.0020 O.2     
   3 C3             1.2804     1.9748     0.0004 C.3     
   4 C4             1.4608     2.8887     1.2240 C.3     
   5 C5             2.9365     2.4560     1.2312 C.3     
   6 C6             2.4809     1.1687     0.5240 C.3     
   7 C7             3.8391     3.3418     0.3701 C.3     
   8 C8             3.4986     2.2184     2.6342 C.3     
   9 Cl9           -1.5293     2.0510     0.0205 Cl      
  10 H10            1.4693     2.4746    -0.9496 H       
  11 H11            1.3170     3.9465     1.0038 H       
  12 H12            0.9047     2.5586     2.1014 H       
  13 H13            2.2036     0.3683     1.2100 H       
  14 H14            3.1606     0.8380    -0.2613 H       
  15 H15            3.7990     4.3673     0.7373 H       
  16 H16            4.8646     2.9765     0.4237 H       
  17 H17            3.4967     3.3127    -0.6644 H       
  18 H18            2.9266     1.4319     3.1264 H       
  19 H19            4.5433     1.9162     2.5606 H       
  20 H20            3.4264     3.1379     3.2150 H       
@<TRIPOS>BOND
   1    1    2 2
   2    1    3 1
   3    1    9 1
   4    3    4 1
   5    3    6 1
   6    3   10 1
   7    4    5 1
   8    4   11 1
   9    4   12 1
  10    5    6 1
  11    5    7 1
  12    5    8 1
  13    6   13 1
  14    6   14 1
  15    7   15 1
  16    7   16 1
  17    7   17 1
  18    8   18 1
  19    8   19 1
  20    8   20 1

#	End of record

