#	Name: ASD01916232
#	Creating user name:	WinNT
#	Creation time:	15. 06. 2019 20:06

#	Modifying user name:	WinNT
#	Modification time:	15. 06. 2019 20:06

#	Program:	/corina/corina34_cracker 3.40 0067  02.08.2006

@<TRIPOS>MOLECULE
ASD01916232
  37   39    0    0    0
SMALL
NO_CHARGES


@<TRIPOS>ATOM
   1 C1             0.4254     1.3554    -0.2499 C.ar    
   2 C2             0.4292    -0.0269    -0.2307 C.ar    
   3 C3             1.5788    -0.7135     0.1032 C.ar    
   4 C4             2.7424    -0.0116     0.4223 C.ar    
   5 C5             2.7373     1.3836     0.4021 C.ar    
   6 C6             1.5781     2.0625     0.0661 C.ar    
   7 O7             1.5687     3.4212     0.0451 O.3     
   8 C8             2.1171     4.0466    -1.0297 C.ar    
   9 C9             2.1346     5.4350    -1.1152 C.ar    
  10 N10            2.6777     6.0060    -2.1777 N.ar    
  11 C11            3.1967     5.2778    -3.1458 C.ar    
  12 N12            3.1989     3.9606    -3.1018 N.ar    
  13 C13            2.6805     3.3149    -2.0701 C.ar    
  14 C14            3.9755    -0.7437     0.7809 C.2     
  15 N15            5.0976    -0.0636     1.0887 N.am    
  16 O16            3.9774    -1.9592     0.7983 O.2     
  17 C17            6.2293    -0.7486     1.5291 C.ar    
  18 C18            7.3433    -0.0348     1.9552 C.ar    
  19 C19            8.4605    -0.7261     2.3901 C.ar    
  20 C20            8.4242    -2.1153     2.3836 C.ar    
  21 C21            7.2812    -2.7598     1.9459 C.ar    
  22 N22            6.2302    -2.0722     1.5424 N.ar    
  23 F23            9.4936    -2.8285     2.7996 F       
  24 C24           -0.8261    -0.7863    -0.5750 C.3     
  25 H25           -0.4761     1.8872    -0.5161 H       
  26 H26            1.5781    -1.7934     0.1179 H       
  27 H27            3.6344     1.9322     0.6484 H       
  28 H28            1.7108     6.0380    -0.3257 H       
  29 H29            3.6325     5.7747    -3.9999 H       
  30 H30            2.6860     2.2353    -2.0405 H       
  31 H31            5.1179     0.9024     1.0037 H       
  32 H32            7.3371     1.0452     1.9467 H       
  33 H33            9.3405    -0.1981     2.7266 H       
  34 H34            7.2474    -3.8393     1.9382 H       
  35 H35           -0.8496    -0.9824    -1.6469 H       
  36 H36           -0.8392    -1.7316    -0.0323 H       
  37 H37           -1.6973    -0.1943    -0.2947 H       
@<TRIPOS>BOND
   1    1    2 ar
   2    1    6 ar
   3    1   25 1
   4    2    3 ar
   5    2   24 1
   6    3    4 ar
   7    3   26 1
   8    4    5 ar
   9    4   14 1
  10    5    6 ar
  11    5   27 1
  12    6    7 1
  13    7    8 1
  14    8    9 ar
  15    8   13 ar
  16    9   10 ar
  17    9   28 1
  18   10   11 ar
  19   11   12 ar
  20   11   29 1
  21   12   13 ar
  22   13   30 1
  23   14   15 am
  24   14   16 2
  25   15   17 1
  26   15   31 1
  27   17   18 ar
  28   17   22 ar
  29   18   19 ar
  30   18   32 1
  31   19   20 ar
  32   19   33 1
  33   20   21 ar
  34   20   23 1
  35   21   22 ar
  36   21   34 1
  37   24   35 1
  38   24   36 1
  39   24   37 1

#	End of record

