#	Name: ASD01670055
#	Creating user name:	WinNT
#	Creation time:	15. 06. 2019 19:22

#	Modifying user name:	WinNT
#	Modification time:	15. 06. 2019 19:22

#	Program:	/corina/corina34_cracker 3.40 0067  02.08.2006

@<TRIPOS>MOLECULE
ASD01670055
  67   69    0    0    0
SMALL
NO_CHARGES


@<TRIPOS>ATOM
   1 C1            -0.1507     1.1017     0.4078 C.ar    
   2 N2             1.1859     0.4997    -3.5648 N.am    
   3 O3             4.2027    -4.9291     1.6143 O.2     
   4 C4             0.6401     0.6775     1.4606 C.ar    
   5 N5             4.3414    -0.9515     0.9374 N.3     
   6 O6             8.8211    -5.4720     9.9388 O.2     
   7 C7             0.2836     0.9439    -0.8924 C.ar    
   8 O8             3.1125    -0.2450    -2.7488 O.2     
   9 C9             1.8708     0.0931     1.2180 C.ar    
  10 O10            2.8931    -3.4018     2.5532 O.3     
  11 C11            7.1136    -1.7095     2.6315 C.ar    
  12 O12            9.3716    -3.4820    10.7263 O.3     
  13 C13            7.5977    -2.0888     3.8721 C.ar    
  14 O14            5.1547    -4.6332     4.8087 O.3     
  15 C15            1.5235     0.3549    -1.1440 C.ar    
  16 O16            7.4470    -3.4273     5.8245 O.3     
  17 C17            5.3174    -3.2915     2.8455 C.ar    
  18 C18            2.3167    -0.0705    -0.0770 C.ar    
  19 C19            5.9825    -2.3025     2.1150 C.ar    
  20 C20            6.9500    -3.0684     4.6088 C.ar    
  21 C21            5.8068    -3.6742     4.1022 C.ar    
  22 C22            1.9951     0.1826    -2.5346 C.2     
  23 C23            4.1065    -3.9287     2.2971 C.2     
  24 C24            8.7502    -4.2703     9.8351 C.2     
  25 C25           -0.2661    -1.1624    -5.5208 C.3     
  26 C26            0.4504     0.1436    -5.8699 C.3     
  27 C27            1.6532     0.3290    -4.9427 C.3     
  28 C28            2.4412     1.5685    -5.3712 C.3     
  29 C29            5.8788    -5.2487     5.8797 C.3     
  30 C30            6.5634    -4.1431     6.6945 C.3     
  31 C31            3.6574    -0.7067    -0.3393 C.3     
  32 C32            5.4623    -1.8850     0.7636 C.3     
  33 C33            4.7945     0.3083     1.5420 C.3     
  34 C34            7.9642    -3.6565     8.7053 C.3     
  35 C35            7.3615    -4.7663     7.8415 C.3     
  36 H36           -1.1119     1.5533     0.6037 H       
  37 H37            0.2942     0.8409    -3.3938 H       
  38 H38            0.2956     0.8034     2.4764 H       
  39 H39           -0.3349     1.2751    -1.7135 H       
  40 H40            2.4836    -0.2352     2.0444 H       
  41 H41            2.1285    -3.8547     2.1720 H       
  42 H42            7.6228    -0.9418     2.0679 H       
  43 H43            9.8635    -3.9215    11.4333 H       
  44 H44            8.4857    -1.6187     4.2681 H       
  45 H45           -1.1230    -1.2945    -6.1813 H       
  46 H46            0.4216    -1.9988    -5.6460 H       
  47 H47           -0.6072    -1.1244    -4.4862 H       
  48 H48            0.7916     0.1055    -6.9044 H       
  49 H49           -0.2373     0.9800    -5.7446 H       
  50 H50            2.2965    -0.5489    -5.0021 H       
  51 H51            3.2981     1.7006    -4.7107 H       
  52 H52            2.7889     1.4415    -6.3965 H       
  53 H53            1.7979     2.4465    -5.3119 H       
  54 H54            5.1906    -5.8032     6.5177 H       
  55 H55            6.6309    -5.9252     5.4739 H       
  56 H56            5.8118    -3.4632     7.0956 H       
  57 H57            4.2622    -0.0395    -0.9535 H       
  58 H58            3.5147    -1.6524    -0.8623 H       
  59 H59            5.1211    -2.7648     0.2180 H       
  60 H60            6.2588    -1.3960     0.2029 H       
  61 H61            3.9543     0.9987     1.6159 H       
  62 H62            5.1916     0.1114     2.5378 H       
  63 H63            5.5739     0.7498     0.9208 H       
  64 H64            7.1642    -3.0385     9.1130 H       
  65 H65            8.6249    -3.0401     8.0958 H       
  66 H66            6.7007    -5.3828     8.4510 H       
  67 H67            8.1614    -5.3843     7.4338 H       
@<TRIPOS>BOND
   1    1    4 ar
   2    1    7 ar
   3    1   36 1
   4    2   22 am
   5    2   27 1
   6    2   37 1
   7    3   23 2
   8    4    9 ar
   9    4   38 1
  10    5   31 1
  11    5   32 1
  12    5   33 1
  13    6   24 2
  14    7   15 ar
  15    7   39 1
  16    8   22 2
  17    9   18 ar
  18    9   40 1
  19   10   23 1
  20   10   41 1
  21   11   13 ar
  22   11   19 ar
  23   11   42 1
  24   12   24 1
  25   12   43 1
  26   13   20 ar
  27   13   44 1
  28   14   21 1
  29   14   29 1
  30   15   18 ar
  31   15   22 1
  32   16   20 1
  33   16   30 1
  34   17   19 ar
  35   17   21 ar
  36   17   23 1
  37   18   31 1
  38   19   32 1
  39   20   21 ar
  40   24   34 1
  41   25   26 1
  42   25   45 1
  43   25   46 1
  44   25   47 1
  45   26   27 1
  46   26   48 1
  47   26   49 1
  48   27   28 1
  49   27   50 1
  50   28   51 1
  51   28   52 1
  52   28   53 1
  53   29   30 1
  54   29   54 1
  55   29   55 1
  56   30   35 1
  57   30   56 1
  58   31   57 1
  59   31   58 1
  60   32   59 1
  61   32   60 1
  62   33   61 1
  63   33   62 1
  64   33   63 1
  65   34   35 1
  66   34   64 1
  67   34   65 1
  68   35   66 1
  69   35   67 1

#	End of record

