#	Name: ASD01410817
#	Creating user name:	WinNT
#	Creation time:	15. 06. 2019 19:18

#	Modifying user name:	WinNT
#	Modification time:	15. 06. 2019 19:18

#	Program:	/corina/corina34_cracker 3.40 0067  02.08.2006

@<TRIPOS>MOLECULE
ASD01410817
  64   64    0    0    0
SMALL
NO_CHARGES


@<TRIPOS>ATOM
   1 C1            -0.0015     1.5205    -0.0838 C.3     
   2 C2             0.0127    -0.0191     0.0202 C.3     
   3 N3            -0.1235    -0.3617     1.4435 N.am    
   4 C4            -0.1954     0.8861     2.2253 C.3     
   5 C5            -0.7130     1.9508     1.2262 C.3     
   6 C6             1.3351    -0.5651    -0.5221 C.3     
   7 C7             1.4223    -0.2905    -2.0247 C.3     
   8 O8             2.7044    -0.6949    -2.5092 O.3     
   9 C9            -1.1598     0.7311     3.3729 C.2     
  10 O10           -1.9787    -0.1572     3.3582 O.2     
  11 O11           -1.1091     1.5800     4.4114 O.3     
  12 C12           -2.0684     1.3709     5.4812 C.3     
  13 Si13           1.4752     3.4260    -0.9707 Si      
  14 C14            3.2528     3.9832    -0.9482 C.3     
  15 C15            0.4035     4.7373    -0.1942 C.3     
  16 C16            0.9349     3.1447    -2.7313 C.3     
  17 C17            3.6966     4.2142     0.4977 C.3     
  18 C18            4.1329     2.9063    -1.5859 C.3     
  19 C19            3.3888     5.2866    -1.7379 C.3     
  20 O20            1.3303     2.0366    -0.1289 O.3     
  21 O21           -0.1890    -1.7955     3.2830 O.3     
  22 C22           -0.2451    -3.1668     3.7570 C.3     
  23 C23            0.9776    -3.9328     3.2480 C.3     
  24 C24           -0.2532    -3.1776     5.2869 C.3     
  25 C25           -1.5189    -3.8349     3.2355 C.3     
  26 C26           -0.1750    -1.6098     1.9495 C.2     
  27 O27           -0.2088    -2.5674     1.2024 O.2     
  28 H28           -0.5682     1.8428    -0.9574 H       
  29 H29           -0.8219    -0.4365    -0.5431 H       
  30 H30            0.7931     1.1604     2.5937 H       
  31 H31           -0.4047     2.9519     1.5275 H       
  32 H32           -1.7962     1.8928     1.1197 H       
  33 H33            2.1660    -0.0751    -0.0144 H       
  34 H34            1.3843    -1.6396    -0.3456 H       
  35 H35            0.6446    -0.8521    -2.5424 H       
  36 H36            1.2841     0.7750    -2.2080 H       
  37 H37            2.8305    -0.5497    -3.4569 H       
  38 H38           -1.9189     2.1234     6.2555 H       
  39 H39           -3.0799     1.4546     5.0837 H       
  40 H40           -1.9265     0.3778     5.9074 H       
  41 H41            0.5004     5.6658    -0.7568 H       
  42 H42           -0.6365     4.4113    -0.2074 H       
  43 H43            0.7197     4.9019     0.8359 H       
  44 H44            1.5619     2.3775    -3.1856 H       
  45 H45           -0.1051     2.8187    -2.7445 H       
  46 H46            1.0318     4.0732    -3.2939 H       
  47 H47            3.5997     3.2857     1.0603 H       
  48 H48            4.7366     4.5402     0.5109 H       
  49 H49            3.0696     4.9814     0.9520 H       
  50 H50            3.8168     2.7417    -2.6159 H       
  51 H51            5.1730     3.2323    -1.5727 H       
  52 H52            4.0361     1.9778    -1.0233 H       
  53 H53            2.7618     6.0537    -1.2836 H       
  54 H54            4.4288     5.6125    -1.7247 H       
  55 H55            3.0727     5.1219    -2.7679 H       
  56 H56            1.8851    -3.4568     3.6195 H       
  57 H57            0.9355    -4.9622     3.6039 H       
  58 H58            0.9834    -3.9251     2.1581 H       
  59 H59           -1.1243    -2.6319     5.6495 H       
  60 H60           -0.2954    -4.2070     5.6428 H       
  61 H61            0.6542    -2.7016     5.6584 H       
  62 H62           -1.5132    -3.8272     2.1455 H       
  63 H63           -1.5611    -4.8643     3.5913 H       
  64 H64           -2.3900    -3.2892     3.5981 H       
@<TRIPOS>BOND
   1    1    2 1
   2    1   20 1
   3    1    5 1
   4    1   28 1
   5    2    3 1
   6    2    6 1
   7    2   29 1
   8    3    4 1
   9    3   26 am
  10    4    5 1
  11    4    9 1
  12    4   30 1
  13    5   31 1
  14    5   32 1
  15    6    7 1
  16    6   33 1
  17    6   34 1
  18    7    8 1
  19    7   35 1
  20    7   36 1
  21    8   37 1
  22    9   10 2
  23    9   11 1
  24   11   12 1
  25   12   38 1
  26   12   39 1
  27   12   40 1
  28   13   14 1
  29   13   15 1
  30   13   16 1
  31   13   20 1
  32   14   17 1
  33   14   18 1
  34   14   19 1
  35   15   41 1
  36   15   42 1
  37   15   43 1
  38   16   44 1
  39   16   45 1
  40   16   46 1
  41   17   47 1
  42   17   48 1
  43   17   49 1
  44   18   50 1
  45   18   51 1
  46   18   52 1
  47   19   53 1
  48   19   54 1
  49   19   55 1
  50   21   22 1
  51   21   26 1
  52   22   23 1
  53   22   24 1
  54   22   25 1
  55   23   56 1
  56   23   57 1
  57   23   58 1
  58   24   59 1
  59   24   60 1
  60   24   61 1
  61   25   62 1
  62   25   63 1
  63   25   64 1
  64   26   27 2

#	End of record

