#	Name: ASD03540311
#	Creating user name:	WinNT
#	Creation time:	15. 06. 2019 20:43

#	Modifying user name:	WinNT
#	Modification time:	15. 06. 2019 20:43

#	Program:	/corina/corina34_cracker 3.40 0067  02.08.2006

@<TRIPOS>MOLECULE
ASD03540311
  63   65    0    0    0
SMALL
NO_CHARGES


@<TRIPOS>ATOM
   1 C1            -0.0616     1.3174    -0.0144 C.2     
   2 N2             0.0299    -0.0585     0.0987 N.am    
   3 C3             1.2163    -0.6825     0.0769 C.2     
   4 N4             2.3729    -0.0133    -0.0552 N.am    
   5 C5             2.3875     1.3274    -0.1721 C.2     
   6 C6             1.1031     2.0628    -0.1536 C.2     
   7 C7             0.8637     3.4349    -0.2580 C.2     
   8 C8            -0.4348     3.7753    -0.2053 C.2     
   9 S9            -1.4290     2.3413    -0.0221 S.3     
  10 O10            3.4404     1.9259    -0.2906 O.2     
  11 C11            3.6372    -0.7533    -0.0719 C.3     
  12 C12           -1.1944    -0.8495     0.2458 C.3     
  13 O13            1.2460    -1.8935     0.1806 O.2     
  14 C14            3.9157    -1.2551    -1.4902 C.3     
  15 C15           -0.9467     5.1451    -0.2913 C.2     
  16 O16           -0.1740     6.0766    -0.4208 O.2     
  17 N17           -2.2734     5.3740    -0.2272 N.am    
  18 C18           -2.7853     6.7439    -0.3133 C.3     
  19 C19           -4.2891     6.7252    -0.2166 C.ar    
  20 C20           -4.9029     6.8196     1.0185 C.ar    
  21 C21           -6.2826     6.8023     1.1106 C.ar    
  22 C22           -7.0509     6.6906    -0.0318 C.ar    
  23 C23           -6.4372     6.5961    -1.2726 C.ar    
  24 C24           -5.0532     6.6194    -1.3628 C.ar    
  25 O25           -7.1909     6.4857    -2.3981 O.3     
  26 C26           -8.6099     6.4732    -2.2299 C.3     
  27 C27            4.0774    -0.0598    -2.4315 C.3     
  28 C28            4.2316    -0.5601    -3.8692 C.3     
  29 C29            5.2010    -2.0850    -1.4943 C.3     
  30 C30            4.9892    -3.3573    -0.6713 C.3     
  31 C31            4.3932     0.6352    -4.8105 C.3     
  32 C32            4.5474     0.1349    -6.2482 C.3     
  33 H33            1.6554     4.1607    -0.3714 H       
  34 H34            4.4467    -0.0966     0.2467 H       
  35 H35            3.5699    -1.6030     0.6075 H       
  36 H36           -1.5637    -1.1340    -0.7395 H       
  37 H37           -0.9798    -1.7467     0.8264 H       
  38 H38           -1.9507    -0.2563     0.7599 H       
  39 H39            3.0832    -1.8728    -1.8270 H       
  40 H40           -2.8892     4.6317    -0.1241 H       
  41 H41           -2.3760     7.3368     0.5046 H       
  42 H42           -2.4879     7.1838    -1.2652 H       
  43 H43           -4.3040     6.9067     1.9129 H       
  44 H44           -6.7598     6.8758     2.0767 H       
  45 H45           -8.1284     6.6764     0.0408 H       
  46 H46           -4.5732     6.5461    -2.3275 H       
  47 H47           -8.9277     7.4012    -1.7545 H       
  48 H48           -9.0904     6.3809    -3.2039 H       
  49 H49           -8.8941     5.6280    -1.6030 H       
  50 H50            3.1972     0.5794    -2.3617 H       
  51 H51            4.9629     0.5089    -2.1478 H       
  52 H52            5.1117    -1.1992    -3.9390 H       
  53 H53            3.3460    -1.1288    -4.1529 H       
  54 H54            5.4568    -2.3537    -2.5193 H       
  55 H55            6.0118    -1.5012    -1.0586 H       
  56 H56            4.2327    -3.9785    -1.1508 H       
  57 H57            5.9267    -3.9098    -0.6088 H       
  58 H58            4.6574    -3.0900     0.3319 H       
  59 H59            3.5131     1.2744    -4.7406 H       
  60 H60            5.2787     1.2040    -4.5268 H       
  61 H61            5.4276    -0.5042    -6.3180 H       
  62 H62            3.6619    -0.4338    -6.5319 H       
  63 H63            4.6626     0.9865    -6.9188 H       
@<TRIPOS>BOND
   1    1    2 1
   2    1    6 2
   3    1    9 1
   4    2    3 am
   5    2   12 1
   6    3    4 am
   7    3   13 2
   8    4    5 am
   9    4   11 1
  10    5    6 1
  11    5   10 2
  12    6    7 1
  13    7    8 2
  14    7   33 1
  15    8    9 1
  16    8   15 1
  17   11   14 1
  18   11   34 1
  19   11   35 1
  20   12   36 1
  21   12   37 1
  22   12   38 1
  23   14   27 1
  24   14   29 1
  25   14   39 1
  26   15   16 2
  27   15   17 am
  28   17   18 1
  29   17   40 1
  30   18   19 1
  31   18   41 1
  32   18   42 1
  33   19   20 ar
  34   19   24 ar
  35   20   21 ar
  36   20   43 1
  37   21   22 ar
  38   21   44 1
  39   22   23 ar
  40   22   45 1
  41   23   24 ar
  42   23   25 1
  43   24   46 1
  44   25   26 1
  45   26   47 1
  46   26   48 1
  47   26   49 1
  48   27   28 1
  49   27   50 1
  50   27   51 1
  51   28   31 1
  52   28   52 1
  53   28   53 1
  54   29   30 1
  55   29   54 1
  56   29   55 1
  57   30   56 1
  58   30   57 1
  59   30   58 1
  60   31   32 1
  61   31   59 1
  62   31   60 1
  63   32   61 1
  64   32   62 1
  65   32   63 1

#	End of record

