#	Name: ASD02030403
#	Creating user name:	WinNT
#	Creation time:	15. 06. 2019 20:15

#	Modifying user name:	WinNT
#	Modification time:	15. 06. 2019 20:15

#	Program:	/corina/corina34_cracker 3.40 0067  02.08.2006

@<TRIPOS>MOLECULE
ASD02030403
  28   29    0    0    0
SMALL
NO_CHARGES


@<TRIPOS>ATOM
   1 C1            -0.0157     1.3096     0.0092 C.ar    
   2 N2             0.0021    -0.0041     0.0020 N.ar    
   3 C3             1.1389    -0.7089    -0.0127 C.ar    
   4 C4             2.3737    -0.0873    -0.0211 C.ar    
   5 C5             2.4212     1.3198    -0.0140 C.ar    
   6 C6             3.6341     2.0210    -0.0229 C.ar    
   7 C7             3.6176     3.3993    -0.0163 C.ar    
   8 C8             2.4069     4.0975    -0.0005 C.ar    
   9 C9             1.2160     3.4366     0.0083 C.ar    
  10 C10            1.1967     2.0359     0.0016 C.ar    
  11 C11            1.0733    -2.1855    -0.0195 C.2     
  12 O12            2.0973    -2.8388    -0.0328 O.2     
  13 O13           -0.1221    -2.8067    -0.0109 O.3     
  14 O14            4.7896     4.0858    -0.0248 O.3     
  15 C15            4.7059     5.5123    -0.0173 C.3     
  16 O16           -1.1991     1.9695     0.0184 O.3     
  17 C17           -2.3859     1.1736     0.0197 C.3     
  18 H18            3.2835    -0.6692    -0.0326 H       
  19 H19            4.5727     1.4869    -0.0343 H       
  20 H20            2.4158     5.1775     0.0051 H       
  21 H21            0.2892     3.9909     0.0208 H       
  22 H22           -0.1143    -3.7737    -0.0159 H       
  23 H23            4.1629     5.8491    -0.9004 H       
  24 H24            4.1806     5.8408     0.8795 H       
  25 H25            5.7105     5.9352    -0.0254 H       
  26 H26           -2.4056     0.5493    -0.8736 H       
  27 H27           -2.3972     0.5396     0.9063 H       
  28 H28           -3.2600     1.8246     0.0274 H       
@<TRIPOS>BOND
   1    1    2 ar
   2    1   10 ar
   3    1   16 1
   4    2    3 ar
   5    3    4 ar
   6    3   11 1
   7    4    5 ar
   8    4   18 1
   9    5    6 ar
  10    5   10 ar
  11    6    7 ar
  12    6   19 1
  13    7    8 ar
  14    7   14 1
  15    8    9 ar
  16    8   20 1
  17    9   10 ar
  18    9   21 1
  19   11   12 2
  20   11   13 1
  21   13   22 1
  22   14   15 1
  23   15   23 1
  24   15   24 1
  25   15   25 1
  26   16   17 1
  27   17   26 1
  28   17   27 1
  29   17   28 1

#	End of record

