#	Name: ASD03331945
#	Creating user name:	WinNT
#	Creation time:	15. 06. 2019 20:40

#	Modifying user name:	WinNT
#	Modification time:	15. 06. 2019 20:40

#	Program:	/corina/corina34_cracker 3.40 0067  02.08.2006

@<TRIPOS>MOLECULE
ASD03331945
  59   61    0    0    0
SMALL
NO_CHARGES


@<TRIPOS>ATOM
   1 C1             0.1612     1.2122     0.7162 C.2     
   2 N2             0.2492    -0.1104     0.9848 N.pl3   
   3 C3             1.5742    -0.4308     1.0447 C.2     
   4 N4             2.2773     0.6581     0.8402 N.2     
   5 C5             1.4346     1.6923     0.6369 C.2     
   6 C6             1.8217     3.0903     0.3754 C.2     
   7 O7             0.9651     3.9371     0.2069 O.2     
   8 N8             3.1248     3.4302     0.3229 N.am    
   9 C9             3.5095     4.8197     0.0630 C.3     
  10 C10            3.5351     5.0679    -1.4465 C.3     
  11 C11            4.4526     4.0431    -2.1164 C.3     
  12 C12            4.8785     5.0778     0.6378 C.2     
  13 C13            2.1194     4.9302    -2.0101 C.3     
  14 C14            4.0590     6.4787    -1.7225 C.3     
  15 O15            5.5449     4.1544     1.0551 O.2     
  16 N16            5.3621     6.3348     0.6882 N.am    
  17 C17            6.7236     6.5769     1.1720 C.3     
  18 C18           -0.8862    -1.0144     1.1888 C.3     
  19 C19           -1.9149    -0.7882     0.0768 C.3     
  20 C20           -2.8757     0.3251     0.4822 C.3     
  21 N21           -2.1930     1.3405     1.2870 N.3     
  22 C22           -1.1155     1.9896     0.5257 C.3     
  23 C23           -3.1461     2.3331     1.8010 C.3     
  24 C24            2.1259    -1.7802     1.2983 C.ar    
  25 N25            1.3018    -2.8032     1.4909 N.ar    
  26 C26            1.7527    -4.0192     1.7195 C.ar    
  27 C27            3.1110    -4.2760     1.7675 C.ar    
  28 C28            4.0082    -3.2354     1.5716 C.ar    
  29 C29            3.5075    -1.9684     1.3276 C.ar    
  30 H30            3.8080     2.7548     0.4573 H       
  31 H31            2.7874     5.4899     0.5293 H       
  32 H32            4.0794     3.0380    -1.9198 H       
  33 H33            4.4709     4.2200    -3.1918 H       
  34 H34            5.4612     4.1412    -1.7149 H       
  35 H35            1.4657     5.6604    -1.5328 H       
  36 H36            2.1376     5.1071    -3.0855 H       
  37 H37            1.7462     3.9252    -1.8135 H       
  38 H38            5.0199     6.6131    -1.2258 H       
  39 H39            4.1827     6.6166    -2.7966 H       
  40 H40            3.3475     7.2114    -1.3417 H       
  41 H41            4.8087     7.0791     0.4042 H       
  42 H42            7.4341     6.0466     0.5380 H       
  43 H43            6.9357     7.6456     1.1404 H       
  44 H44            6.8139     6.2187     2.1975 H       
  45 H45           -0.5392    -2.0473     1.1596 H       
  46 H46           -1.3448    -0.8105     2.1564 H       
  47 H47           -1.4000    -0.5062    -0.8416 H       
  48 H48           -2.4757    -1.7078    -0.0908 H       
  49 H49           -3.2809     0.7926    -0.4153 H       
  50 H50           -3.6935    -0.1016     1.0629 H       
  51 H51           -0.9783     3.0093     0.8856 H       
  52 H52           -1.3767     2.0077    -0.5324 H       
  53 H53           -3.8891     1.8349     2.4238 H       
  54 H54           -2.6128     3.0753     2.3951 H       
  55 H55           -3.6437     2.8257     0.9656 H       
  56 H56            1.0523    -4.8271     1.8720 H       
  57 H57            3.4701    -5.2769     1.9560 H       
  58 H58            5.0732    -3.4112     1.6044 H       
  59 H59            4.1771    -1.1358     1.1707 H       
@<TRIPOS>BOND
   1    1    2 1
   2    1    5 2
   3    1   22 1
   4    2    3 1
   5    2   18 1
   6    3    4 2
   7    3   24 1
   8    4    5 1
   9    5    6 1
  10    6    7 2
  11    6    8 am
  12    8    9 1
  13    8   30 1
  14    9   10 1
  15    9   12 1
  16    9   31 1
  17   10   11 1
  18   10   13 1
  19   10   14 1
  20   11   32 1
  21   11   33 1
  22   11   34 1
  23   12   15 2
  24   12   16 am
  25   13   35 1
  26   13   36 1
  27   13   37 1
  28   14   38 1
  29   14   39 1
  30   14   40 1
  31   16   17 1
  32   16   41 1
  33   17   42 1
  34   17   43 1
  35   17   44 1
  36   18   19 1
  37   18   45 1
  38   18   46 1
  39   19   20 1
  40   19   47 1
  41   19   48 1
  42   20   21 1
  43   20   49 1
  44   20   50 1
  45   21   22 1
  46   21   23 1
  47   22   51 1
  48   22   52 1
  49   23   53 1
  50   23   54 1
  51   23   55 1
  52   24   25 ar
  53   24   29 ar
  54   25   26 ar
  55   26   27 ar
  56   26   56 1
  57   27   28 ar
  58   27   57 1
  59   28   29 ar
  60   28   58 1
  61   29   59 1

#	End of record

