#	Name: ASD03331620
#	Creating user name:	WinNT
#	Creation time:	15. 06. 2019 20:39

#	Modifying user name:	WinNT
#	Modification time:	15. 06. 2019 20:39

#	Program:	/corina/corina34_cracker 3.40 0067  02.08.2006

@<TRIPOS>MOLECULE
ASD03331620
  53   54    0    0    0
SMALL
NO_CHARGES


@<TRIPOS>ATOM
   1 C1            -0.0167     1.3821     0.0096 C.ar    
   2 C2             0.0021    -0.0041     0.0020 C.ar    
   3 C3             1.2132    -0.6785    -0.0132 C.ar    
   4 C4             2.4034     0.0350    -0.0207 C.ar    
   5 C5             2.3820     1.4166    -0.0131 C.ar    
   6 C6             1.1762     2.0911     0.0021 C.ar    
   7 O7            -1.2024     2.0461     0.0189 O.3     
   8 O8             1.2349    -2.0373    -0.0202 O.3     
   9 C9            -1.2919    -0.7765     0.0107 C.3     
  10 C10           -1.7653    -2.8597     1.2519 C.2     
  11 C11           -2.2342    -3.5993     0.0333 C.3     
  12 C12           -2.5543    -2.6123    -1.0916 C.3     
  13 C13           -1.3699    -1.6496    -1.2436 C.3     
  14 C14           -1.3515    -1.6332     1.2414 C.2     
  15 C15           -1.7775    -3.5900     2.5700 C.3     
  16 C16            3.6760     2.1890    -0.0208 C.3     
  17 C17            4.1007     2.4582    -1.4658 C.3     
  18 C18            5.4144     3.2424    -1.4736 C.3     
  19 C19            5.8391     3.5115    -2.9187 C.3     
  20 C20            7.1528     4.2957    -2.9265 C.3     
  21 C21           -1.5777    -0.7781    -2.4553 C.2     
  22 C22           -2.7978     0.1013    -2.5508 C.3     
  23 C23           -0.6977    -0.7849    -3.4257 C.2     
  24 H24           -0.4466    -2.2188    -1.3518 H       
  25 H25           -2.1292    -0.0786     0.0178 H       
  26 H26            3.3472    -0.4899    -0.0322 H       
  27 H27            1.1621     3.1710     0.0080 H       
  28 H28           -1.5414     2.2335     0.9049 H       
  29 H29            1.2325    -2.4261    -0.9056 H       
  30 H30           -1.4524    -4.2830    -0.2975 H       
  31 H31           -3.1299    -4.1698     0.2792 H       
  32 H32           -2.7063    -3.1562    -2.0240 H       
  33 H33           -3.4540    -2.0503    -0.8410 H       
  34 H34           -1.0288    -1.1996     2.1764 H       
  35 H35           -0.8209    -4.0917     2.7163 H       
  36 H36           -1.9415    -2.8777     3.3786 H       
  37 H37           -2.5788    -4.3289     2.5686 H       
  38 H38            3.5366     3.1367     0.4994 H       
  39 H39            4.4488     1.6083     0.4829 H       
  40 H40            4.2401     1.5105    -1.9860 H       
  41 H41            3.3279     3.0389    -1.9695 H       
  42 H42            5.2750     4.1900    -0.9534 H       
  43 H43            6.1872     2.6617    -0.9700 H       
  44 H44            5.9785     2.5639    -3.4389 H       
  45 H45            5.0663     4.0922    -3.4223 H       
  46 H46            7.9256     3.7150    -2.4228 H       
  47 H47            7.4554     4.4875    -3.9559 H       
  48 H48            7.0134     5.2434    -2.4062 H       
  49 H49           -2.5787     1.0754    -2.1136 H       
  50 H50           -3.0743     0.2267    -3.5976 H       
  51 H51           -3.6229    -0.3623    -2.0101 H       
  52 H52            0.1768    -1.4150    -3.3573 H       
  53 H53           -0.8466    -0.1603    -4.2941 H       
@<TRIPOS>BOND
   1    1    2 ar
   2    1    6 ar
   3    1    7 1
   4    2    3 ar
   5    2    9 1
   6    3    4 ar
   7    3    8 1
   8    4    5 ar
   9    4   26 1
  10    5    6 ar
  11    5   16 1
  12    6   27 1
  13    7   28 1
  14    8   29 1
  15    9   13 1
  16    9   14 1
  17    9   25 1
  18   10   11 1
  19   10   14 2
  20   10   15 1
  21   11   12 1
  22   11   30 1
  23   11   31 1
  24   12   13 1
  25   12   32 1
  26   12   33 1
  27   13   21 1
  28   13   24 1
  29   14   34 1
  30   15   35 1
  31   15   36 1
  32   15   37 1
  33   16   17 1
  34   16   38 1
  35   16   39 1
  36   17   18 1
  37   17   40 1
  38   17   41 1
  39   18   19 1
  40   18   42 1
  41   18   43 1
  42   19   20 1
  43   19   44 1
  44   19   45 1
  45   20   46 1
  46   20   47 1
  47   20   48 1
  48   21   22 1
  49   21   23 2
  50   22   49 1
  51   22   50 1
  52   22   51 1
  53   23   52 1
  54   23   53 1

#	End of record

