#	Name: ASD02500896
#	Creating user name:	WinNT
#	Creation time:	15. 06. 2019 20:23

#	Modifying user name:	WinNT
#	Modification time:	15. 06. 2019 20:23

#	Program:	/corina/corina34_cracker 3.40 0067  02.08.2006

@<TRIPOS>MOLECULE
ASD02500896
  18   18    0    0    0
SMALL
NO_CHARGES


@<TRIPOS>ATOM
   1 C1            -0.0166     1.3699     0.0096 C.2     
   2 C2             0.0021    -0.0041     0.0020 C.2     
   3 C3             1.1876     1.9544     0.0012 C.2     
   4 S4             2.4323     0.7876    -0.0169 S.3     
   5 C5             1.2653    -0.5276    -0.0129 C.2     
   6 S6             1.4520     3.6965     0.0075 S.o2    
   7 C7             1.5934    -1.9542    -0.0237 C.2     
   8 O8             2.8831    -2.3496    -0.0386 O.3     
   9 O9             0.7032    -2.7830    -0.0191 O.2     
  10 C10            1.5365     4.1351     1.7656 C.3     
  11 O11            2.7219     3.8604    -0.6088 O.2     
  12 O12            0.2760     4.2315    -0.5840 O.2     
  13 H13           -0.9357     1.9369     0.0171 H       
  14 H14           -0.8918    -0.6101     0.0073 H       
  15 H15            3.0502    -3.3020    -0.0453 H       
  16 H16            1.7003     5.2081     1.8649 H       
  17 H17            0.6000     3.8639     2.2532 H       
  18 H18            2.3598     3.5969     2.2353 H       
@<TRIPOS>BOND
   1    1    2 1
   2    1    3 2
   3    1   13 1
   4    2    5 2
   5    2   14 1
   6    3    4 1
   7    3    6 1
   8    4    5 1
   9    5    7 1
  10    6   10 1
  11    6   11 2
  12    6   12 2
  13    7    8 1
  14    7    9 2
  15    8   15 1
  16   10   16 1
  17   10   17 1
  18   10   18 1

#	End of record

