#	Name: ASD01841022
#	Creating user name:	WinNT
#	Creation time:	15. 06. 2019 19:38

#	Modifying user name:	WinNT
#	Modification time:	15. 06. 2019 19:38

#	Program:	/corina/corina34_cracker 3.40 0067  02.08.2006

@<TRIPOS>MOLECULE
ASD01841022
  41   43    0    0    0
SMALL
NO_CHARGES


@<TRIPOS>ATOM
   1 C1            -0.0167     1.3826     0.0096 C.ar    
   2 C2             0.0021    -0.0041     0.0020 C.ar    
   3 C3             1.2034    -0.6767    -0.0131 C.ar    
   4 C4             2.4050     0.0299    -0.0208 C.ar    
   5 C5             2.4046     1.4268    -0.0133 C.ar    
   6 C6             1.1593     2.0983     0.0023 C.ar    
   7 S7             4.0771    -0.5257    -0.0398 S.3     
   8 C8             4.6442     1.1384    -0.0364 C.2     
   9 N9             3.6465     1.9517    -0.0224 N.2     
  10 O10            1.1239     3.4572     0.0094 O.3     
  11 C11           -0.1657     4.0725     0.0252 C.3     
  12 C12            1.2193    -2.1836    -0.0208 C.3     
  13 N13            5.9766     1.5205    -0.0471 N.am    
  14 C14            6.3027     2.8282    -0.0432 C.2     
  15 C15            7.7513     3.2436    -0.0549 C.3     
  16 O16            5.4304     3.6706    -0.0304 O.2     
  17 C17            7.8440     4.7708    -0.0476 C.3     
  18 C18            9.3146     5.1926    -0.0595 C.3     
  19 C19           10.0156     4.6332     1.1801 C.3     
  20 C20            9.9229     3.1060     1.1728 C.3     
  21 C21            8.4523     2.6842     1.1847 C.3     
  22 H22           -0.9618     1.9054     0.0170 H       
  23 H23           -0.9259    -0.5566     0.0083 H       
  24 H24           -0.7236     3.7697    -0.8609 H       
  25 H25           -0.7062     3.7607     0.9190 H       
  26 H26           -0.0511     5.1565     0.0295 H       
  27 H27            1.2131    -2.5417    -1.0503 H       
  28 H28            2.1181    -2.5401     0.4824 H       
  29 H29            0.3383    -2.5589     0.4997 H       
  30 H30            6.6743     0.8467    -0.0574 H       
  31 H31            8.2336     2.8547    -0.9517 H       
  32 H32            7.3446     5.1693    -0.9307 H       
  33 H33            7.3617     5.1598     0.8491 H       
  34 H34            9.7970     4.8036    -0.9562 H       
  35 H35            9.3807     6.2806    -0.0543 H       
  36 H36           11.0634     4.9336     1.1717 H       
  37 H37            9.5333     5.0222     2.0769 H       
  38 H38           10.4053     2.7170     0.2761 H       
  39 H39           10.4223     2.7075     2.0559 H       
  40 H40            7.9700     3.0732     2.0814 H       
  41 H41            8.3862     1.5963     1.1795 H       
@<TRIPOS>BOND
   1    1    2 ar
   2    1    6 ar
   3    1   22 1
   4    2    3 ar
   5    2   23 1
   6    3    4 ar
   7    3   12 1
   8    4    5 ar
   9    4    7 1
  10    5    6 ar
  11    5    9 1
  12    6   10 1
  13    7    8 1
  14    8    9 2
  15    8   13 1
  16   10   11 1
  17   11   24 1
  18   11   25 1
  19   11   26 1
  20   12   27 1
  21   12   28 1
  22   12   29 1
  23   13   14 am
  24   13   30 1
  25   14   15 1
  26   14   16 2
  27   15   17 1
  28   15   21 1
  29   15   31 1
  30   17   18 1
  31   17   32 1
  32   17   33 1
  33   18   19 1
  34   18   34 1
  35   18   35 1
  36   19   20 1
  37   19   36 1
  38   19   37 1
  39   20   21 1
  40   20   38 1
  41   20   39 1
  42   21   40 1
  43   21   41 1

#	End of record

