#	Name: ASD07300900
#	Creating user name:	WinNT
#	Creation time:	15. 06. 2019 21:10

#	Modifying user name:	WinNT
#	Modification time:	15. 06. 2019 21:10

#	Program:	/corina/corina34_cracker 3.40 0067  02.08.2006

@<TRIPOS>MOLECULE
ASD07300900
  48   52    0    0    0
SMALL
NO_CHARGES


@<TRIPOS>ATOM
   1 N1             1.3439     1.0792     0.1791 N.am    
   2 C2             0.8923    -0.1919     0.0322 C.2     
   3 N3             1.6812    -1.2058    -0.1737 N.2     
   4 C4             3.0126    -1.0622    -0.2564 C.2     
   5 C5             3.5734     0.2174    -0.1171 C.2     
   6 C6             2.6698     1.3442     0.1143 C.2     
   7 N7             4.0496    -1.9202    -0.4593 N.pl3   
   8 N8             5.2396    -1.1817    -0.4460 N.2     
   9 C9             4.9682     0.0788    -0.2450 C.2     
  10 O10            3.0946     2.4788     0.2431 O.2     
  11 C11            3.9446    -3.3043    -0.6481 C.ar    
  12 C12            3.0045    -3.8262    -1.5264 C.ar    
  13 N13            2.9024    -5.1280    -1.7064 N.ar    
  14 C14            3.6797    -5.9807    -1.0681 C.ar    
  15 C15            4.6398    -5.5373    -0.1773 C.ar    
  16 C16            4.7858    -4.1769     0.0382 C.ar    
  17 C17           -0.5919    -0.4409     0.1116 C.3     
  18 C18           -0.9722    -1.9286     0.0295 C.3     
  19 C19           -2.1544    -1.4967    -0.8541 C.3     
  20 C20           -1.3193    -0.2617    -1.2314 C.3     
  21 C21           -0.4330    -0.4758    -2.4312 C.2     
  22 N22           -0.4004     0.2764    -3.4941 N.2     
  23 C23            0.5097    -0.2238    -4.3486 C.2     
  24 C24            1.0449    -1.3169    -3.7802 C.2     
  25 O25            0.4553    -1.4678    -2.5780 O.3     
  26 C26            0.8645     0.3399    -5.7004 C.3     
  27 C27            2.1085    -2.2046    -4.3734 C.3     
  28 C28            5.8206    -3.6544     1.0011 C.3     
  29 H29            0.7137     1.8015     0.3273 H       
  30 H30            5.6908     0.8793    -0.1872 H       
  31 H31            2.3500    -3.1588    -2.0673 H       
  32 H32            3.5646    -7.0402    -1.2433 H       
  33 H33            5.2716    -6.2433     0.3411 H       
  34 H34           -1.0657     0.0859     0.9400 H       
  35 H35           -0.2363    -2.5392    -0.4937 H       
  36 H36           -1.2749    -2.3553     0.9857 H       
  37 H37           -2.3423    -2.1690    -1.6912 H       
  38 H38           -3.0565    -1.2583    -0.2906 H       
  39 H39           -1.9022     0.6573    -1.2930 H       
  40 H40            1.7205     1.0076    -5.6024 H       
  41 H41            1.1151    -0.4750    -6.3795 H       
  42 H42            0.0144     0.8950    -6.0971 H       
  43 H43            3.0925    -1.8364    -4.0832 H       
  44 H44            1.9786    -3.2226    -4.0060 H       
  45 H45            2.0237    -2.1969    -5.4601 H       
  46 H46            6.7421    -3.4366     0.4613 H       
  47 H47            5.4514    -2.7433     1.4721 H       
  48 H48            6.0167    -4.4053     1.7665 H       
@<TRIPOS>BOND
   1    1    2 1
   2    1    6 am
   3    1   29 1
   4    2    3 2
   5    2   17 1
   6    3    4 1
   7    4    5 2
   8    4    7 1
   9    5    6 1
  10    5    9 1
  11    6   10 2
  12    7    8 1
  13    7   11 1
  14    8    9 2
  15    9   30 1
  16   11   12 ar
  17   11   16 ar
  18   12   13 ar
  19   12   31 1
  20   13   14 ar
  21   14   15 ar
  22   14   32 1
  23   15   16 ar
  24   15   33 1
  25   16   28 1
  26   17   18 1
  27   17   20 1
  28   17   34 1
  29   18   19 1
  30   18   35 1
  31   18   36 1
  32   19   20 1
  33   19   37 1
  34   19   38 1
  35   20   21 1
  36   20   39 1
  37   21   22 2
  38   21   25 1
  39   22   23 1
  40   23   24 2
  41   23   26 1
  42   24   25 1
  43   24   27 1
  44   26   40 1
  45   26   41 1
  46   26   42 1
  47   27   43 1
  48   27   44 1
  49   27   45 1
  50   28   46 1
  51   28   47 1
  52   28   48 1

#	End of record

