#	Name: ASD01901546
#	Creating user name:	WinNT
#	Creation time:	15. 06. 2019 19:53

#	Modifying user name:	WinNT
#	Modification time:	15. 06. 2019 19:53

#	Program:	/corina/corina34_cracker 3.40 0067  02.08.2006

@<TRIPOS>MOLECULE
ASD01901546
  45   49    0    0    0
SMALL
NO_CHARGES


@<TRIPOS>ATOM
   1 F1             1.6837    -0.3322     0.1530 F       
   2 C2             1.4115     1.0400     0.1663 C.3     
   3 F3             0.5856     1.3628    -0.9158 F       
   4 C4             0.7079     1.4089     1.4753 C.3     
   5 C5             0.4676     2.9207     1.5079 C.3     
   6 C6             1.8061     3.6483     1.3623 C.3     
   7 N7             2.4390     3.2625     0.0947 N.3     
   8 C8             3.6590     4.0452    -0.1443 C.3     
   9 C9             4.1432     3.8038    -1.5508 C.2     
  10 N10            4.9654     2.8448    -1.8044 N.2     
  11 S11            5.3018     2.8524    -3.4666 S.3     
  12 C12            4.2690     4.2345    -3.8397 C.ar    
  13 C13            3.9623     4.9163    -5.0076 C.ar    
  14 C14            3.0839     5.9897    -4.9265 C.ar    
  15 N15            2.7377     6.7137    -6.0699 N.pl3   
  16 C16            2.7903     6.1031    -7.3267 C.2     
  17 N17            3.0413     4.8423    -7.5608 N.2     
  18 N18            3.0098     4.5952    -8.9371 N.pl3   
  19 H19            3.1652     3.7350    -9.3578 H       
  20 C20            2.7246     5.7617    -9.5961 C.ar    
  21 C21            2.5721     6.1014   -10.9400 C.ar    
  22 C22            2.2776     7.4139   -11.2527 C.ar    
  23 C23            2.1427     8.3489   -10.2347 C.ar    
  24 N24            2.2899     8.0125    -8.9735 N.ar    
  25 C25            2.5678     6.7608    -8.6165 C.ar    
  26 C26            2.5533     6.3309    -3.6809 C.ar    
  27 N27            2.8605     5.6696    -2.5954 N.ar    
  28 C28            3.7005     4.6180    -2.6085 C.ar    
  29 C29            2.7226     1.8221     0.0596 C.3     
  30 H30           -0.2471     0.8869     1.5351 H       
  31 H31            1.3347     1.1213     2.3194 H       
  32 H32           -0.1910     3.2024     0.6863 H       
  33 H33            0.0054     3.1954     2.4561 H       
  34 H34            1.6369     4.7251     1.3708 H       
  35 H35            2.4591     3.3769     2.1917 H       
  36 H36            3.4424     5.1052    -0.0115 H       
  37 H37            4.4304     3.7405     0.5629 H       
  38 H38            4.3940     4.6217    -5.9528 H       
  39 H39            2.4607     7.6400    -5.9920 H       
  40 H40            2.6818     5.3579   -11.7156 H       
  41 H41            2.1532     7.7117   -12.2834 H       
  42 H42            1.9123     9.3739   -10.4852 H       
  43 H43            1.8703     7.1646    -3.6119 H       
  44 H44            3.3713     1.5592     0.8951 H       
  45 H45            3.2191     1.5724    -0.8781 H       
@<TRIPOS>BOND
   1    1    2 1
   2    2   29 1
   3    2    3 1
   4    2    4 1
   5    4    5 1
   6    4   30 1
   7    4   31 1
   8    5    6 1
   9    5   32 1
  10    5   33 1
  11    6    7 1
  12    6   34 1
  13    6   35 1
  14    7    8 1
  15    7   29 1
  16    8    9 1
  17    8   36 1
  18    8   37 1
  19    9   28 1
  20    9   10 2
  21   10   11 1
  22   11   12 1
  23   12   28 ar
  24   12   13 ar
  25   13   14 ar
  26   13   38 1
  27   14   15 1
  28   14   26 ar
  29   15   16 1
  30   15   39 1
  31   16   25 1
  32   16   17 2
  33   17   18 1
  34   18   19 1
  35   18   20 1
  36   20   25 ar
  37   20   21 ar
  38   21   22 ar
  39   21   40 1
  40   22   23 ar
  41   22   41 1
  42   23   24 ar
  43   23   42 1
  44   24   25 ar
  45   26   27 ar
  46   26   43 1
  47   27   28 ar
  48   29   44 1
  49   29   45 1

#	End of record

