#	Name: ASD01890366
#	Creating user name:	WinNT
#	Creation time:	15. 06. 2019 19:50

#	Modifying user name:	WinNT
#	Modification time:	15. 06. 2019 19:50

#	Program:	/corina/corina34_cracker 3.40 0067  02.08.2006

@<TRIPOS>MOLECULE
ASD01890366
  47   48    0    0    0
SMALL
NO_CHARGES


@<TRIPOS>ATOM
   1 C1             0.1791     1.5287     0.0760 C.2     
   2 C2             0.1167     0.0247     0.0034 C.3     
   3 C3             1.5356    -0.5468     0.0357 C.3     
   4 O4             1.2487     2.0862     0.1465 O.2     
   5 O5            -0.9533     2.2491     0.0570 O.3     
   6 C6             1.4954    -2.6270    -1.2324 C.2     
   7 C7             1.5589    -4.1310    -1.3029 C.3     
   8 O8             1.4626    -1.9729    -2.2533 O.2     
   9 N9             1.4749    -2.0088    -0.0350 N.am    
  10 C10            1.3957    -2.7634     1.1407 C.ar    
  11 C11            2.4615    -2.7787     2.0308 C.ar    
  12 C12            2.3802    -3.5246     3.1904 C.ar    
  13 C13            1.2390    -4.2555     3.4655 C.ar    
  14 C14            0.1762    -4.2427     2.5810 C.ar    
  15 C15            0.2488    -3.4940     1.4226 C.ar    
  16 C16            1.4525    -4.5715    -2.7402 C.ar    
  17 C17            2.5950    -4.7182    -3.5045 C.ar    
  18 C18            2.4974    -5.1222    -4.8229 C.ar    
  19 C19            1.2574    -5.3799    -5.3768 C.ar    
  20 C20            0.1150    -5.2340    -4.6123 C.ar    
  21 C21            0.2129    -4.8342    -3.2926 C.ar    
  22 C22            1.1509    -5.8193    -6.8144 C.3     
  23 C23           -0.8174     3.6929     0.1303 C.3     
  24 C24           -2.2043     4.3381     0.0959 C.3     
  25 H25           -0.4482    -0.3570     0.8538 H       
  26 H26           -0.3744    -0.2742    -0.9227 H       
  27 H27            2.1005    -0.1650    -0.8148 H       
  28 H28            2.0267    -0.2478     0.9617 H       
  29 H29            2.5060    -4.4746    -0.8868 H       
  30 H30            0.7348    -4.5567    -0.7305 H       
  31 H31            3.3531    -2.2083     1.8164 H       
  32 H32            3.2089    -3.5372     3.8829 H       
  33 H33            1.1779    -4.8380     4.3729 H       
  34 H34           -0.7136    -4.8150     2.7985 H       
  35 H35           -0.5835    -3.4806     0.7346 H       
  36 H36            3.5638    -4.5169    -3.0717 H       
  37 H37            3.3899    -5.2362    -5.4202 H       
  38 H38           -0.8538    -5.4350    -5.0451 H       
  39 H39           -0.6794    -4.7238    -2.6942 H       
  40 H40            1.1976    -6.9071    -6.8662 H       
  41 H41            0.2035    -5.4761    -7.2300 H       
  42 H42            1.9746    -5.3927    -7.3867 H       
  43 H43           -0.3136     3.9638     1.0581 H       
  44 H44           -0.2312     4.0462    -0.7181 H       
  45 H45           -2.7082     4.0672    -0.8319 H       
  46 H46           -2.7905     3.9848     0.9442 H       
  47 H47           -2.1023     5.4219     0.1509 H       
@<TRIPOS>BOND
   1    1    2 1
   2    1    4 2
   3    1    5 1
   4    2    3 1
   5    2   25 1
   6    2   26 1
   7    3    9 1
   8    3   27 1
   9    3   28 1
  10    5   23 1
  11    6    7 1
  12    6    8 2
  13    6    9 am
  14    7   16 1
  15    7   29 1
  16    7   30 1
  17    9   10 1
  18   10   11 ar
  19   10   15 ar
  20   11   12 ar
  21   11   31 1
  22   12   13 ar
  23   12   32 1
  24   13   14 ar
  25   13   33 1
  26   14   15 ar
  27   14   34 1
  28   15   35 1
  29   16   17 ar
  30   16   21 ar
  31   17   18 ar
  32   17   36 1
  33   18   19 ar
  34   18   37 1
  35   19   20 ar
  36   19   22 1
  37   20   21 ar
  38   20   38 1
  39   21   39 1
  40   22   40 1
  41   22   41 1
  42   22   42 1
  43   23   24 1
  44   23   43 1
  45   23   44 1
  46   24   45 1
  47   24   46 1
  48   24   47 1

#	End of record

