#	Name: ASD01190047
#	Creating user name:	WinNT
#	Creation time:	15. 06. 2019 19:07

#	Modifying user name:	WinNT
#	Modification time:	15. 06. 2019 19:07

#	Program:	/corina/corina34_cracker 3.40 0067  02.08.2006

@<TRIPOS>MOLECULE
ASD01190047
  55   59    0    0    0
SMALL
NO_CHARGES


@<TRIPOS>ATOM
   1 C1            -0.0187     1.5258     0.0104 C.3     
   2 C2            -0.9596     2.6613     0.4180 C.3     
   3 N3             5.2647     3.4324     0.1973 N.am    
   4 N4             5.3901     3.5884     1.5816 N.2     
   5 C5             4.2833     3.2396     2.1731 C.2     
   6 C6             3.3403     2.8191     1.1419 C.ar    
   7 C7             2.0225     2.3483     1.1624 C.ar    
   8 C8             1.4005     2.0323    -0.0104 C.ar    
   9 C9             2.0633     2.1728    -1.2236 C.ar    
  10 C10            3.3499     2.6295    -1.2693 C.ar    
  11 C11            4.0104     2.9603    -0.0885 C.ar    
  12 S12            6.4411     3.7707    -0.9180 S.o2    
  13 O13            5.7220     4.0608    -2.1088 O.2     
  14 O14            7.2463     4.7586    -0.2894 O.2     
  15 C15            7.3603     2.2166    -1.0921 C.3     
  16 C16            8.4716     2.3996    -2.0933 C.ar    
  17 C17            9.7189     2.8212    -1.6722 C.ar    
  18 C18           10.7382     2.9892    -2.5906 C.ar    
  19 C19           10.5104     2.7351    -3.9302 C.ar    
  20 C20            9.2634     2.3126    -4.3512 C.ar    
  21 C21            8.2452     2.1405    -3.4322 C.ar    
  22 N22           -0.7716    -0.8275     2.7403 N.pl3   
  23 C23           -0.9396     0.3566     2.0756 C.2     
  24 C24           -0.1346     0.3969     1.0020 C.2     
  25 C25            0.6097    -0.8645     0.9773 C.ar    
  26 C26            1.5764    -1.4045     0.1267 C.ar    
  27 C27            2.0903    -2.6440     0.3842 C.ar    
  28 C28            1.6591    -3.3714     1.4853 C.ar    
  29 C29            0.7062    -2.8579     2.3371 C.ar    
  30 C30            0.1695    -1.5975     2.0943 C.ar    
  31 C31           -1.4825    -1.2156     3.9610 C.3     
  32 F32           -0.8520     3.7092    -0.5025 F       
  33 F33           -2.2771     2.1910     0.4373 F       
  34 F34           -0.6102     3.1219     1.6920 F       
  35 O35           -0.3756     1.0553    -1.2908 O.3     
  36 H36            4.0971     3.2577     3.2368 H       
  37 H37            1.5009     2.2352     2.1013 H       
  38 H38            1.5551     1.9175    -2.1417 H       
  39 H39            3.8539     2.7334    -2.2188 H       
  40 H40            7.7829     1.9344    -0.1277 H       
  41 H41            6.6862     1.4324    -1.4368 H       
  42 H42            9.8969     3.0197    -0.6256 H       
  43 H43           11.7125     3.3192    -2.2617 H       
  44 H44           11.3067     2.8670    -4.6479 H       
  45 H45            9.0853     2.1144    -5.3979 H       
  46 H46            7.2720     1.8069    -3.7606 H       
  47 H47           -1.6193     1.1422     2.3706 H       
  48 H48            1.9163    -0.8446    -0.7320 H       
  49 H49            2.8377    -3.0614    -0.2743 H       
  50 H50            2.0748    -4.3498     1.6757 H       
  51 H51            0.3770    -3.4317     3.1908 H       
  52 H52           -2.4024    -1.7367     3.6957 H       
  53 H53           -0.8501    -1.8748     4.5558 H       
  54 H54           -1.7239    -0.3241     4.5399 H       
  55 H55            0.1804     0.3332    -1.6142 H       
@<TRIPOS>BOND
   1    1    2 1
   2    1    8 1
   3    1   24 1
   4    1   35 1
   5    2   32 1
   6    2   33 1
   7    2   34 1
   8    3    4 1
   9    3   11 1
  10    3   12 am
  11    4    5 2
  12    5    6 1
  13    5   36 1
  14    6    7 ar
  15    6   11 ar
  16    7    8 ar
  17    7   37 1
  18    8    9 ar
  19    9   10 ar
  20    9   38 1
  21   10   11 ar
  22   10   39 1
  23   12   13 2
  24   12   14 2
  25   12   15 1
  26   15   16 1
  27   15   40 1
  28   15   41 1
  29   16   17 ar
  30   16   21 ar
  31   17   18 ar
  32   17   42 1
  33   18   19 ar
  34   18   43 1
  35   19   20 ar
  36   19   44 1
  37   20   21 ar
  38   20   45 1
  39   21   46 1
  40   22   23 1
  41   22   30 1
  42   22   31 1
  43   23   24 2
  44   23   47 1
  45   24   25 1
  46   25   26 ar
  47   25   30 ar
  48   26   27 ar
  49   26   48 1
  50   27   28 ar
  51   27   49 1
  52   28   29 ar
  53   28   50 1
  54   29   30 ar
  55   29   51 1
  56   31   52 1
  57   31   53 1
  58   31   54 1
  59   35   55 1

#	End of record

