#	Name: ASD01813846
#	Creating user name:	WinNT
#	Creation time:	15. 06. 2019 19:31

#	Modifying user name:	WinNT
#	Modification time:	15. 06. 2019 19:31

#	Program:	/corina/corina34_cracker 3.40 0067  02.08.2006

@<TRIPOS>MOLECULE
ASD01813846
  50   53    0    0    0
SMALL
NO_CHARGES


@<TRIPOS>ATOM
   1 C1            -0.3106     0.9789     0.1394 C.2     
   2 C2            -0.1837    -0.4168     0.1316 C.2     
   3 C3             1.0591    -0.9777     0.0872 C.2     
   4 C4             2.1909    -0.1465     0.0498 C.2     
   5 N5             2.0377     1.2134     0.0587 N.am    
   6 C6             0.7906     1.7627     0.1030 C.2     
   7 C7             3.4692    -0.7205     0.0042 C.2     
   8 C8             4.5754     0.0780    -0.0319 C.2     
   9 C9             4.4139     1.4759    -0.0232 C.2     
  10 C10            3.1154     2.0228     0.0236 C.2     
  11 O11            2.9662     3.2331     0.0311 O.2     
  12 C12            5.5848     2.3549    -0.0608 C.2     
  13 O13            5.4233     3.6942    -0.0522 O.3     
  14 O14            6.7028     1.8773    -0.0999 O.2     
  15 C15            3.6218    -2.2197    -0.0046 C.3     
  16 N16            3.7436    -2.6915    -1.3904 N.3     
  17 C17            4.1294    -4.1088    -1.4323 C.3     
  18 C18            4.1679    -4.5816    -2.8875 C.3     
  19 N19            5.1212    -3.7567    -3.6427 N.3     
  20 C20            4.7353    -2.3393    -3.6009 C.3     
  21 C21            4.6969    -1.8666    -2.1457 C.3     
  22 C22            5.2369    -4.2052    -4.9604 C.ar    
  23 C23            6.4435    -4.7198    -5.4170 C.ar    
  24 C24            6.5545    -5.1625    -6.7207 C.ar    
  25 C25            5.4663    -5.0937    -7.5708 C.ar    
  26 C26            4.2634    -4.5818    -7.1194 C.ar    
  27 C27            4.1438    -4.1428    -5.8157 C.ar    
  28 N28            7.6090    -4.7934    -4.5078 N.pl3   
  29 O29            8.6364    -5.3334    -4.8772 O.2     
  30 O30            7.5408    -4.3139    -3.3902 O.2     
  31 H31           -1.2915     1.4299     0.1700 H       
  32 H32           -1.0629    -1.0433     0.1611 H       
  33 H33            1.1718    -2.0518     0.0810 H       
  34 H34            0.6810     2.8371     0.1097 H       
  35 H35            5.5629    -0.3578    -0.0665 H       
  36 H36            6.2257     4.2333    -0.0781 H       
  37 H37            4.5160    -2.4972     0.5536 H       
  38 H38            2.7476    -2.6766     0.4593 H       
  39 H39            5.1156    -4.2307    -0.9842 H       
  40 H40            3.4017    -4.7004    -0.8769 H       
  41 H41            4.4820    -5.6247    -2.9228 H       
  42 H42            3.1753    -4.4852    -3.3275 H       
  43 H43            5.4631    -1.7477    -4.1563 H       
  44 H44            3.7492    -2.2175    -4.0490 H       
  45 H45            4.3828    -0.8234    -2.1104 H       
  46 H46            5.6894    -1.9629    -1.7057 H       
  47 H47            7.4925    -5.5624    -7.0765 H       
  48 H48            5.5559    -5.4402    -8.5898 H       
  49 H49            3.4154    -4.5292    -7.7862 H       
  50 H50            3.2042    -3.7432    -5.4638 H       
@<TRIPOS>BOND
   1    1    2 1
   2    1    6 2
   3    1   31 1
   4    2    3 2
   5    2   32 1
   6    3    4 1
   7    3   33 1
   8    4    5 1
   9    4    7 2
  10    5    6 1
  11    5   10 am
  12    6   34 1
  13    7    8 1
  14    7   15 1
  15    8    9 2
  16    8   35 1
  17    9   10 1
  18    9   12 1
  19   10   11 2
  20   12   13 1
  21   12   14 2
  22   13   36 1
  23   15   16 1
  24   15   37 1
  25   15   38 1
  26   16   17 1
  27   16   21 1
  28   17   18 1
  29   17   39 1
  30   17   40 1
  31   18   19 1
  32   18   41 1
  33   18   42 1
  34   19   20 1
  35   19   22 1
  36   20   21 1
  37   20   43 1
  38   20   44 1
  39   21   45 1
  40   21   46 1
  41   22   23 ar
  42   22   27 ar
  43   23   24 ar
  44   23   28 1
  45   24   25 ar
  46   24   47 1
  47   25   26 ar
  48   25   48 1
  49   26   27 ar
  50   26   49 1
  51   27   50 1
  52   28   29 2
  53   28   30 2

#	End of record

