#	Name: ASD01884278
#	Creating user name:	WinNT
#	Creation time:	15. 06. 2019 19:47

#	Modifying user name:	WinNT
#	Modification time:	15. 06. 2019 19:47

#	Program:	/corina/corina34_cracker 3.40 0067  02.08.2006

@<TRIPOS>MOLECULE
ASD01884278
  35   38    0    0    0
SMALL
NO_CHARGES


@<TRIPOS>ATOM
   1 C1            -0.1008     1.5551    -0.0864 C.ar    
   2 C2            -0.3102     0.2089     0.1825 C.ar    
   3 C3            -1.5686    -0.3384     0.0955 C.ar    
   4 C4            -2.6716     0.4493    -0.2669 C.ar    
   5 C5            -2.4426     1.7999    -0.5335 C.ar    
   6 C6            -1.1783     2.3523    -0.4406 C.ar    
   7 N7            -3.9930     0.0552    -0.3986 N.am    
   8 C8            -4.9007     0.9686    -0.7563 C.2     
   9 S9            -4.0164     2.4909    -0.9522 S.3     
  10 O10           -6.0941     0.7903    -0.9159 O.2     
  11 C11           -4.3873    -1.3339    -0.1514 C.3     
  12 C12           -4.7563    -1.5045     1.3236 C.3     
  13 C13           -5.3096    -2.8623     1.7609 C.3     
  14 C14           -3.8928    -2.4481     2.1632 C.3     
  15 F15           -2.8263    -3.0888     1.5235 F       
  16 F16           -3.6757    -2.1054     3.5021 F       
  17 O17            1.1472     2.0871     0.0023 O.3     
  18 C18            1.4414     2.8444     1.0900 C.ar    
  19 C19            2.6690     3.4940     1.1650 C.ar    
  20 N20            0.5561     2.9613     2.0650 N.ar    
  21 C21            0.8003     3.6868     3.1400 C.ar    
  22 C22            2.0015     4.3563     3.2856 C.ar    
  23 C23            2.9569     4.2639     2.2807 C.ar    
  24 F24            3.5685     3.3758     0.1641 F       
  25 F25            2.2412     5.0968     4.3899 F       
  26 H26            0.5251    -0.4156     0.4629 H       
  27 H27           -1.7097    -1.3877     0.3084 H       
  28 H28           -1.0291     3.4008    -0.6521 H       
  29 H29           -5.2477    -1.5834    -0.7724 H       
  30 H30           -3.5574    -1.9964    -0.3973 H       
  31 H31           -5.1555    -0.6168     1.8141 H       
  32 H32           -6.0726    -2.8678     2.5393 H       
  33 H33           -5.4108    -3.6340     0.9977 H       
  34 H34            0.0523     3.7590     3.9157 H       
  35 H35            3.9034     4.7763     2.3693 H       
@<TRIPOS>BOND
   1    1    2 ar
   2    1   17 1
   3    1    6 ar
   4    2    3 ar
   5    2   26 1
   6    3    4 ar
   7    3   27 1
   8    4    5 ar
   9    4    7 1
  10    5    6 ar
  11    5    9 1
  12    6   28 1
  13    7    8 am
  14    7   11 1
  15    8    9 1
  16    8   10 2
  17   11   12 1
  18   11   29 1
  19   11   30 1
  20   12   13 1
  21   12   14 1
  22   12   31 1
  23   13   14 1
  24   13   32 1
  25   13   33 1
  26   14   15 1
  27   14   16 1
  28   17   18 1
  29   18   19 ar
  30   18   20 ar
  31   19   24 1
  32   19   23 ar
  33   20   21 ar
  34   21   22 ar
  35   21   34 1
  36   22   23 ar
  37   22   25 1
  38   23   35 1

#	End of record

