#	Name: ASD01870057
#	Creating user name:	WinNT
#	Creation time:	15. 06. 2019 19:38

#	Modifying user name:	WinNT
#	Modification time:	15. 06. 2019 19:38

#	Program:	/corina/corina34_cracker 3.40 0067  02.08.2006

@<TRIPOS>MOLECULE
ASD01870057
  51   56    0    0    0
SMALL
NO_CHARGES


@<TRIPOS>ATOM
   1 C1            -0.0167     1.3774     0.0096 C.ar    
   2 C2             0.0021    -0.0041     0.0020 C.ar    
   3 N3             1.1354    -0.6695    -0.0124 N.ar    
   4 C4             2.3261    -0.0578    -0.0204 C.ar    
   5 C5             2.3957     1.3311    -0.0137 C.ar    
   6 C6             1.1851     2.0719     0.0019 C.ar    
   7 S7             3.9418    -0.7499    -0.0395 S.3     
   8 C8             4.7120     0.8266    -0.0385 C.2     
   9 C9             3.7719     1.8347    -0.0242 C.2     
  10 C10            6.0889     1.1773    -0.0506 C.2     
  11 N11            6.4256     2.4824    -0.0475 N.am    
  12 C12            5.4572     3.4333    -0.0332 C.2     
  13 N13            4.1962     3.1281    -0.0221 N.2     
  14 N14            1.2027     3.4594     0.0092 N.3     
  15 C15            7.8371     2.8747    -0.0592 C.3     
  16 O16            6.9500     0.3135    -0.0630 O.2     
  17 C17            0.5124     4.0008    -1.1691 C.3     
  18 C18            0.6190     3.9867     1.2498 C.3     
  19 C19            7.9423     4.4010    -0.0529 C.3     
  20 C20            9.4164     4.8107    -0.0651 C.3     
  21 C21           10.1128     4.2463     1.1748 C.3     
  22 C22           10.0076     2.7199     1.1685 C.3     
  23 C23            8.5335     2.3103     1.1807 C.3     
  24 C24           10.6800     2.1676    -0.0900 C.3     
  25 C25            9.9836     2.7320    -1.3299 C.3     
  26 C26            8.5095     2.3223    -1.3177 C.3     
  27 C27           10.0888     4.2584    -1.3235 C.3     
  28 H28           -0.9557     1.9109     0.0170 H       
  29 H29           -0.9315    -0.5470     0.0084 H       
  30 H30            5.7447     4.4743    -0.0305 H       
  31 H31           -0.5244     3.6643    -1.1692 H       
  32 H32            0.5409     5.0900    -1.1383 H       
  33 H33            1.0084     3.6497    -2.0740 H       
  34 H34            1.1925     3.6255     2.1034 H       
  35 H35            0.6453     5.0762     1.2293 H       
  36 H36           -0.4139     3.6498     1.3373 H       
  37 H37            7.4461     4.8031    -0.9362 H       
  38 H38            7.4632     4.7945     0.8437 H       
  39 H39            9.4913     5.8981    -0.0606 H       
  40 H40           11.1630     4.5382     1.1661 H       
  41 H41            9.6338     4.6398     2.0714 H       
  42 H42           10.5038     2.3179     2.0518 H       
  43 H43            8.0545     2.7038     2.0772 H       
  44 H44            8.4586     1.2229     1.1762 H       
  45 H45           11.7302     2.4595    -0.0987 H       
  46 H46           10.6051     1.0802    -0.0945 H       
  47 H47           10.4626     2.3385    -2.2264 H       
  48 H48            8.4345     1.2349    -1.3222 H       
  49 H49            8.0133     2.7244    -2.2010 H       
  50 H50            9.5926     4.6604    -2.2068 H       
  51 H51           11.1389     4.5502    -1.3322 H       
@<TRIPOS>BOND
   1    1    2 ar
   2    1    6 ar
   3    1   28 1
   4    2    3 ar
   5    2   29 1
   6    3    4 ar
   7    4    5 ar
   8    4    7 1
   9    5    6 ar
  10    5    9 1
  11    6   14 1
  12    7    8 1
  13    8    9 2
  14    8   10 1
  15    9   13 1
  16   10   11 am
  17   10   16 2
  18   11   12 1
  19   11   15 1
  20   12   13 2
  21   12   30 1
  22   14   17 1
  23   14   18 1
  24   15   19 1
  25   15   26 1
  26   15   23 1
  27   17   31 1
  28   17   32 1
  29   17   33 1
  30   18   34 1
  31   18   35 1
  32   18   36 1
  33   19   20 1
  34   19   37 1
  35   19   38 1
  36   20   21 1
  37   20   27 1
  38   20   39 1
  39   21   22 1
  40   21   40 1
  41   21   41 1
  42   22   23 1
  43   22   24 1
  44   22   42 1
  45   23   43 1
  46   23   44 1
  47   24   25 1
  48   24   45 1
  49   24   46 1
  50   25   26 1
  51   25   27 1
  52   25   47 1
  53   26   48 1
  54   26   49 1
  55   27   50 1
  56   27   51 1

#	End of record

