#	Name: ASD01917358
#	Creating user name:	WinNT
#	Creation time:	15. 06. 2019 20:09

#	Modifying user name:	WinNT
#	Modification time:	15. 06. 2019 20:09

#	Program:	/corina/corina34_cracker 3.40 0067  02.08.2006

@<TRIPOS>MOLECULE
ASD01917358
  50   53    0    0    0
SMALL
NO_CHARGES


@<TRIPOS>ATOM
   1 S1            -0.0282     1.7673     0.0007 S.3     
   2 C2            -0.0007     0.0066    -0.0007 C.2     
   3 N3             1.2408    -0.3973    -0.0120 N.2     
   4 C4             2.1475     0.5440    -0.0194 C.2     
   5 C5             1.6821     1.8031    -0.0144 C.2     
   6 C6            -1.1853    -0.8681     0.0096 C.2     
   7 O7            -1.0489    -2.0766     0.0080 O.2     
   8 N8            -2.4206    -0.3293     0.0209 N.am    
   9 C9            -3.5992    -1.1994     0.0312 C.3     
  10 C10           -3.6538    -2.1331    -1.1906 C.3     
  11 C11           -4.7731    -3.1559    -0.9870 C.3     
  12 C12           -6.1036    -2.4450    -0.7319 C.3     
  13 C13           -5.9436    -1.4979     0.4703 C.3     
  14 C14           -5.1942    -2.2763     1.5763 C.3     
  15 C15           -3.6732    -2.0866     1.2954 C.3     
  16 C16           -4.9307    -0.4030     0.0430 C.3     
  17 C17           -7.2602    -0.9389     0.9446 C.2     
  18 N18           -8.2366    -1.7716     1.3567 N.am    
  19 O19           -7.4412     0.2602     0.9555 O.2     
  20 C20           -9.4130    -1.2534     1.8960 C.ar    
  21 C21          -10.4653    -2.1046     2.2224 C.ar    
  22 N22           -9.5306     0.0509     2.1045 N.ar    
  23 N23          -11.5771    -1.6103     2.7332 N.ar    
  24 C24          -11.6922    -0.3084     2.9349 C.ar    
  25 C25          -10.6476     0.5388     2.6166 C.ar    
  26 C26          -10.7819     2.0210     2.8538 C.3     
  27 C27            3.6225     0.2354    -0.0323 C.3     
  28 H28            2.2900     2.6957    -0.0199 H       
  29 H29           -2.5294     0.6346     0.0222 H       
  30 H30           -3.8535    -1.5478    -2.0882 H       
  31 H31           -2.7008    -2.6516    -1.2963 H       
  32 H32           -4.8611    -3.7768    -1.8786 H       
  33 H33           -4.5326    -3.7885    -0.1325 H       
  34 H34           -6.3849    -1.8700    -1.6142 H       
  35 H35           -6.8757    -3.1830    -0.5145 H       
  36 H36           -5.4464    -1.8709     2.5561 H       
  37 H37           -5.4522    -3.3343     1.5302 H       
  38 H38           -3.2033    -3.0513     1.1041 H       
  39 H39           -3.1817    -1.5891     2.1315 H       
  40 H40           -4.8919     0.4126     0.7651 H       
  41 H41           -5.1720    -0.0303    -0.9525 H       
  42 H42           -8.1207    -2.7314     1.2780 H       
  43 H43          -10.3719    -3.1679     2.0576 H       
  44 H44          -12.6033     0.0934     3.3531 H       
  45 H45          -11.1972     2.4951     1.9646 H       
  46 H46          -11.4449     2.1946     3.7014 H       
  47 H47           -9.8007     2.4452     3.0672 H       
  48 H48            3.9694     0.1618    -1.0630 H       
  49 H49            4.1648     1.0316     0.4776 H       
  50 H50            3.8002    -0.7106     0.4793 H       
@<TRIPOS>BOND
   1    1    2 1
   2    1    5 1
   3    2    3 2
   4    2    6 1
   5    3    4 1
   6    4    5 2
   7    4   27 1
   8    5   28 1
   9    6    7 2
  10    6    8 am
  11    8    9 1
  12    8   29 1
  13    9   10 1
  14    9   15 1
  15    9   16 1
  16   10   11 1
  17   10   30 1
  18   10   31 1
  19   11   12 1
  20   11   32 1
  21   11   33 1
  22   12   13 1
  23   12   34 1
  24   12   35 1
  25   13   14 1
  26   13   16 1
  27   13   17 1
  28   14   15 1
  29   14   36 1
  30   14   37 1
  31   15   38 1
  32   15   39 1
  33   16   40 1
  34   16   41 1
  35   17   18 am
  36   17   19 2
  37   18   20 1
  38   18   42 1
  39   20   21 ar
  40   20   22 ar
  41   21   23 ar
  42   21   43 1
  43   22   25 ar
  44   23   24 ar
  45   24   25 ar
  46   24   44 1
  47   25   26 1
  48   26   45 1
  49   26   46 1
  50   26   47 1
  51   27   48 1
  52   27   49 1
  53   27   50 1

#	End of record

