#	Name: ASD01148131
#	Creating user name:	WinNT
#	Creation time:	15. 06. 2019 19:02

#	Modifying user name:	WinNT
#	Modification time:	15. 06. 2019 19:02

#	Program:	/corina/corina34_cracker 3.40 0067  02.08.2006

@<TRIPOS>MOLECULE
ASD01148131
  41   42    0    0    0
SMALL
NO_CHARGES


@<TRIPOS>ATOM
   1 C1            -0.0166     1.3750     0.0096 C.ar    
   2 C2             0.0021    -0.0041     0.0020 C.ar    
   3 C3             1.1752     2.0868     0.0020 C.ar    
   4 C4             2.3890     1.4134    -0.0136 C.ar    
   5 C5             2.4142     0.0344    -0.0212 C.ar    
   6 C6             1.2193    -0.6830    -0.0132 C.ar    
   7 C7            -1.3322     2.1099     0.0198 C.3     
   8 C8            -2.1351     1.7357    -1.2277 C.3     
   9 C9            -2.1233     1.7221     1.2707 C.3     
  10 C10            3.6806     2.1899    -0.0228 C.3     
  11 C11            4.5018     1.8283     1.2164 C.3     
  12 C12            4.4766     1.8408    -1.2819 C.3     
  13 O13            1.1536     3.4454     0.0095 O.3     
  14 C14            1.2429    -2.1663    -0.0209 C.ar    
  15 C15            0.4884    -2.8820     0.9061 C.ar    
  16 C16            0.5132    -4.2618     0.8956 C.ar    
  17 C17            1.2867    -4.9367    -0.0348 C.ar    
  18 C18            2.0392    -4.2311    -0.9593 C.ar    
  19 C19            2.0167    -2.8495    -0.9607 C.ar    
  20 F20            1.3075    -6.2876    -0.0401 F       
  21 F21            2.7502    -2.1613    -1.8626 F       
  22 H22           -0.9254    -0.5573     0.0082 H       
  23 H23            3.3589    -0.4889    -0.0334 H       
  24 H24           -1.1483     3.1842     0.0248 H       
  25 H25           -2.3191     0.6614    -1.2327 H       
  26 H26           -3.0867     2.2673    -1.2203 H       
  27 H27           -1.5715     2.0119    -2.1189 H       
  28 H28           -1.5513     1.9887     2.1595 H       
  29 H29           -3.0749     2.2537     1.2781 H       
  30 H30           -2.3073     0.6478     1.2657 H       
  31 H31            3.4625     3.2578    -0.0152 H       
  32 H32            4.7199     0.7603     1.2089 H       
  33 H33            5.4360     2.3899     1.2098 H       
  34 H34            3.9347     2.0769     2.1135 H       
  35 H35            3.8915     2.0984    -2.1647 H       
  36 H36            5.4107     2.4024    -1.2885 H       
  37 H37            4.6947     0.7728    -1.2894 H       
  38 H38            1.1557     3.8340     0.8950 H       
  39 H39           -0.1149    -2.3577     1.6323 H       
  40 H40           -0.0714    -4.8167     1.6144 H       
  41 H41            2.6410    -4.7615    -1.6825 H       
@<TRIPOS>BOND
   1    1    2 ar
   2    1    3 ar
   3    1    7 1
   4    2    6 ar
   5    2   22 1
   6    3    4 ar
   7    3   13 1
   8    4    5 ar
   9    4   10 1
  10    5    6 ar
  11    5   23 1
  12    6   14 1
  13    7    8 1
  14    7    9 1
  15    7   24 1
  16    8   25 1
  17    8   26 1
  18    8   27 1
  19    9   28 1
  20    9   29 1
  21    9   30 1
  22   10   11 1
  23   10   12 1
  24   10   31 1
  25   11   32 1
  26   11   33 1
  27   11   34 1
  28   12   35 1
  29   12   36 1
  30   12   37 1
  31   13   38 1
  32   14   15 ar
  33   14   19 ar
  34   15   16 ar
  35   15   39 1
  36   16   17 ar
  37   16   40 1
  38   17   18 ar
  39   17   20 1
  40   18   19 ar
  41   18   41 1
  42   19   21 1

#	End of record

