#	Name: ASD03330887
#	Creating user name:	WinNT
#	Creation time:	15. 06. 2019 20:38

#	Modifying user name:	WinNT
#	Modification time:	15. 06. 2019 20:38

#	Program:	/corina/corina34_cracker 3.40 0067  02.08.2006

@<TRIPOS>MOLECULE
ASD03330887
  71   74    0    0    0
SMALL
NO_CHARGES


@<TRIPOS>ATOM
   1 N1            -0.2717     1.4162     0.3059 N.pl3   
   2 C2            -0.1545     0.0626     0.2463 C.2     
   3 C3             1.1391    -0.7086     0.2795 C.3     
   4 N4             1.9780    -0.1961     1.3741 N.3     
   5 C5             2.8210     0.9123     0.9218 C.3     
   6 C6             2.1064     1.7438    -0.1396 C.3     
   7 C7             0.8378     2.3624     0.4537 C.3     
   8 C8            -1.5999     1.7157     0.2151 C.2     
   9 N9            -2.2766     0.5949     0.1217 N.2     
  10 C10           -1.4135    -0.4448     0.1410 C.2     
  11 C11           -1.7709    -1.8720     0.0614 C.2     
  12 O12           -0.8991    -2.7197     0.0878 O.2     
  13 N13           -3.0640    -2.2382    -0.0408 N.am    
  14 C14           -2.1800     3.0758     0.2213 C.ar    
  15 C15           -3.1453     3.4309    -0.7249 C.ar    
  16 C16           -3.6843     4.7030    -0.7141 C.ar    
  17 C17           -3.2694     5.6256     0.2318 C.ar    
  18 C18           -2.3107     5.2782     1.1734 C.ar    
  19 C19           -1.7699     4.0075     1.1756 C.ar    
  20 F20           -1.9097     6.1832     2.0928 F       
  21 F21           -3.7993     6.8683     0.2377 F       
  22 F22           -3.5502     2.5321    -1.6487 F       
  23 C23            2.7906    -1.2697     1.9616 C.3     
  24 C24           -4.7467    -3.8045    -0.8183 C.2     
  25 C25           -3.4194    -3.6572    -0.1200 C.3     
  26 C26           -3.5189    -4.2376     1.2922 C.3     
  27 C27           -4.0203    -5.6811     1.2161 C.3     
  28 O28           -5.6158    -2.9755    -0.6499 O.2     
  29 C29           -2.1392    -4.2110     1.9529 C.3     
  30 C30           -4.4969    -3.4010     2.1196 C.3     
  31 O31           -4.7755    -7.0548    -2.3723 O.3     
  32 C32           -3.9931    -5.8903    -2.0314 C.3     
  33 N33           -4.9679    -4.8574    -1.6300 N.am    
  34 C34           -6.2354    -5.2134    -2.2989 C.3     
  35 C35           -5.9207    -6.5133    -3.0713 C.3     
  36 C36           -7.3334    -5.4618    -1.2627 C.3     
  37 C37           -6.6559    -4.1064    -3.2677 C.3     
  38 H38            0.9292    -1.7653     0.4453 H       
  39 H39            1.6618    -0.5844    -0.6690 H       
  40 H40            3.0623     1.5490     1.7730 H       
  41 H41            3.7439     0.5121     0.5020 H       
  42 H42            2.7691     2.5372    -0.4851 H       
  43 H43            1.8386     1.1046    -0.9810 H       
  44 H44            0.6016     3.2863    -0.0743 H       
  45 H45            0.9963     2.5758     1.5108 H       
  46 H46           -3.7593    -1.5622    -0.0619 H       
  47 H47           -4.4303     4.9786    -1.4449 H       
  48 H48           -1.0273     3.7369     1.9116 H       
  49 H49            3.3865    -1.7429     1.1812 H       
  50 H50            3.4519    -0.8512     2.7203 H       
  51 H51            2.1362    -2.0117     2.4192 H       
  52 H52           -2.6529    -4.1931    -0.6798 H       
  53 H53           -3.2837    -6.2947     0.6975 H       
  54 H54           -4.1697    -6.0674     2.2244 H       
  55 H55           -4.9645    -5.7097     0.6724 H       
  56 H56           -1.7821    -3.1826     2.0071 H       
  57 H57           -2.2101    -4.6245     2.9590 H       
  58 H58           -1.4425    -4.8070     1.3634 H       
  59 H59           -5.4798    -3.4200     1.6489 H       
  60 H60           -4.5678    -3.8145     3.1257 H       
  61 H61           -4.1397    -2.3726     2.1738 H       
  62 H62           -3.3222    -6.1169    -1.2028 H       
  63 H63           -3.4227    -5.5534    -2.8970 H       
  64 H64           -5.6678    -6.2917    -4.1081 H       
  65 H65           -6.7629    -7.2034    -3.0200 H       
  66 H66           -7.4854    -4.5591    -0.6710 H       
  67 H67           -8.2610    -5.7231    -1.7718 H       
  68 H68           -7.0358    -6.2801    -0.6070 H       
  69 H69           -5.8816    -3.9711    -4.0229 H       
  70 H70           -7.5918    -4.3841    -3.7526 H       
  71 H71           -6.7939    -3.1754    -2.7179 H       
@<TRIPOS>BOND
   1    1    2 1
   2    1    7 1
   3    1    8 1
   4    2    3 1
   5    2   10 2
   6    3    4 1
   7    3   38 1
   8    3   39 1
   9    4    5 1
  10    4   23 1
  11    5    6 1
  12    5   40 1
  13    5   41 1
  14    6    7 1
  15    6   42 1
  16    6   43 1
  17    7   44 1
  18    7   45 1
  19    8    9 2
  20    8   14 1
  21    9   10 1
  22   10   11 1
  23   11   12 2
  24   11   13 am
  25   13   25 1
  26   13   46 1
  27   14   15 ar
  28   14   19 ar
  29   15   16 ar
  30   15   22 1
  31   16   17 ar
  32   16   47 1
  33   17   18 ar
  34   17   21 1
  35   18   19 ar
  36   18   20 1
  37   19   48 1
  38   23   49 1
  39   23   50 1
  40   23   51 1
  41   24   28 2
  42   24   33 am
  43   24   25 1
  44   25   26 1
  45   25   52 1
  46   26   27 1
  47   26   29 1
  48   26   30 1
  49   27   53 1
  50   27   54 1
  51   27   55 1
  52   29   56 1
  53   29   57 1
  54   29   58 1
  55   30   59 1
  56   30   60 1
  57   30   61 1
  58   31   32 1
  59   31   35 1
  60   32   33 1
  61   32   62 1
  62   32   63 1
  63   33   34 1
  64   34   35 1
  65   34   36 1
  66   34   37 1
  67   35   64 1
  68   35   65 1
  69   36   66 1
  70   36   67 1
  71   36   68 1
  72   37   69 1
  73   37   70 1
  74   37   71 1

#	End of record

