#	Name: ASD00190003
#	Creating user name:	WinNT
#	Creation time:	15. 06. 2019 18:33

#	Modifying user name:	WinNT
#	Modification time:	15. 06. 2019 18:33

#	Program:	/corina/corina34_cracker 3.40 0067  02.08.2006

@<TRIPOS>MOLECULE
ASD00190003
  45   49    0    0    0
SMALL
NO_CHARGES


@<TRIPOS>ATOM
   1 C1            -0.0154     1.3888     0.0327 C.ar    
   2 C2             0.0026    -0.0011     0.0112 C.ar    
   3 C3             1.1803    -0.6878    -0.0109 C.ar    
   4 C4             2.3965     0.0124    -0.0121 C.ar    
   5 C5             2.3716     1.4267     0.0098 C.ar    
   6 C6             1.1501     2.1009     0.0322 C.ar    
   7 N7             3.5675    -0.6413    -0.0332 N.ar    
   8 C8             4.7281    -0.0214    -0.0347 C.ar    
   9 C9             4.8213     1.3787    -0.0137 C.ar    
  10 C10            3.6486     2.1455     0.0082 C.ar    
  11 N11            5.8675     2.2771    -0.0093 N.pl3   
  12 C12            5.3193     3.5318     0.0154 C.2     
  13 N13            4.0040     3.4340     0.0253 N.2     
  14 N14            5.8935    -0.7737    -0.0572 N.pl3   
  15 C15            5.8281    -2.1685     0.0416 C.ar    
  16 C16            6.0755     4.7864     0.0287 C.2     
  17 C17            6.7392    -2.9573    -0.6486 C.ar    
  18 C18            6.6743    -4.3332    -0.5501 C.ar    
  19 C19            5.6993    -4.9274     0.2375 C.ar    
  20 C20            4.7886    -4.1403     0.9269 C.ar    
  21 C21            4.8558    -2.7641     0.8345 C.ar    
  22 C22            7.4183     4.9192     0.0186 C.2     
  23 C23            7.7893     6.3290     0.0380 C.2     
  24 C24            6.7064     7.1032     0.0602 C.2     
  25 C25            5.5037     6.1868     0.0498 C.3     
  26 O26            5.6358    -6.2824     0.3335 O.3     
  27 C27            4.6066    -6.8266     1.1621 C.3     
  28 H28           -0.9608     1.9109     0.0455 H       
  29 H29           -0.9304    -0.5452     0.0124 H       
  30 H30            1.1772    -1.7676    -0.0271 H       
  31 H31            1.1264     3.1805     0.0487 H       
  32 H32            6.8131     2.0612    -0.0212 H       
  33 H33            6.7536    -0.3332    -0.1414 H       
  34 H34            7.4980    -2.4949    -1.2624 H       
  35 H35            7.3827    -4.9468    -1.0868 H       
  36 H36            4.0295    -4.6037     1.5396 H       
  37 H37            4.1470    -2.1513     1.3716 H       
  38 H38            8.1189     4.0975    -0.0006 H       
  39 H39            8.8052     6.6957     0.0352 H       
  40 H40            6.6901     8.1829     0.0783 H       
  41 H41            4.8975     6.3681    -0.8378 H       
  42 H42            4.9090     6.3326     0.9515 H       
  43 H43            4.6682    -7.9148     1.1506 H       
  44 H44            4.7334    -6.4662     2.1830 H       
  45 H45            3.6330    -6.5138     0.7848 H       
@<TRIPOS>BOND
   1    1    2 ar
   2    1    6 ar
   3    1   28 1
   4    2    3 ar
   5    2   29 1
   6    3    4 ar
   7    3   30 1
   8    4    5 ar
   9    4    7 ar
  10    5    6 ar
  11    5   10 ar
  12    6   31 1
  13    7    8 ar
  14    8    9 ar
  15    8   14 1
  16    9   10 ar
  17    9   11 1
  18   10   13 1
  19   11   12 1
  20   11   32 1
  21   12   13 2
  22   12   16 1
  23   14   15 1
  24   14   33 1
  25   15   17 ar
  26   15   21 ar
  27   16   22 2
  28   16   25 1
  29   17   18 ar
  30   17   34 1
  31   18   19 ar
  32   18   35 1
  33   19   20 ar
  34   19   26 1
  35   20   21 ar
  36   20   36 1
  37   21   37 1
  38   22   23 1
  39   22   38 1
  40   23   24 2
  41   23   39 1
  42   24   25 1
  43   24   40 1
  44   25   41 1
  45   25   42 1
  46   26   27 1
  47   27   43 1
  48   27   44 1
  49   27   45 1

#	End of record

