#	Name: ASD03330419
#	Creating user name:	WinNT
#	Creation time:	15. 06. 2019 20:37

#	Modifying user name:	WinNT
#	Modification time:	15. 06. 2019 20:37

#	Program:	/corina/corina34_cracker 3.40 0067  02.08.2006

@<TRIPOS>MOLECULE
ASD03330419
  55   58    0    0    0
SMALL
NO_CHARGES


@<TRIPOS>ATOM
   1 C1            -0.0179     1.4655     0.0101 C.3     
   2 N2             0.0021    -0.0041     0.0020 N.3     
   3 C3             0.4494    -0.5231    -1.3031 C.3     
   4 C4             1.7237     0.1898    -1.6760 C.2     
   5 N5             2.1518     1.3316    -1.0766 N.pl3   
   6 C6             1.4184     2.0045    -0.0007 C.3     
   7 C7             2.6416    -0.1381    -2.6193 C.2     
   8 N8             3.6170     0.7985    -2.5857 N.2     
   9 C9             3.3278     1.6845    -1.6589 C.2     
  10 C10            4.1451     2.8670    -1.3087 C.ar    
  11 C11            2.5863    -1.3044    -3.5184 C.2     
  12 O12            1.6515    -2.0796    -3.4520 O.2     
  13 C13            3.5165    -2.6712    -5.3082 C.3     
  14 N14            3.5715    -1.5119    -4.4144 N.am    
  15 C15            4.9121    -3.0359    -5.7444 C.ar    
  16 C16            5.8243    -2.0417    -6.0450 C.ar    
  17 C17            2.6841    -2.3336    -6.5183 C.2     
  18 C18           -1.3129    -0.5504     0.3632 C.3     
  19 O19            2.1859    -1.2329    -6.6236 O.2     
  20 N20            2.4933    -3.2548    -7.4834 N.am    
  21 C21            1.6841    -2.9265    -8.6597 C.3     
  22 C22            5.1563     3.2989    -2.1674 C.ar    
  23 C23            5.9150     4.4024    -1.8351 C.ar    
  24 C24            5.6748     5.0801    -0.6531 C.ar    
  25 C25            4.6739     4.6565     0.2029 C.ar    
  26 C26            3.9042     3.5582    -0.1210 C.ar    
  27 C27            5.2819    -4.3645    -5.8385 C.ar    
  28 C28            6.5621    -4.6990    -6.2387 C.ar    
  29 C29            7.4723    -3.7049    -6.5452 C.ar    
  30 C30            7.1045    -2.3761    -6.4452 C.ar    
  31 H31           -0.5467     1.8255    -0.8724 H       
  32 H32           -0.5297     1.8160     0.9063 H       
  33 H33            0.6347    -1.5947    -1.2296 H       
  34 H34           -0.3141    -0.3315    -2.0571 H       
  35 H35            1.4064     3.0795    -0.1803 H       
  36 H36            1.8965     1.7963     0.9564 H       
  37 H37            3.0682    -3.5143    -4.7826 H       
  38 H38            4.3170    -0.8935    -4.4673 H       
  39 H39            5.5366    -1.0036    -5.9676 H       
  40 H40           -2.0700    -0.1513    -0.3117 H       
  41 H41           -1.2897    -1.6371     0.2814 H       
  42 H42           -1.5545    -0.2682     1.3879 H       
  43 H43            2.8918    -4.1351    -7.3991 H       
  44 H44            0.6747    -2.6628    -8.3442 H       
  45 H45            2.1325    -2.0834    -9.1853 H       
  46 H46            1.6432    -3.7891    -9.3247 H       
  47 H47            5.3449     2.7705    -3.0902 H       
  48 H48            6.6983     4.7375    -2.4988 H       
  49 H49            6.2715     5.9432    -0.3974 H       
  50 H50            4.4918     5.1893     1.1245 H       
  51 H51            3.1231     3.2285     0.5480 H       
  52 H52            4.5707    -5.1413    -5.5991 H       
  53 H53            6.8512    -5.7371    -6.3116 H       
  54 H54            8.4726    -3.9662    -6.8575 H       
  55 H55            7.8157    -1.5994    -6.6846 H       
@<TRIPOS>BOND
   1    1    2 1
   2    1    6 1
   3    1   31 1
   4    1   32 1
   5    2    3 1
   6    2   18 1
   7    3    4 1
   8    3   33 1
   9    3   34 1
  10    4    5 1
  11    4    7 2
  12    5    6 1
  13    5    9 1
  14    6   35 1
  15    6   36 1
  16    7    8 1
  17    7   11 1
  18    8    9 2
  19    9   10 1
  20   10   22 ar
  21   10   26 ar
  22   11   12 2
  23   11   14 am
  24   13   14 1
  25   13   17 1
  26   13   15 1
  27   13   37 1
  28   14   38 1
  29   15   27 ar
  30   15   16 ar
  31   16   30 ar
  32   16   39 1
  33   17   19 2
  34   17   20 am
  35   18   40 1
  36   18   41 1
  37   18   42 1
  38   20   21 1
  39   20   43 1
  40   21   44 1
  41   21   45 1
  42   21   46 1
  43   22   23 ar
  44   22   47 1
  45   23   24 ar
  46   23   48 1
  47   24   25 ar
  48   24   49 1
  49   25   26 ar
  50   25   50 1
  51   26   51 1
  52   27   28 ar
  53   27   52 1
  54   28   29 ar
  55   28   53 1
  56   29   30 ar
  57   29   54 1
  58   30   55 1

#	End of record

