#	Name: ASD01884427
#	Creating user name:	WinNT
#	Creation time:	15. 06. 2019 19:48

#	Modifying user name:	WinNT
#	Modification time:	15. 06. 2019 19:48

#	Program:	/corina/corina34_cracker 3.40 0067  02.08.2006

@<TRIPOS>MOLECULE
ASD01884427
  40   43    0    0    0
SMALL
NO_CHARGES


@<TRIPOS>ATOM
   1 C1            -0.0164     1.3575     0.0095 C.2     
   2 C2             0.0021    -0.0041     0.0020 C.2     
   3 C3             1.2441    -0.6750    -0.0134 C.2     
   4 C4             2.4025     0.0467    -0.0206 C.2     
   5 N5             2.3701     1.4021    -0.0126 N.am    
   6 C6             1.1988     2.0651     0.0017 C.2     
   7 C7             1.2900    -2.1582    -0.0214 C.ar    
   8 C8             3.6267     2.1552    -0.0196 C.3     
   9 O9             1.1913     3.2854     0.0083 O.2     
  10 C10            4.0448     2.4215    -1.4427 C.ar    
  11 C11            3.6213     3.5705    -2.0840 C.ar    
  12 C12            4.0048     3.8148    -3.3894 C.ar    
  13 C13            4.8122     2.9103    -4.0534 C.ar    
  14 C14            5.2365     1.7617    -3.4118 C.ar    
  15 C15            4.8565     1.5196    -2.1049 C.ar    
  16 C16            0.9897    -2.8585    -1.1815 C.ar    
  17 C17            1.6406    -2.8543     1.1356 C.ar    
  18 C18            1.6798    -4.2338     1.1166 C.ar    
  19 C19            1.3713    -4.9274    -0.0365 C.ar    
  20 C20            1.0213    -4.2451    -1.2000 C.ar    
  21 O21            0.6690    -4.7297    -2.4228 O.3     
  22 C22            0.8233    -3.6915    -3.4054 C.3     
  23 C23            0.6051    -2.4026    -2.5755 C.3     
  24 H24           -0.9563     1.8894     0.0168 H       
  25 H25           -0.9217    -0.5636     0.0082 H       
  26 H26            3.3529    -0.4662    -0.0325 H       
  27 H27            3.4856     3.1024     0.5010 H       
  28 H28            4.4004     1.5756     0.4840 H       
  29 H29            2.9905     4.2772    -1.5653 H       
  30 H30            3.6733     4.7122    -3.8907 H       
  31 H31            5.1113     3.1008    -5.0735 H       
  32 H32            5.8670     1.0549    -3.9306 H       
  33 H33            5.1880     0.6222    -1.6036 H       
  34 H34            1.8803    -2.3166     2.0411 H       
  35 H35            1.9543    -4.7746     2.0102 H       
  36 H36            1.4062    -6.0069    -0.0381 H       
  37 H37            1.8247    -3.7125    -3.8355 H       
  38 H38            0.0655    -3.7806    -4.1838 H       
  39 H39           -0.4384    -2.0897    -2.6091 H       
  40 H40            1.2614    -1.6027    -2.9185 H       
@<TRIPOS>BOND
   1    1    2 2
   2    1    6 1
   3    1   24 1
   4    2    3 1
   5    2   25 1
   6    3    4 2
   7    3    7 1
   8    4    5 1
   9    4   26 1
  10    5    6 am
  11    5    8 1
  12    6    9 2
  13    7   16 ar
  14    7   17 ar
  15    8   10 1
  16    8   27 1
  17    8   28 1
  18   10   11 ar
  19   10   15 ar
  20   11   12 ar
  21   11   29 1
  22   12   13 ar
  23   12   30 1
  24   13   14 ar
  25   13   31 1
  26   14   15 ar
  27   14   32 1
  28   15   33 1
  29   16   20 ar
  30   16   23 1
  31   17   18 ar
  32   17   34 1
  33   18   19 ar
  34   18   35 1
  35   19   20 ar
  36   19   36 1
  37   20   21 1
  38   21   22 1
  39   22   23 1
  40   22   37 1
  41   22   38 1
  42   23   39 1
  43   23   40 1

#	End of record

