#	Name: ASD01885627
#	Creating user name:	WinNT
#	Creation time:	15. 06. 2019 19:49

#	Modifying user name:	WinNT
#	Modification time:	15. 06. 2019 19:49

#	Program:	/corina/corina34_cracker 3.40 0067  02.08.2006

@<TRIPOS>MOLECULE
ASD01885627
  31   33    0    0    0
SMALL
NO_CHARGES


@<TRIPOS>ATOM
   1 C1            -0.0168     1.3896     0.0097 C.ar    
   2 C2             0.0021    -0.0041     0.0020 C.ar    
   3 C3             1.1809    -0.6871    -0.0129 C.ar    
   4 C4             1.1388     2.1070     0.0025 C.ar    
   5 C5             3.6370    -0.6575    -0.0368 C.ar    
   6 C6             4.7933     0.1109    -0.0441 C.ar    
   7 C7             4.6934     1.5066    -0.0355 C.ar    
   8 N8             3.5234     2.1170    -0.0214 N.ar    
   9 C9             3.7031    -2.1369    -0.0450 C.ar    
  10 C10            5.9332     2.3200    -0.0433 C.2     
  11 O11            7.0183     1.7736    -0.0570 O.2     
  12 N12            5.8563     3.6656    -0.0352 N.am    
  13 C13            2.3773     1.4366    -0.0129 C.ar    
  14 C14            2.3914     0.0186    -0.0207 C.ar    
  15 C15            4.5001    -2.7970    -0.9805 C.ar    
  16 C16            4.5577    -4.1752    -0.9836 C.ar    
  17 C17            3.8265    -4.9033    -0.0605 C.ar    
  18 C18            3.0338    -4.2536     0.8702 C.ar    
  19 C19            2.9730    -2.8755     0.8863 C.ar    
  20 Br20           3.9103    -6.7924    -0.0715 Br      
  21 H21           -0.9642     1.9081     0.0170 H       
  22 H22           -0.9299    -0.5497     0.0084 H       
  23 H23            1.1823    -1.7671    -0.0184 H       
  24 H24            1.1067     3.1865     0.0082 H       
  25 H25            5.7627    -0.3650    -0.0559 H       
  26 H26            4.9900     4.1018    -0.0242 H       
  27 H27            6.6673     4.1977    -0.0403 H       
  28 H28            5.0706    -2.2300    -1.7013 H       
  29 H29            5.1741    -4.6873    -1.7076 H       
  30 H30            2.4652    -4.8266     1.5877 H       
  31 H31            2.3546    -2.3697     1.6131 H       
@<TRIPOS>BOND
   1    1    2 ar
   2    1    4 ar
   3    1   21 1
   4    2    3 ar
   5    2   22 1
   6    3   14 ar
   7    3   23 1
   8    4   13 ar
   9    4   24 1
  10    5    6 ar
  11    5    9 1
  12    5   14 ar
  13    6    7 ar
  14    6   25 1
  15    7    8 ar
  16    7   10 1
  17    8   13 ar
  18    9   15 ar
  19    9   19 ar
  20   10   11 2
  21   10   12 am
  22   12   26 1
  23   12   27 1
  24   13   14 ar
  25   15   16 ar
  26   15   28 1
  27   16   17 ar
  28   16   29 1
  29   17   18 ar
  30   17   20 1
  31   18   19 ar
  32   18   30 1
  33   19   31 1

#	End of record

