#	Name: ASD01883021
#	Creating user name:	WinNT
#	Creation time:	15. 06. 2019 19:45

#	Modifying user name:	WinNT
#	Modification time:	15. 06. 2019 19:45

#	Program:	/corina/corina34_cracker 3.40 0067  02.08.2006

@<TRIPOS>MOLECULE
ASD01883021
  55   58    0    0    0
SMALL
NO_CHARGES


@<TRIPOS>ATOM
   1 N1            -0.0162     1.3417     0.0094 N.am    
   2 C2             0.0021    -0.0041     0.0020 C.2     
   3 C3            -1.2159    -0.7274     0.0102 C.2     
   4 C4            -2.4262    -0.0109     0.0261 C.2     
   5 C5            -2.3786     1.3974     0.0332 C.2     
   6 C6            -1.1851     2.0327     0.0299 C.2     
   7 O7             1.0657    -0.6000    -0.0122 O.2     
   8 C8            -1.2149    -2.1593     0.0021 C.1     
   9 N9            -1.2141    -3.2953    -0.0044 N.1     
  10 C10            1.2513     2.0763     0.0013 C.3     
  11 C11            1.6788     2.3398    -1.4440 C.3     
  12 C12           -5.7771    -1.2775     1.1448 C.ar    
  13 C13           -4.5706    -0.6152     1.1399 C.ar    
  14 C14           -3.7215    -0.7207     0.0347 C.ar    
  15 C15           -4.1007    -1.4987    -1.0623 C.ar    
  16 C16           -5.3090    -2.1588    -1.0515 C.ar    
  17 C17           -6.1498    -2.0560     0.0526 C.ar    
  18 N18           -7.3707    -2.7246     0.0605 N.pl3   
  19 C19           -8.9272    -3.5097    -3.3036 C.3     
  20 O20           -9.8203    -4.5111    -2.8120 O.3     
  21 C21           -9.2306    -5.4052    -1.8660 C.3     
  22 C22           -8.7596    -4.6140    -0.6430 C.3     
  23 C23           -7.7693    -3.5354    -1.0927 C.3     
  24 C24           -8.4441    -2.6423    -2.1383 C.3     
  25 C25            3.6601     3.3662    -2.8095 C.3     
  26 C26            3.0025     3.1070    -1.4525 C.3     
  27 C27            2.9983     4.5164    -2.0479 C.3     
  28 C28           -6.6930    -1.1646     2.3362 C.3     
  29 F29           -6.1039    -0.3401     3.3008 F       
  30 F30           -7.9146    -0.6135     1.9348 F       
  31 F31           -6.9106    -2.4355     2.8791 F       
  32 H32           -3.2949     1.9689     0.0450 H       
  33 H33           -1.1610     3.1124     0.0358 H       
  34 H34            1.1243     3.0257     0.5214 H       
  35 H35            2.0168     1.4857     0.5046 H       
  36 H36            1.8057     1.3903    -1.9642 H       
  37 H37            0.9133     2.9303    -1.9474 H       
  38 H38           -4.2803    -0.0143     1.9891 H       
  39 H39           -3.4470    -1.5819    -1.9179 H       
  40 H40           -5.6028    -2.7600    -1.8992 H       
  41 H41           -7.9575    -2.6537     0.8296 H       
  42 H42           -8.0714    -3.9880    -3.7799 H       
  43 H43           -9.4461    -2.8852    -4.0309 H       
  44 H44           -9.9680    -6.1463    -1.5577 H       
  45 H45           -8.3787    -5.9084    -2.3235 H       
  46 H46           -9.6168    -4.1435    -0.1614 H       
  47 H47           -8.2700    -5.2877     0.0603 H       
  48 H48           -6.8895    -4.0076    -1.5297 H       
  49 H49           -7.7288    -1.9058    -2.5045 H       
  50 H50           -9.2949    -2.1319    -1.6869 H       
  51 H51            4.7491     3.3514    -2.8520 H       
  52 H52            3.1497     2.9901    -3.6961 H       
  53 H53            3.6589     2.9217    -0.6023 H       
  54 H54            3.6520     5.2584    -1.5894 H       
  55 H55            2.0525     4.8970    -2.4335 H       
@<TRIPOS>BOND
   1    1    2 am
   2    1   10 1
   3    1    6 1
   4    2    3 1
   5    2    7 2
   6    3    4 2
   7    3    8 1
   8    4    5 1
   9    4   14 1
  10    5    6 2
  11    5   32 1
  12    6   33 1
  13    8    9 3
  14   10   11 1
  15   10   34 1
  16   10   35 1
  17   11   26 1
  18   11   36 1
  19   11   37 1
  20   12   13 ar
  21   12   28 1
  22   12   17 ar
  23   13   14 ar
  24   13   38 1
  25   14   15 ar
  26   15   16 ar
  27   15   39 1
  28   16   17 ar
  29   16   40 1
  30   17   18 1
  31   18   23 1
  32   18   41 1
  33   19   20 1
  34   19   24 1
  35   19   42 1
  36   19   43 1
  37   20   21 1
  38   21   22 1
  39   21   44 1
  40   21   45 1
  41   22   23 1
  42   22   46 1
  43   22   47 1
  44   23   24 1
  45   23   48 1
  46   24   49 1
  47   24   50 1
  48   25   26 1
  49   25   27 1
  50   25   51 1
  51   25   52 1
  52   26   27 1
  53   26   53 1
  54   27   54 1
  55   27   55 1
  56   28   29 1
  57   28   30 1
  58   28   31 1

#	End of record

