#	Name: ASD00450039
#	Creating user name:	WinNT
#	Creation time:	15. 06. 2019 18:36

#	Modifying user name:	WinNT
#	Modification time:	15. 06. 2019 18:36

#	Program:	/corina/corina34_cracker 3.40 0067  02.08.2006

@<TRIPOS>MOLECULE
ASD00450039
  52   54    0    0    0
SMALL
NO_CHARGES


@<TRIPOS>ATOM
   1 C1            -0.1770     1.2336     0.0617 C.ar    
   2 C2            -0.4980    -0.1278    -0.0575 C.ar    
   3 C3             0.4781    -1.0344    -0.4323 C.ar    
   4 C4             1.7702    -0.6033    -0.6897 C.ar    
   5 C5             2.0989     0.7364    -0.5752 C.ar    
   6 C6             1.1353     1.6617    -0.2016 C.ar    
   7 C7            -1.2080     2.2057     0.4534 C.2     
   8 O8            -1.3880     2.4610     1.6292 O.2     
   9 N9            -1.9539     2.8140    -0.4901 N.am    
  10 N10            1.4664     3.0061    -0.0879 N.pl3   
  11 C11            2.7786     3.3796     0.2218 C.ar    
  12 C12            3.2272     4.6624    -0.0764 C.ar    
  13 C13            3.6342     2.4730     0.8324 C.ar    
  14 C14            4.9296     2.8447     1.1375 C.ar    
  15 C15            5.3752     4.1186     0.8356 C.ar    
  16 C16            4.5244     5.0276     0.2317 C.ar    
  17 F17            2.7153    -1.4970    -1.0546 F       
  18 F18            2.3966     5.5496    -0.6664 F       
  19 I19            7.3404     4.6760     1.3009 I       
  20 O20           -1.7611    -0.5535     0.1945 O.3     
  21 C21           -1.9970    -1.8916     0.1858 C.ar    
  22 C22           -1.9565    -2.6107     1.3702 C.ar    
  23 C23           -2.1983    -3.9773     1.3578 C.ar    
  24 C24           -2.4802    -4.6201     0.1593 C.ar    
  25 C25           -2.2844    -2.5386    -1.0084 C.ar    
  26 C26           -2.5197    -3.9000    -1.0193 C.ar    
  27 N27           -2.1578    -4.7067     2.5512 N.am    
  28 C28           -2.6237    -4.1596     3.6915 C.2     
  29 C29           -2.6647    -4.9764     4.9572 C.3     
  30 C30           -3.2316    -4.1253     6.0953 C.3     
  31 C31           -3.5554    -6.2021     4.7445 C.3     
  32 O32           -3.0098    -3.0098     3.6989 O.2     
  33 H33            0.2323    -2.0820    -0.5243 H       
  34 H34            3.1086     1.0622    -0.7772 H       
  35 H35           -1.8104     2.6105    -1.4275 H       
  36 H36           -2.6341     3.4554    -0.2316 H       
  37 H37            0.7878     3.6859    -0.2232 H       
  38 H38            3.2875     1.4780     1.0691 H       
  39 H39            5.5951     2.1393     1.6130 H       
  40 H40            4.8741     6.0230     0.0009 H       
  41 H41           -1.7367    -2.1085     2.3007 H       
  42 H42           -2.6682    -5.6835     0.1485 H       
  43 H43           -2.3204    -1.9776    -1.9306 H       
  44 H44           -2.7387    -4.4017    -1.9503 H       
  45 H45           -1.7945    -5.6060     2.5579 H       
  46 H46           -1.6560    -5.3003     5.2135 H       
  47 H47           -4.2403    -3.8014     5.8390 H       
  48 H48           -3.2613    -4.7161     7.0108 H       
  49 H49           -2.5971    -3.2521     6.2468 H       
  50 H50           -3.5851    -6.7929     5.6601 H       
  51 H51           -4.5641    -5.8782     4.4883 H       
  52 H52           -3.1515    -6.8084     3.9338 H       
@<TRIPOS>BOND
   1    1    2 ar
   2    1    6 ar
   3    1    7 1
   4    2    3 ar
   5    2   20 1
   6    3    4 ar
   7    3   33 1
   8    4    5 ar
   9    4   17 1
  10    5    6 ar
  11    5   34 1
  12    6   10 1
  13    7    8 2
  14    7    9 am
  15    9   35 1
  16    9   36 1
  17   10   11 1
  18   10   37 1
  19   11   13 ar
  20   11   12 ar
  21   12   16 ar
  22   12   18 1
  23   13   14 ar
  24   13   38 1
  25   14   15 ar
  26   14   39 1
  27   15   16 ar
  28   15   19 1
  29   16   40 1
  30   20   21 1
  31   21   22 ar
  32   21   25 ar
  33   22   23 ar
  34   22   41 1
  35   23   24 ar
  36   23   27 1
  37   24   26 ar
  38   24   42 1
  39   25   26 ar
  40   25   43 1
  41   26   44 1
  42   27   28 am
  43   27   45 1
  44   28   29 1
  45   28   32 2
  46   29   30 1
  47   29   31 1
  48   29   46 1
  49   30   47 1
  50   30   48 1
  51   30   49 1
  52   31   50 1
  53   31   51 1
  54   31   52 1

#	End of record

