#	Name: ASD03082190
#	Creating user name:	WinNT
#	Creation time:	15. 06. 2019 20:27

#	Modifying user name:	WinNT
#	Modification time:	15. 06. 2019 20:27

#	Program:	/corina/corina34_cracker 3.40 0067  02.08.2006

@<TRIPOS>MOLECULE
ASD03082190
  43   46    0    0    0
SMALL
NO_CHARGES


@<TRIPOS>ATOM
   1 C1             1.1886    -0.3437     0.7548 C.ar    
   2 C2             0.0325     0.2002     0.2100 C.ar    
   3 C3             0.0254     1.5219    -0.2185 C.ar    
   4 C4             1.1668     2.2901    -0.1014 C.ar    
   5 C5             2.3165     1.7451     0.4411 C.ar    
   6 C6             2.3269     0.4303     0.8689 C.ar    
   7 N7            -1.1207    -0.5802     0.0926 N.pl3   
   8 H8            -1.0465    -1.5378    -0.0425 H       
   9 C9            -2.3797     0.0186     0.1699 C.2     
  10 N10           -3.5453    -0.6016    -0.0221 N.2     
  11 N11           -2.6073     1.2814     0.4486 N.2     
  12 N12           -3.9998     1.4614     0.4243 N.pl3   
  13 C13           -4.5349     0.2564     0.1263 C.2     
  14 C14           -4.7283     2.7073     0.6761 C.3     
  15 C15           -5.9769    -0.0461    -0.0098 C.ar    
  16 C16           -6.8962     0.9754    -0.2715 C.ar    
  17 C17           -8.2338     0.6398    -0.3903 C.ar    
  18 C18           -8.6152    -0.6818    -0.2479 C.ar    
  19 N19           -7.7256    -1.6244    -0.0013 N.ar    
  20 C20           -6.4417    -1.3555     0.1150 C.ar    
  21 O21           -4.8882     3.4219    -0.5510 O.3     
  22 C22          -10.0706    -1.0513    -0.3760 C.3     
  23 C23          -10.9453    -0.9202     0.8724 C.3     
  24 C24          -11.0976     0.0784    -0.2767 C.3     
  25 C25            1.1601     3.7237    -0.5659 C.3     
  26 F26            0.7742     4.5546     0.4914 F       
  27 F27            2.4428     4.0808    -0.9954 F       
  28 F28            0.2571     3.8666    -1.6248 F       
  29 H29            1.1962    -1.3694     1.0929 H       
  30 H30           -0.8717     1.9478    -0.6429 H       
  31 H31            3.2079     2.3481     0.5312 H       
  32 H32            3.2262     0.0079     1.2921 H       
  33 H33           -5.7088     2.4770     1.0929 H       
  34 H34           -4.1678     3.3195     1.3826 H       
  35 H35           -6.5706     1.9997    -0.3777 H       
  36 H36           -8.9719     1.4021    -0.5917 H       
  37 H37           -5.7436    -2.1544     0.3168 H       
  38 H38           -5.3632     4.2592    -0.4595 H       
  39 H39          -10.2889    -1.8717    -1.0597 H       
  40 H40          -11.7393    -1.6542     1.0099 H       
  41 H41          -10.4681    -0.5668     1.7864 H       
  42 H42          -10.7207     1.0888    -0.1186 H       
  43 H43          -11.9919     0.0014    -0.8951 H       
@<TRIPOS>BOND
   1    1    2 ar
   2    1    6 ar
   3    1   29 1
   4    2    3 ar
   5    2    7 1
   6    3    4 ar
   7    3   30 1
   8    4    5 ar
   9    4   25 1
  10    5    6 ar
  11    5   31 1
  12    6   32 1
  13    7    8 1
  14    7    9 1
  15    9   10 1
  16    9   11 2
  17   10   13 2
  18   11   12 1
  19   12   13 1
  20   12   14 1
  21   13   15 1
  22   14   21 1
  23   14   33 1
  24   14   34 1
  25   15   16 ar
  26   15   20 ar
  27   16   17 ar
  28   16   35 1
  29   17   18 ar
  30   17   36 1
  31   18   19 ar
  32   18   22 1
  33   19   20 ar
  34   20   37 1
  35   21   38 1
  36   22   23 1
  37   22   24 1
  38   22   39 1
  39   23   24 1
  40   23   40 1
  41   23   41 1
  42   24   42 1
  43   24   43 1
  44   25   26 1
  45   25   27 1
  46   25   28 1

#	End of record

