#	Name: ASD08178531
#	Creating user name:	WinNT
#	Creation time:	15. 06. 2019 21:19

#	Modifying user name:	WinNT
#	Modification time:	15. 06. 2019 21:19

#	Program:	/corina/corina34_cracker 3.40 0067  02.08.2006

@<TRIPOS>MOLECULE
ASD08178531
  25   25    0    0    0
SMALL
NO_CHARGES


@<TRIPOS>ATOM
   1 C1            -0.0167     1.3833     0.0096 C.ar    
   2 C2             0.0021    -0.0041     0.0020 C.ar    
   3 C3             1.2139    -0.6788    -0.0132 C.ar    
   4 C4             2.3989     0.0317    -0.0207 C.ar    
   5 C5             2.3774     1.4139    -0.0126 C.ar    
   6 C6             1.1706     2.0890     0.0021 C.ar    
   7 O7             1.1122     5.4272    -1.6445 O.3     
   8 C8             1.1316     4.1062    -1.4069 C.2     
   9 C9             1.1509     3.5958     0.0109 C.3     
  10 O10            1.1336     3.3264    -2.3298 O.2     
  11 O11           -1.1648    -0.7006     0.0099 O.3     
  12 C12           -1.0693    -2.1264     0.0013 C.3     
  13 C13           -2.4533    -2.7227     0.0118 C.2     
  14 O14           -3.4220    -2.0007     0.0253 O.2     
  15 O15           -2.6098    -4.0558     0.0062 O.3     
  16 H16           -0.9590     1.9110     0.0170 H       
  17 H17            1.2312    -1.7587    -0.0188 H       
  18 H18            3.3426    -0.4933    -0.0325 H       
  19 H19            3.3047     1.9675    -0.0178 H       
  20 H20            1.1002     5.7066    -2.5702 H       
  21 H21            0.2609     3.9445     0.5347 H       
  22 H22            2.0406     3.9679     0.5189 H       
  23 H23           -0.5412    -2.4498    -0.8957 H       
  24 H24           -0.5235    -2.4593     0.8841 H       
  25 H25           -3.5167    -4.3914     0.0134 H       
@<TRIPOS>BOND
   1    1    2 ar
   2    1    6 ar
   3    1   16 1
   4    2    3 ar
   5    2   11 1
   6    3    4 ar
   7    3   17 1
   8    4    5 ar
   9    4   18 1
  10    5    6 ar
  11    5   19 1
  12    6    9 1
  13    7    8 1
  14    7   20 1
  15    8    9 1
  16    8   10 2
  17    9   21 1
  18    9   22 1
  19   11   12 1
  20   12   13 1
  21   12   23 1
  22   12   24 1
  23   13   14 2
  24   13   15 1
  25   15   25 1

#	End of record

