#	Name: ASD05430058
#	Creating user name:	WinNT
#	Creation time:	15. 06. 2019 20:59

#	Modifying user name:	WinNT
#	Modification time:	15. 06. 2019 20:59

#	Program:	/corina/corina34_cracker 3.40 0067  02.08.2006

@<TRIPOS>MOLECULE
ASD05430058
  57   62    0    0    0
SMALL
NO_CHARGES


@<TRIPOS>ATOM
   1 C1             1.2842    -0.6897    -0.4964 C.ar    
   2 C2             0.0807    -0.0377    -0.2535 C.ar    
   3 C3             0.0579     1.3384    -0.0575 C.ar    
   4 C4             1.2289     2.0622    -0.1028 C.ar    
   5 C5             2.4424     1.4105    -0.3464 C.ar    
   6 C6             2.4603     0.0258    -0.5435 C.ar    
   7 O7             2.4882     4.2420    -0.4330 O.3     
   8 C8             3.6625     3.5283    -0.3603 C.2     
   9 C9             3.6961     2.1793    -0.3961 C.2     
  10 C10            2.5512     5.4348    -1.2265 C.3     
  11 C11            3.6194     6.4548    -0.8033 C.3     
  12 N12            4.8565     5.7205    -0.5399 N.pl3   
  13 C13            4.8887     4.3546    -0.2401 C.2     
  14 N14           -1.2584    -2.1552    -0.3828 N.2     
  15 N15           -1.1127    -0.7694    -0.2066 N.pl3   
  16 C16           -2.5329    -2.4201    -0.2595 C.2     
  17 N17           -3.1903    -1.2865    -0.0175 N.2     
  18 C18           -2.3497    -0.2842     0.0173 C.2     
  19 C19           -3.1576    -3.7868    -0.3731 C.3     
  20 C20            6.2444     6.1768    -0.5440 C.3     
  21 O21            6.9364     5.1310     0.1712 O.3     
  22 N22            6.0688     4.0052     0.1423 N.2     
  23 C23            6.7632     6.2901    -1.9543 C.ar    
  24 C24            6.3763     7.5123     0.1907 C.3     
  25 C25            8.1213     6.2061    -2.1995 C.ar    
  26 C26            5.8804     6.4722    -3.0022 C.ar    
  27 C27            6.3544     6.5755    -4.2967 C.ar    
  28 C28            7.7140     6.4970    -4.5438 C.ar    
  29 C29            8.5983     6.3095    -3.4933 C.ar    
  30 F30            8.1782     6.5977    -5.8086 F       
  31 C31            2.2547     5.3056    -2.7202 C.3     
  32 C32            1.2408     5.9792    -1.7925 C.3     
  33 C33           -3.1903    -4.4488     1.0059 C.3     
  34 Cl34          10.3039     6.2107    -3.8007 Cl      
  35 H35            1.2976    -1.7595    -0.6440 H       
  36 H36           -0.8796     1.8408     0.1301 H       
  37 H37            1.2102     3.1313     0.0493 H       
  38 H38            3.3949    -0.4817    -0.7315 H       
  39 H39            4.6432     1.6643    -0.4613 H       
  40 H40            3.7809     7.1749    -1.6055 H       
  41 H41            3.2979     6.9731     0.1001 H       
  42 H42           -2.6030     0.7505     0.1948 H       
  43 H43           -4.1742    -3.6911    -0.7544 H       
  44 H44           -2.5694    -4.3995    -1.0564 H       
  45 H45            6.0475     7.3931     1.2231 H       
  46 H46            7.4176     7.8339     0.1759 H       
  47 H47            5.7576     8.2615    -0.3034 H       
  48 H48            8.8098     6.0600    -1.3803 H       
  49 H49            4.8195     6.5335    -2.8096 H       
  50 H50            5.6640     6.7171    -5.1150 H       
  51 H51            2.8156     5.9449    -3.4019 H       
  52 H52            2.0079     4.3144    -3.1006 H       
  53 H53            0.3271     5.4312    -1.5628 H       
  54 H54            1.1347     7.0617    -1.8642 H       
  55 H55           -2.1737    -4.5446     1.3872 H       
  56 H56           -3.7784    -3.8362     1.6891 H       
  57 H57           -3.6421    -5.4374     0.9237 H       
@<TRIPOS>BOND
   1    1    2 ar
   2    1    6 ar
   3    1   35 1
   4    2    3 ar
   5    2   15 1
   6    3    4 ar
   7    3   36 1
   8    4    5 ar
   9    4   37 1
  10    5    6 ar
  11    5    9 1
  12    6   38 1
  13    7    8 1
  14    7   10 1
  15    8    9 2
  16    8   13 1
  17    9   39 1
  18   10   11 1
  19   10   31 1
  20   10   32 1
  21   11   12 1
  22   11   40 1
  23   11   41 1
  24   12   13 1
  25   12   20 1
  26   13   22 2
  27   14   15 1
  28   14   16 2
  29   15   18 1
  30   16   17 1
  31   16   19 1
  32   17   18 2
  33   18   42 1
  34   19   33 1
  35   19   43 1
  36   19   44 1
  37   20   21 1
  38   20   23 1
  39   20   24 1
  40   21   22 1
  41   23   25 ar
  42   23   26 ar
  43   24   45 1
  44   24   46 1
  45   24   47 1
  46   25   29 ar
  47   25   48 1
  48   26   27 ar
  49   26   49 1
  50   27   28 ar
  51   27   50 1
  52   28   29 ar
  53   28   30 1
  54   29   34 1
  55   31   32 1
  56   31   51 1
  57   31   52 1
  58   32   53 1
  59   32   54 1
  60   33   55 1
  61   33   56 1
  62   33   57 1

#	End of record

