#	Name: ASD01180400
#	Creating user name:	WinNT
#	Creation time:	15. 06. 2019 19:07

#	Modifying user name:	WinNT
#	Modification time:	15. 06. 2019 19:07

#	Program:	/corina/corina34_cracker 3.40 0067  02.08.2006

@<TRIPOS>MOLECULE
ASD01180400
   9    9    0    0    0
SMALL
NO_CHARGES


@<TRIPOS>ATOM
   1 C1            -0.0156     1.3010     0.0092 C.2     
   2 N2             0.0021    -0.0041     0.0020 N.2     
   3 C3             1.2743    -0.4297    -0.0124 C.2     
   4 C4             2.0758     0.6536    -0.0143 C.2     
   5 N5             1.2570     1.7519    -0.0005 N.pl3   
   6 Cl6            1.7962    -2.0853    -0.0254 Cl      
   7 H7            -0.9018     1.9183     0.0169 H       
   8 H8             3.1558     0.6555    -0.0246 H       
   9 H9             1.5389     2.6800     0.0015 H       
@<TRIPOS>BOND
   1    1    2 2
   2    1    5 1
   3    1    7 1
   4    2    3 1
   5    3    4 2
   6    3    6 1
   7    4    5 1
   8    4    8 1
   9    5    9 1

#	End of record

