#	Name: ASD01884798
#	Creating user name:	WinNT
#	Creation time:	15. 06. 2019 19:48

#	Modifying user name:	WinNT
#	Modification time:	15. 06. 2019 19:48

#	Program:	/corina/corina34_cracker 3.40 0067  02.08.2006

@<TRIPOS>MOLECULE
ASD01884798
  49   52    0    0    0
SMALL
NO_CHARGES


@<TRIPOS>ATOM
   1 C1            -0.0043     1.0049     0.1186 C.3     
   2 C2             0.0883    -0.5189     0.2203 C.3     
   3 H3            -0.9153    -0.9430     0.2529 H       
   4 C4             0.8344    -1.0669    -0.9959 C.3     
   5 N5             1.2348    -2.4596    -0.8264 N.am    
   6 C6             1.7124    -2.9223     0.3541 C.2     
   7 O7             2.2299    -4.0184     0.4517 O.2     
   8 C8             1.5704    -2.0228     1.5139 C.2     
   9 C9             2.0921    -2.0897     2.7877 C.2     
  10 C10            1.6392    -0.9458     3.4770 C.2     
  11 N11            0.8875    -0.2392     2.6664 N.2     
  12 N12            0.8132    -0.8844     1.4392 N.pl3   
  13 C13            2.9594    -3.1563     3.3280 C.2     
  14 O14            3.2783    -4.0951     2.6246 O.2     
  15 N15            3.3971    -3.0887     4.6010 N.am    
  16 C16            4.1161    -4.1550     5.1508 C.ar    
  17 C17            3.8332    -5.4624     4.7776 C.ar    
  18 N18            4.5084    -6.4698     5.2940 N.ar    
  19 C19            5.4702    -6.2821     6.1762 C.ar    
  20 C20            5.8098    -5.0096     6.5973 C.ar    
  21 C21            5.1303    -3.9209     6.0765 C.ar    
  22 C22            5.4753    -2.5181     6.5057 C.3     
  23 C23            1.1226    -3.3380    -1.9082 C.ar    
  24 C24            0.3783    -4.5042    -1.7836 C.ar    
  25 C25            0.2695    -5.3698    -2.8541 C.ar    
  26 C26            0.9009    -5.0769    -4.0491 C.ar    
  27 C27            1.6430    -3.9170    -4.1764 C.ar    
  28 C28            1.7504    -3.0438    -3.1118 C.ar    
  29 C29            0.7803    -6.0241    -5.2150 C.3     
  30 F30           -0.3329    -5.6744    -5.9867 F       
  31 F31            1.9354    -5.9461    -6.0005 F       
  32 F32            0.6267    -7.3310    -4.7401 F       
  33 H33            0.9995     1.4285     0.0861 H       
  34 H34           -0.5429     1.2764    -0.7893 H       
  35 H35           -0.5354     1.3953     0.9867 H       
  36 H36            0.1878    -0.9900    -1.8700 H       
  37 H37            1.7253    -0.4621    -1.1647 H       
  38 H38            1.8719    -0.6937     4.5011 H       
  39 H39            3.2135    -2.3005     5.1358 H       
  40 H40            3.0520    -5.6556     4.0573 H       
  41 H41            5.9999    -7.1343     6.5758 H       
  42 H42            6.5985    -4.8660     7.3210 H       
  43 H43            4.8754    -2.2459     7.3741 H       
  44 H44            6.5329    -2.4669     6.7642 H       
  45 H45            5.2669    -1.8267     5.6891 H       
  46 H46           -0.1144    -4.7339    -0.8504 H       
  47 H47           -0.3090    -6.2767    -2.7579 H       
  48 H48            2.1351    -3.6913    -5.1109 H       
  49 H49            2.3261    -2.1357    -3.2134 H       
@<TRIPOS>BOND
   1    1    2 1
   2    1   33 1
   3    1   34 1
   4    1   35 1
   5    2    3 1
   6    2   12 1
   7    2    4 1
   8    4    5 1
   9    4   36 1
  10    4   37 1
  11    5    6 am
  12    5   23 1
  13    6    7 2
  14    6    8 1
  15    8   12 1
  16    8    9 2
  17    9   10 1
  18    9   13 1
  19   10   11 2
  20   10   38 1
  21   11   12 1
  22   13   14 2
  23   13   15 am
  24   15   16 1
  25   15   39 1
  26   16   21 ar
  27   16   17 ar
  28   17   18 ar
  29   17   40 1
  30   18   19 ar
  31   19   20 ar
  32   19   41 1
  33   20   21 ar
  34   20   42 1
  35   21   22 1
  36   22   43 1
  37   22   44 1
  38   22   45 1
  39   23   28 ar
  40   23   24 ar
  41   24   25 ar
  42   24   46 1
  43   25   26 ar
  44   25   47 1
  45   26   27 ar
  46   26   29 1
  47   27   28 ar
  48   27   48 1
  49   28   49 1
  50   29   30 1
  51   29   31 1
  52   29   32 1

#	End of record

