#	Name: ASD03540506
#	Creating user name:	WinNT
#	Creation time:	15. 06. 2019 20:43

#	Modifying user name:	WinNT
#	Modification time:	15. 06. 2019 20:43

#	Program:	/corina/corina34_cracker 3.40 0067  02.08.2006

@<TRIPOS>MOLECULE
ASD03540506
  57   60    0    0    0
SMALL
NO_CHARGES


@<TRIPOS>ATOM
   1 N1            -0.0161     1.3396     0.0094 N.am    
   2 C2             0.0021    -0.0041     0.0020 C.2     
   3 N3             1.1390    -0.7172    -0.0122 N.am    
   4 C4             2.3459    -0.1106    -0.0200 C.2     
   5 C5             2.3857     1.3633    -0.0129 C.ar    
   6 C6             3.5871     2.0607    -0.0197 C.ar    
   7 C7             3.5659     3.4548    -0.0121 C.ar    
   8 C8             2.3437     4.1382     0.0023 C.ar    
   9 C9             1.1622     3.4519     0.0094 C.ar    
  10 C10            1.1637     2.0628     0.0020 C.ar    
  11 C11            4.8337     4.2115    -0.0186 C.2     
  12 O12            5.8952     3.6190    -0.0307 O.2     
  13 N13            4.8141     5.5591    -0.0113 N.am    
  14 C14            6.0721     6.3100    -0.0178 C.3     
  15 C15            5.7708     7.8100    -0.0073 C.3     
  16 C16            7.0845     8.5941    -0.0141 C.3     
  17 S17            6.7272    10.3726    -0.0016 S.3     
  18 C18            9.7638    13.0145    -0.0124 C.ar    
  19 C19            8.4906    12.4858    -0.0051 C.ar    
  20 C20            8.3323    11.0994    -0.0111 C.ar    
  21 C21            9.4786    10.3036    -0.0245 C.ar    
  22 C22           10.7159    10.9117    -0.0312 C.ar    
  23 N23           10.8236    12.2274    -0.0251 N.ar    
  24 O24            3.3721    -0.7626    -0.0320 O.2     
  25 O25           -1.0576    -0.5997     0.0089 O.2     
  26 C26           -1.2992     2.0466     0.0193 C.3     
  27 C27            1.0697    -2.1806    -0.0189 C.3     
  28 C28            1.0327    -2.6752    -1.4420 C.ar    
  29 C29            2.2115    -2.9586    -2.1061 C.ar    
  30 C30            2.1775    -3.4122    -3.4115 C.ar    
  31 C31            0.9648    -3.5829    -4.0526 C.ar    
  32 C32           -0.2140    -3.3004    -3.3881 C.ar    
  33 C33           -0.1803    -2.8509    -2.0813 C.ar    
  34 H34            4.5271     1.5290    -0.0304 H       
  35 H35            2.3349     5.2181     0.0081 H       
  36 H36            0.2260     3.9901     0.0212 H       
  37 H37            3.9672     6.0319    -0.0017 H       
  38 H38            6.6548     6.0502     0.8660 H       
  39 H39            6.6399     6.0598    -0.9139 H       
  40 H40            5.1880     8.0697    -0.8910 H       
  41 H41            5.2029     8.0602     0.8888 H       
  42 H42            7.6673     8.3344     0.8697 H       
  43 H43            7.6524     8.3439    -0.9102 H       
  44 H44            9.8959    14.0864    -0.0123 H       
  45 H45            7.6279    13.1355     0.0056 H       
  46 H46            9.3977     9.2267    -0.0292 H       
  47 H47           11.6085    10.3038    -0.0416 H       
  48 H48           -2.1134     1.3219     0.0192 H       
  49 H49           -1.3652     2.6671     0.9130 H       
  50 H50           -1.3736     2.6768    -0.8669 H       
  51 H51            1.9463    -2.5881     0.4847 H       
  52 H52            0.1684    -2.5041     0.5017 H       
  53 H53            3.1590    -2.8252    -1.6052 H       
  54 H54            3.0985    -3.6329    -3.9306 H       
  55 H55            0.9383    -3.9366    -5.0726 H       
  56 H56           -1.1615    -3.4334    -3.8891 H       
  57 H57           -1.1014    -2.6337    -1.5610 H       
@<TRIPOS>BOND
   1    1    2 am
   2    1   10 1
   3    1   26 1
   4    2    3 am
   5    2   25 2
   6    3    4 am
   7    3   27 1
   8    4    5 1
   9    4   24 2
  10    5    6 ar
  11    5   10 ar
  12    6    7 ar
  13    6   34 1
  14    7    8 ar
  15    7   11 1
  16    8    9 ar
  17    8   35 1
  18    9   10 ar
  19    9   36 1
  20   11   12 2
  21   11   13 am
  22   13   14 1
  23   13   37 1
  24   14   15 1
  25   14   38 1
  26   14   39 1
  27   15   16 1
  28   15   40 1
  29   15   41 1
  30   16   17 1
  31   16   42 1
  32   16   43 1
  33   17   20 1
  34   18   19 ar
  35   18   23 ar
  36   18   44 1
  37   19   20 ar
  38   19   45 1
  39   20   21 ar
  40   21   22 ar
  41   21   46 1
  42   22   23 ar
  43   22   47 1
  44   26   48 1
  45   26   49 1
  46   26   50 1
  47   27   28 1
  48   27   51 1
  49   27   52 1
  50   28   29 ar
  51   28   33 ar
  52   29   30 ar
  53   29   53 1
  54   30   31 ar
  55   30   54 1
  56   31   32 ar
  57   31   55 1
  58   32   33 ar
  59   32   56 1
  60   33   57 1

#	End of record

