#	Name: ASD03731744
#	Creating user name:	WinNT
#	Creation time:	15. 06. 2019 20:46

#	Modifying user name:	WinNT
#	Modification time:	15. 06. 2019 20:46

#	Program:	/corina/corina34_cracker 3.40 0067  02.08.2006

@<TRIPOS>MOLECULE
ASD03731744
  40   41    0    0    0
SMALL
NO_CHARGES


@<TRIPOS>ATOM
   1 C1            -0.7934     1.3896     0.4216 C.2     
   2 C2            -0.5691    -0.0646     0.3051 C.ar    
   3 C3             0.5782    -0.5478    -0.3296 C.ar    
   4 C4             0.7840    -1.9051    -0.4359 C.ar    
   5 C5            -0.1479    -2.7944     0.0869 C.ar    
   6 C6            -1.2906    -2.3176     0.7191 C.ar    
   7 C7            -1.5007    -0.9616     0.8344 C.ar    
   8 O8             0.0206     2.1688    -0.0350 O.2     
   9 N9            -1.9033     1.8538     1.0293 N.am    
  10 S10           -2.1549     3.4853     1.1600 S.o2    
  11 O11           -3.3842     3.5950     1.8642 O.2     
  12 O12           -0.9454     3.9830     1.7155 O.2     
  13 C13           -2.3495     4.0519    -0.5523 C.3     
  14 O14            0.0581    -4.1313    -0.0206 O.3     
  15 C15           -0.4509    -4.7699    -1.1067 C.ar    
  16 C16           -0.3599    -6.1502    -1.2061 C.ar    
  17 C17           -0.8800    -6.7985    -2.3153 C.ar    
  18 C18           -1.4903    -6.0654    -3.3235 C.ar    
  19 C19           -1.5794    -4.6904    -3.2224 C.ar    
  20 C20           -1.0672    -4.0420    -2.1148 C.ar    
  21 C21           -2.2418    -3.8969    -4.3191 C.3     
  22 O22           -0.7919    -8.1509    -2.4159 O.3     
  23 C23           -0.1504    -8.8409    -1.3414 C.3     
  24 H24            1.3023     0.1424    -0.7366 H       
  25 H25            1.6705    -2.2793    -0.9263 H       
  26 H26           -2.0123    -3.0115     1.1239 H       
  27 H27           -2.3865    -0.5920     1.3296 H       
  28 H28           -2.5547     1.2321     1.3900 H       
  29 H29           -3.1994     3.5444    -1.0086 H       
  30 H30           -2.5213     5.1282    -0.5615 H       
  31 H31           -1.4447     3.8236    -1.1156 H       
  32 H32            0.1158    -6.7188    -0.4208 H       
  33 H33           -1.8957    -6.5702    -4.1879 H       
  34 H34           -1.1423    -2.9675    -2.0358 H       
  35 H35           -3.3061    -3.7993    -4.1049 H       
  36 H36           -1.7901    -2.9064    -4.3745 H       
  37 H37           -2.1084    -4.4109    -5.2709 H       
  38 H38           -0.1476    -9.9113    -1.5473 H       
  39 H39            0.8759    -8.4871    -1.2437 H       
  40 H40           -0.6901    -8.6507    -0.4138 H       
@<TRIPOS>BOND
   1    1    2 1
   2    1    8 2
   3    1    9 am
   4    2    3 ar
   5    2    7 ar
   6    3    4 ar
   7    3   24 1
   8    4    5 ar
   9    4   25 1
  10    5    6 ar
  11    5   14 1
  12    6    7 ar
  13    6   26 1
  14    7   27 1
  15    9   10 am
  16    9   28 1
  17   10   11 2
  18   10   12 2
  19   10   13 1
  20   13   29 1
  21   13   30 1
  22   13   31 1
  23   14   15 1
  24   15   16 ar
  25   15   20 ar
  26   16   17 ar
  27   16   32 1
  28   17   18 ar
  29   17   22 1
  30   18   19 ar
  31   18   33 1
  32   19   20 ar
  33   19   21 1
  34   20   34 1
  35   21   35 1
  36   21   36 1
  37   21   37 1
  38   22   23 1
  39   23   38 1
  40   23   39 1
  41   23   40 1

#	End of record

