#	Name: ASD00071054
#	Creating user name:	WinNT
#	Creation time:	15. 06. 2019 18:30

#	Modifying user name:	WinNT
#	Modification time:	15. 06. 2019 18:30

#	Program:	/corina/corina34_cracker 3.40 0067  02.08.2006

@<TRIPOS>MOLECULE
ASD00071054
  53   56    0    0    0
SMALL
NO_CHARGES


@<TRIPOS>ATOM
   1 N1            -0.1099     1.1192     0.4099 N.ar    
   2 C2             0.0186    -0.1618     0.1345 C.ar    
   3 C3             1.2540    -0.7125    -0.2357 C.ar    
   4 C4             2.3554     0.0851    -0.3167 C.ar    
   5 C5             2.2111     1.4565    -0.0209 C.ar    
   6 C6             3.3047     2.3323    -0.0856 C.ar    
   7 C7             3.1240     3.6664     0.2103 C.ar    
   8 C8             1.8625     4.1494     0.5734 C.ar    
   9 C9             0.7883     3.3179     0.6430 C.ar    
  10 C10            0.9364     1.9521     0.3475 C.ar    
  11 N11           -1.0947    -0.9868     0.2128 N.pl3   
  12 N12            4.2103     4.5437     0.1474 N.3     
  13 C13            3.8036     5.9116     0.4981 C.3     
  14 C14            5.0330     6.8232     0.4948 C.3     
  15 N15            5.6622     6.7879    -0.8328 N.3     
  16 C16            6.0690     5.4200    -1.1834 C.3     
  17 C17            4.8396     4.5084    -1.1802 C.3     
  18 C18            6.8040     7.7099    -0.8988 C.3     
  19 C19            1.3631    -2.1838    -0.5428 C.3     
  20 C20            0.9989    -2.4243    -1.9852 C.ar    
  21 C21            1.9398    -2.2148    -2.9832 C.ar    
  22 C22            1.6014    -2.4370    -4.3099 C.ar    
  23 C23            0.3288    -2.8661    -4.6345 C.ar    
  24 C24           -0.6070    -3.0737    -3.6384 C.ar    
  25 C25           -0.2702    -2.8588    -2.3144 C.ar    
  26 O26            3.1907    -1.7922    -2.6615 O.3     
  27 C27            4.1073    -1.5975    -3.7404 C.3     
  28 H28            3.3147    -0.3224    -0.5999 H       
  29 H29            4.2809     1.9642    -0.3647 H       
  30 H30            1.7396     5.1978     0.8021 H       
  31 H31           -0.1785     3.7074     0.9257 H       
  32 H32           -1.9724    -0.6036     0.3673 H       
  33 H33           -0.9952    -1.9465     0.1130 H       
  34 H34            3.0800     6.2743    -0.2320 H       
  35 H35            3.3520     5.9136     1.4901 H       
  36 H36            4.7293     7.8441     0.7263 H       
  37 H37            5.7448     6.4764     1.2439 H       
  38 H38            6.5206     5.4179    -2.1755 H       
  39 H39            6.7926     5.0573    -0.4534 H       
  40 H40            5.1432     3.4875    -1.4117 H       
  41 H41            4.1278     4.8551    -1.9293 H       
  42 H42            7.5455     7.4240    -0.1529 H       
  43 H43            7.2511     7.6639    -1.8919 H       
  44 H44            6.4625     8.7259    -0.7008 H       
  45 H45            2.3858    -2.5171    -0.3659 H       
  46 H46            0.6829    -2.7409     0.1014 H       
  47 H47            2.3319    -2.2743    -5.0886 H       
  48 H48            0.0648    -3.0393    -5.6673 H       
  49 H49           -1.6014    -3.4085    -3.8942 H       
  50 H50           -1.0016    -3.0262    -1.5376 H       
  51 H51            5.0661    -1.2607    -3.3463 H       
  52 H52            4.2441    -2.5375    -4.2750 H       
  53 H53            3.7107    -0.8458    -4.4228 H       
@<TRIPOS>BOND
   1    1    2 ar
   2    1   10 ar
   3    2    3 ar
   4    2   11 1
   5    3    4 ar
   6    3   19 1
   7    4    5 ar
   8    4   28 1
   9    5    6 ar
  10    5   10 ar
  11    6    7 ar
  12    6   29 1
  13    7    8 ar
  14    7   12 1
  15    8    9 ar
  16    8   30 1
  17    9   10 ar
  18    9   31 1
  19   11   32 1
  20   11   33 1
  21   12   13 1
  22   12   17 1
  23   13   14 1
  24   13   34 1
  25   13   35 1
  26   14   15 1
  27   14   36 1
  28   14   37 1
  29   15   16 1
  30   15   18 1
  31   16   17 1
  32   16   38 1
  33   16   39 1
  34   17   40 1
  35   17   41 1
  36   18   42 1
  37   18   43 1
  38   18   44 1
  39   19   20 1
  40   19   45 1
  41   19   46 1
  42   20   21 ar
  43   20   25 ar
  44   21   22 ar
  45   21   26 1
  46   22   23 ar
  47   22   47 1
  48   23   24 ar
  49   23   48 1
  50   24   25 ar
  51   24   49 1
  52   25   50 1
  53   26   27 1
  54   27   51 1
  55   27   52 1
  56   27   53 1

#	End of record

