#	Name: ASD03090581
#	Creating user name:	WinNT
#	Creation time:	15. 06. 2019 20:29

#	Modifying user name:	WinNT
#	Modification time:	15. 06. 2019 20:29

#	Program:	/corina/corina34_cracker 3.40 0067  02.08.2006

@<TRIPOS>MOLECULE
ASD03090581
  31   33    0    0    0
SMALL
NO_CHARGES


@<TRIPOS>ATOM
   1 N1            -0.0162     1.3436     0.0094 N.am    
   2 C2            -1.1856     1.7446     0.5463 C.2     
   3 O3            -1.2399     2.7808     1.1801 O.2     
   4 N4            -2.2947     0.9970     0.3807 N.am    
   5 S5            -4.9931     0.5772     0.8148 S.3     
   6 C6            -3.5013     1.4108     0.9347 C.2     
   7 N7            -3.6839     2.4932     1.6291 N.2     
   8 N8            -4.8474     2.7223     2.0621 N.2     
   9 C9            -5.7571     1.8481     1.7700 C.2     
  10 C10           -7.2078     1.9060     2.1740 C.3     
  11 F11           -7.4622     3.1171     2.8264 F       
  12 F12           -8.0134     1.8122     1.0341 F       
  13 F13           -7.4945     0.8425     3.0364 F       
  14 O14            4.2998     4.7951     0.2621 O.3     
  15 C15            3.6795     6.0518     0.5824 C.3     
  16 C16            2.2411     5.8716     0.0422 C.3     
  17 C17            2.0776     4.3644     0.0835 C.ar    
  18 C18            3.3484     3.8208     0.2232 C.ar    
  19 C19            3.4858     2.4373     0.3007 C.ar    
  20 C20            2.3756     1.6221     0.2313 C.ar    
  21 C21            1.1103     2.1738     0.0839 C.ar    
  22 C22            0.9672     3.5540     0.0102 C.ar    
  23 H23            0.0467     0.4786    -0.4250 H       
  24 H24           -2.2513     0.1703    -0.1249 H       
  25 H25            3.6697     6.2138     1.6603 H       
  26 H26            4.1837     6.8724     0.0721 H       
  27 H27            1.5163     6.3601     0.6935 H       
  28 H28            2.1589     6.2445    -0.9787 H       
  29 H29            4.4668     2.0004     0.4154 H       
  30 H30            2.4910     0.5500     0.2915 H       
  31 H31           -0.0140     3.9905    -0.1042 H       
@<TRIPOS>BOND
   1    1    2 am
   2    1   21 1
   3    1   23 1
   4    2    3 2
   5    2    4 am
   6    4    6 1
   7    4   24 1
   8    5    6 1
   9    5    9 1
  10    6    7 2
  11    7    8 1
  12    8    9 2
  13    9   10 1
  14   10   11 1
  15   10   12 1
  16   10   13 1
  17   14   15 1
  18   14   18 1
  19   15   16 1
  20   15   25 1
  21   15   26 1
  22   16   17 1
  23   16   27 1
  24   16   28 1
  25   17   18 ar
  26   17   22 ar
  27   18   19 ar
  28   19   20 ar
  29   19   29 1
  30   20   21 ar
  31   20   30 1
  32   21   22 ar
  33   22   31 1

#	End of record

