#	Name: ASD08070659
#	Creating user name:	WinNT
#	Creation time:	15. 06. 2019 21:15

#	Modifying user name:	WinNT
#	Modification time:	15. 06. 2019 21:15

#	Program:	/corina/corina34_cracker 3.40 0067  02.08.2006

@<TRIPOS>MOLECULE
ASD08070659
  43   43    0    0    0
SMALL
NO_CHARGES


@<TRIPOS>ATOM
   1 C1            -0.3517     1.2430    -0.1892 C.2     
   2 C2            -0.5099    -0.2232    -0.2954 C.ar    
   3 C3             0.6153    -1.0460    -0.3699 C.ar    
   4 C4             0.4608    -2.4132    -0.4684 C.ar    
   5 C5            -0.8061    -2.9693    -0.4939 C.ar    
   6 C6            -1.9253    -2.1595    -0.4204 C.ar    
   7 C7            -1.7846    -0.7909    -0.3158 C.ar    
   8 O8             0.7598     1.7343    -0.1666 O.2     
   9 N9            -1.4401     2.0351    -0.1231 N.am    
  10 C10            0.1920     3.5808    -2.0319 C.3     
  11 C11           -1.1146     4.0853    -1.4162 C.3     
  12 C12           -1.2835     3.4879    -0.0178 C.3     
  13 C13           -2.5242     4.0879     0.6467 C.3     
  14 C14           -2.6373     3.5664     2.0806 C.3     
  15 C15           -1.4589     4.0859     2.9067 C.3     
  16 C16           -3.9485     4.0553     2.6991 C.3     
  17 C17           -0.9673    -4.4637    -0.6026 C.3     
  18 C18            1.6743    -3.3031    -0.5489 C.3     
  19 H19            1.6046    -0.6132    -0.3508 H       
  20 H20           -2.9112    -2.5998    -0.4408 H       
  21 H21           -2.6590    -0.1601    -0.2544 H       
  22 H22           -2.3272     1.6433    -0.1451 H       
  23 H23            1.0301     3.8832    -1.4040 H       
  24 H24            0.1645     2.4934    -2.1022 H       
  25 H25            0.3123     4.0064    -3.0282 H       
  26 H26           -1.0871     5.1727    -1.3459 H       
  27 H27           -1.9527     3.7829    -2.0441 H       
  28 H28           -0.4033     3.7158     0.5834 H       
  29 H29           -2.4392     5.1745     0.6608 H       
  30 H30           -3.4125     3.8002     0.0843 H       
  31 H31           -2.6232     2.4765     2.0731 H       
  32 H32           -1.4729     5.1758     2.9142 H       
  33 H33           -1.5394     3.7145     3.9282 H       
  34 H34           -0.5247     3.7377     2.4660 H       
  35 H35           -4.7828     3.7591     2.0633 H       
  36 H36           -4.0707     3.6135     3.6881 H       
  37 H37           -3.9262     5.1415     2.7867 H       
  38 H38           -0.9934    -4.9000     0.3959 H       
  39 H39           -1.8973    -4.6919    -1.1233 H       
  40 H40           -0.1277    -4.8802    -1.1592 H       
  41 H41            1.9797    -3.5929     0.4565 H       
  42 H42            1.4329    -4.1953    -1.1267 H       
  43 H43            2.4881    -2.7647    -1.0348 H       
@<TRIPOS>BOND
   1    1    2 1
   2    1    8 2
   3    1    9 am
   4    2    3 ar
   5    2    7 ar
   6    3    4 ar
   7    3   19 1
   8    4    5 ar
   9    4   18 1
  10    5    6 ar
  11    5   17 1
  12    6    7 ar
  13    6   20 1
  14    7   21 1
  15    9   12 1
  16    9   22 1
  17   10   11 1
  18   10   23 1
  19   10   24 1
  20   10   25 1
  21   11   12 1
  22   11   26 1
  23   11   27 1
  24   12   13 1
  25   12   28 1
  26   13   14 1
  27   13   29 1
  28   13   30 1
  29   14   15 1
  30   14   16 1
  31   14   31 1
  32   15   32 1
  33   15   33 1
  34   15   34 1
  35   16   35 1
  36   16   36 1
  37   16   37 1
  38   17   38 1
  39   17   39 1
  40   17   40 1
  41   18   41 1
  42   18   42 1
  43   18   43 1

#	End of record

