#	Name: ASD01410221
#	Creating user name:	WinNT
#	Creation time:	15. 06. 2019 19:17

#	Modifying user name:	WinNT
#	Modification time:	15. 06. 2019 19:17

#	Program:	/corina/corina34_cracker 3.40 0067  02.08.2006

@<TRIPOS>MOLECULE
ASD01410221
  43   45    0    0    0
SMALL
NO_CHARGES


@<TRIPOS>ATOM
   1 C1            -0.0163     1.3475     0.0095 C.2     
   2 C2             0.0021    -0.0041     0.0020 C.2     
   3 C3            -1.3321    -0.4376     0.0133 C.2     
   4 C4            -2.1146     0.7003     0.0274 C.2     
   5 O5            -1.2891     1.7679     0.0297 O.3     
   6 C6            -4.1759     1.9388     0.0546 C.2     
   7 S7            -3.4708     3.5687     0.0561 S.3     
   8 C8            -5.0402     4.3930     0.0687 C.2     
   9 N9            -5.9628     3.4599     0.0710 N.2     
  10 C10           -5.6233     2.1888     0.0644 C.2     
  11 C11           -3.5274     0.7396     0.0415 C.2     
  12 O12           -6.4473     1.2871     0.0659 O.2     
  13 N13           -5.2500     5.7478     0.0749 N.pl3   
  14 C14           -6.6159     6.2774     0.0851 C.3     
  15 C15            1.1990     2.2387     0.0026 C.3     
  16 C16            1.5965     2.5480    -1.4421 C.3     
  17 C17           -7.7632     8.1544     1.2809 C.ar    
  18 C18           -6.6150     7.6574     0.6905 C.ar    
  19 C19           -5.4667     8.4264     0.6563 C.ar    
  20 C20           -5.4651     9.6920     1.2113 C.ar    
  21 C21           -6.6131    10.1904     1.8016 C.ar    
  22 C22           -7.7638     9.4236     1.8316 C.ar    
  23 Cl23          -6.6110    11.7803     2.4987 Cl      
  24 C24           -7.1377     6.3486    -1.3269 C.2     
  25 O25           -6.4376     5.9921    -2.2508 O.2     
  26 N26           -8.3824     6.8085    -1.5629 N.am    
  27 O27           -8.8727     6.8754    -2.8896 O.3     
  28 Cl28          -9.2051     7.1886     1.3238 Cl      
  29 H29            0.8800    -0.6329    -0.0108 H       
  30 H30           -1.6791    -1.4603     0.0108 H       
  31 H31           -4.0933    -0.1803     0.0420 H       
  32 H32           -4.4941     6.3556     0.0724 H       
  33 H33           -7.2554     5.6218     0.6762 H       
  34 H34            0.9707     3.1685     0.5237 H       
  35 H35            2.0231     1.7331     0.5059 H       
  36 H36            1.8248     1.6182    -1.9631 H       
  37 H37            0.7724     3.0536    -1.9454 H       
  38 H38            2.4755     3.1926    -1.4470 H       
  39 H39           -4.5703     8.0377     0.1959 H       
  40 H40           -4.5676    10.2922     1.1845 H       
  41 H41           -8.6601     9.8121     2.2922 H       
  42 H42           -8.9423     7.0937    -0.8240 H       
  43 H43           -9.7743     7.2180    -2.9590 H       
@<TRIPOS>BOND
   1    1    2 2
   2    1   15 1
   3    1    5 1
   4    2    3 1
   5    2   29 1
   6    3    4 2
   7    3   30 1
   8    4    5 1
   9    4   11 1
  10    6    7 1
  11    6   10 1
  12    6   11 2
  13    7    8 1
  14    8    9 2
  15    8   13 1
  16    9   10 1
  17   10   12 2
  18   11   31 1
  19   13   14 1
  20   13   32 1
  21   14   18 1
  22   14   24 1
  23   14   33 1
  24   15   16 1
  25   15   34 1
  26   15   35 1
  27   16   36 1
  28   16   37 1
  29   16   38 1
  30   17   18 ar
  31   17   28 1
  32   17   22 ar
  33   18   19 ar
  34   19   20 ar
  35   19   39 1
  36   20   21 ar
  37   20   40 1
  38   21   22 ar
  39   21   23 1
  40   22   41 1
  41   24   25 2
  42   24   26 am
  43   26   27 1
  44   26   42 1
  45   27   43 1

#	End of record

