#	Name: ASD01880162
#	Creating user name:	WinNT
#	Creation time:	15. 06. 2019 19:40

#	Modifying user name:	WinNT
#	Modification time:	15. 06. 2019 19:40

#	Program:	/corina/corina34_cracker 3.40 0067  02.08.2006

@<TRIPOS>MOLECULE
ASD01880162
  68   71    0    0    0
SMALL
NO_CHARGES


@<TRIPOS>ATOM
   1 C1            -0.0166     1.3745     0.0096 C.ar    
   2 C2             0.0021    -0.0041     0.0020 C.ar    
   3 C3            -1.1909    -0.7251     0.0100 C.ar    
   4 C4            -2.3953    -0.0825     0.0250 C.ar    
   5 C5            -2.4435     1.3093     0.0325 C.ar    
   6 C6            -1.2443     2.0467     0.0308 C.ar    
   7 O7             1.1909    -0.6641    -0.0138 O.3     
   8 C8             1.1401    -2.0921    -0.0209 C.3     
   9 C9             2.5634    -2.6530    -0.0386 C.3     
  10 C10            2.5090    -4.1820    -0.0463 C.3     
  11 C11            3.9324    -4.7429    -0.0640 C.3     
  12 O12            3.8816    -6.1710    -0.0711 O.3     
  13 C13            5.0690    -6.8303    -0.0869 C.ar    
  14 C14            5.0904    -8.2189    -0.0946 C.ar    
  15 C15            6.2936    -8.8912    -0.1111 C.ar    
  16 C16            7.4911    -8.1749    -0.1201 C.ar    
  17 C17            7.4658    -6.7796    -0.1123 C.ar    
  18 C18            6.2589    -6.1140    -0.1012 C.ar    
  19 C19            8.7844    -8.8929    -0.1373 C.2     
  20 N20            8.9550   -10.1985    -0.1461 N.2     
  21 N21           10.2060   -10.4882    -0.1613 N.2     
  22 N22           10.9164    -9.4127    -0.1634 N.2     
  23 N23           10.0187    -8.3308    -0.1529 N.pl3   
  24 C24            1.2746     2.1515     0.0014 C.3     
  25 C25            1.6978     2.4223    -1.4437 C.3     
  26 C26            3.0087     3.2112    -1.4520 C.3     
  27 N27           -3.4678     2.2223     0.0462 N.pl3   
  28 N28           -2.9291     3.5131     0.0474 N.2     
  29 C29           -1.6278     3.4547     0.0394 C.2     
  30 C30           -4.8962     1.8973     0.0574 C.3     
  31 C31           -5.3806     1.7769     1.5037 C.3     
  32 C32           -5.1540     3.1045     2.2296 C.3     
  33 C33           -6.8724     1.4375     1.5153 C.3     
  34 C34           -4.5998     0.6683     2.2124 C.3     
  35 H35           -1.1621    -1.8047     0.0039 H       
  36 H36           -3.3117    -0.6540     0.0307 H       
  37 H37            0.6229    -2.4418     0.8726 H       
  38 H38            0.6045    -2.4322    -0.9073 H       
  39 H39            3.0807    -2.3034    -0.9322 H       
  40 H40            3.0990    -2.3130     0.8477 H       
  41 H41            1.9918    -4.5317     0.8472 H       
  42 H42            1.9734    -4.5221    -0.9326 H       
  43 H43            4.4496    -4.3933    -0.9575 H       
  44 H44            4.4680    -4.4029     0.8223 H       
  45 H45            4.1632    -8.7726    -0.0873 H       
  46 H46            6.3094    -9.9711    -0.1167 H       
  47 H47            8.3907    -6.2220    -0.1193 H       
  48 H48            6.2385    -5.0342    -0.0955 H       
  49 H49           10.2356    -7.3854    -0.1521 H       
  50 H50            1.1319     3.0987     0.5218 H       
  51 H51            2.0496     1.5736     0.5048 H       
  52 H52            1.8404     1.4751    -1.9640 H       
  53 H53            0.9227     3.0002    -1.9471 H       
  54 H54            2.8660     4.1583    -0.9317 H       
  55 H55            3.7837     2.6332    -0.9486 H       
  56 H56            3.3102     3.4040    -2.4816 H       
  57 H57           -0.9531     4.2980     0.0386 H       
  58 H58           -5.4525     2.6871    -0.4476 H       
  59 H59           -5.0577     0.9515    -0.4598 H       
  60 H60           -5.7102     3.8943     1.7247 H       
  61 H61           -5.4991     3.0187     3.2600 H       
  62 H62           -4.0912     3.3464     2.2213 H       
  63 H63           -7.0339     0.4916     0.9981 H       
  64 H64           -7.2175     1.3517     2.5457 H       
  65 H65           -7.4287     2.2272     1.0104 H       
  66 H66           -3.5370     0.9102     2.2041 H       
  67 H67           -4.9449     0.5826     3.2428 H       
  68 H68           -4.7612    -0.2775     1.6952 H       
@<TRIPOS>BOND
   1    1    2 ar
   2    1   24 1
   3    1    6 ar
   4    2    3 ar
   5    2    7 1
   6    3    4 ar
   7    3   35 1
   8    4    5 ar
   9    4   36 1
  10    5    6 ar
  11    5   27 1
  12    6   29 1
  13    7    8 1
  14    8    9 1
  15    8   37 1
  16    8   38 1
  17    9   10 1
  18    9   39 1
  19    9   40 1
  20   10   11 1
  21   10   41 1
  22   10   42 1
  23   11   12 1
  24   11   43 1
  25   11   44 1
  26   12   13 1
  27   13   14 ar
  28   13   18 ar
  29   14   15 ar
  30   14   45 1
  31   15   16 ar
  32   15   46 1
  33   16   17 ar
  34   16   19 1
  35   17   18 ar
  36   17   47 1
  37   18   48 1
  38   19   20 2
  39   19   23 1
  40   20   21 1
  41   21   22 2
  42   22   23 1
  43   23   49 1
  44   24   25 1
  45   24   50 1
  46   24   51 1
  47   25   26 1
  48   25   52 1
  49   25   53 1
  50   26   54 1
  51   26   55 1
  52   26   56 1
  53   27   28 1
  54   27   30 1
  55   28   29 2
  56   29   57 1
  57   30   31 1
  58   30   58 1
  59   30   59 1
  60   31   32 1
  61   31   33 1
  62   31   34 1
  63   32   60 1
  64   32   61 1
  65   32   62 1
  66   33   63 1
  67   33   64 1
  68   33   65 1
  69   34   66 1
  70   34   67 1
  71   34   68 1

#	End of record

