#	Name: ASD01230675
#	Creating user name:	WinNT
#	Creation time:	15. 06. 2019 19:14

#	Modifying user name:	WinNT
#	Modification time:	15. 06. 2019 19:14

#	Program:	/corina/corina34_cracker 3.40 0067  02.08.2006

@<TRIPOS>MOLECULE
ASD01230675
  51   54    0    0    0
SMALL
NO_CHARGES


@<TRIPOS>ATOM
   1 C1             0.0242     1.5931    -0.8729 C.3     
   2 C2            -0.1149     0.1865    -0.2842 C.3     
   3 C3            -1.5085    -0.3765    -0.5250 C.3     
   4 C4            -2.5699     0.7093    -0.6353 C.3     
   5 N5            -2.1901     1.9044     0.1215 N.pl3   
   6 C6            -0.9769     2.4803    -0.1528 C.2     
   7 C7            -3.0681     2.4379     1.1600 C.3     
   8 C8            -3.3025     3.9290     0.9129 C.3     
   9 S9            -1.7053     4.7780     0.8041 S.o2    
  10 N10           -0.6755     3.6882     0.1228 N.am    
  11 C11            1.4223     2.1082    -0.6473 C.ar    
  12 C12            2.2159     2.4465    -1.7279 C.ar    
  13 C13            3.4980     2.9185    -1.5239 C.ar    
  14 C14            3.9892     3.0534    -0.2332 C.ar    
  15 C15            3.1906     2.7136     0.8494 C.ar    
  16 C16            1.9074     2.2470     0.6401 C.ar    
  17 O17            5.2502     3.5171    -0.0299 O.3     
  18 C18            5.4262     4.8600     0.0796 C.ar    
  19 C19            6.7058     5.3878     0.1728 C.ar    
  20 C20            6.8820     6.7536     0.2840 C.ar    
  21 C21            5.7845     7.5941     0.3025 C.ar    
  22 C22            4.5079     7.0706     0.2102 C.ar    
  23 C23            4.3265     5.7064     0.0926 C.ar    
  24 C24            5.9797     9.0835     0.4239 C.3     
  25 O25           -1.7690     5.8347    -0.1439 O.2     
  26 O26           -1.1704     4.9964     2.1023 O.2     
  27 F27            6.0946     9.6444    -0.8526 F       
  28 F28            4.8812     9.6456     1.0831 F       
  29 F29            7.1446     9.3432     1.1539 F       
  30 C30            7.9026     4.4721     0.1533 C.3     
  31 F31            9.0727     5.2316     0.2595 F       
  32 F32            7.8257     3.5812     1.2291 F       
  33 F33            7.9204     3.7536    -1.0470 F       
  34 H34           -0.1962     1.5725    -1.9402 H       
  35 H35            0.6206    -0.4697    -0.7494 H       
  36 H36            0.0729     0.2281     0.7887 H       
  37 H37           -1.4996    -0.9550    -1.4488 H       
  38 H38           -1.7678    -1.0394     0.3005 H       
  39 H39           -2.6987     0.9771    -1.6840 H       
  40 H40           -3.5138     0.3263    -0.2474 H       
  41 H41           -4.0220     1.9111     1.1352 H       
  42 H42           -2.6022     2.3002     2.1357 H       
  43 H43           -3.8491     4.0614    -0.0208 H       
  44 H44           -3.8815     4.3475     1.7361 H       
  45 H45            1.8331     2.3414    -2.7323 H       
  46 H46            4.1177     3.1820    -2.3683 H       
  47 H47            3.5705     2.8177     1.8550 H       
  48 H48            1.2853     1.9827     1.4824 H       
  49 H49            7.8779     7.1650     0.3570 H       
  50 H50            3.6522     7.7293     0.2255 H       
  51 H51            3.3293     5.2981     0.0202 H       
@<TRIPOS>BOND
   1    1    2 1
   2    1   11 1
   3    1    6 1
   4    1   34 1
   5    2    3 1
   6    2   35 1
   7    2   36 1
   8    3    4 1
   9    3   37 1
  10    3   38 1
  11    4    5 1
  12    4   39 1
  13    4   40 1
  14    5    6 1
  15    5    7 1
  16    6   10 2
  17    7    8 1
  18    7   41 1
  19    7   42 1
  20    8    9 1
  21    8   43 1
  22    8   44 1
  23    9   10 am
  24    9   25 2
  25    9   26 2
  26   11   12 ar
  27   11   16 ar
  28   12   13 ar
  29   12   45 1
  30   13   14 ar
  31   13   46 1
  32   14   15 ar
  33   14   17 1
  34   15   16 ar
  35   15   47 1
  36   16   48 1
  37   17   18 1
  38   18   19 ar
  39   18   23 ar
  40   19   20 ar
  41   19   30 1
  42   20   21 ar
  43   20   49 1
  44   21   22 ar
  45   21   24 1
  46   22   23 ar
  47   22   50 1
  48   23   51 1
  49   24   27 1
  50   24   28 1
  51   24   29 1
  52   30   31 1
  53   30   32 1
  54   30   33 1

#	End of record

