#	Name: ASD03090355
#	Creating user name:	WinNT
#	Creation time:	15. 06. 2019 20:28

#	Modifying user name:	WinNT
#	Modification time:	15. 06. 2019 20:28

#	Program:	/corina/corina34_cracker 3.40 0067  02.08.2006

@<TRIPOS>MOLECULE
ASD03090355
  48   51    0    0    0
SMALL
NO_CHARGES


@<TRIPOS>ATOM
   1 N1             0.0920     1.4394     0.2986 N.ar    
   2 C2             0.2400     0.4616    -0.5742 C.ar    
   3 C3             1.4275    -0.2416    -0.6566 C.ar    
   4 C4             2.4789     0.0997     0.2045 C.ar    
   5 C5             2.2750     1.1434     1.1131 C.ar    
   6 C6             1.0568     1.7913     1.1263 C.ar    
   7 C7             3.7684    -0.6241     0.1544 C.2     
   8 N8             5.7556    -3.5220     0.0636 N.pl3   
   9 C9             4.9129    -4.6314     0.1978 C.ar    
  10 C10            5.2403    -5.8308    -0.4200 C.ar    
  11 C11            4.4059    -6.9281    -0.2869 C.ar    
  12 C12            3.2393    -6.8258     0.4671 C.ar    
  13 C13            2.9158    -5.6270     1.0817 C.ar    
  14 C14            3.7518    -4.5342     0.9536 C.ar    
  15 N15            3.9228    -1.9330     0.1392 N.2     
  16 C16            5.2217    -2.2323     0.0915 C.2     
  17 N17            5.9176    -1.1185     0.0753 N.2     
  18 N18            4.9959    -0.0596     0.1101 N.pl3   
  19 C19            5.3038     1.3727     0.1075 C.3     
  20 C20            5.2436     1.9047    -1.3258 C.3     
  21 O21            4.4954    -8.1970    -0.7823 O.3     
  22 C22            3.5865    -8.9843     0.0096 C.3     
  23 O23            2.5979    -8.0319     0.4437 O.3     
  24 F24            2.9961    -9.9852    -0.7694 F       
  25 F25            4.2484    -9.5416     1.1089 F       
  26 C26            5.5603     3.3780    -1.3285 C.2     
  27 O27            5.8097     3.9466    -0.2866 O.2     
  28 N28            5.5665     4.0638    -2.4887 N.am    
  29 C29            5.8744     5.4961    -2.4913 C.3     
  30 C30            5.2653     3.3771    -3.7472 C.3     
  31 F31            1.5717    -1.2422    -1.5528 F       
  32 H32           -0.5771     0.2068    -1.2328 H       
  33 H33            3.0595     1.4377     1.7945 H       
  34 H34            0.8908     2.5983     1.8246 H       
  35 H35            6.7107    -3.6491    -0.0487 H       
  36 H36            6.1452    -5.9080    -1.0045 H       
  37 H37            2.0112    -5.5479     1.6663 H       
  38 H38            3.4974    -3.6011     1.4340 H       
  39 H39            4.5759     1.9019     0.7224 H       
  40 H40            6.3037     1.5301     0.5117 H       
  41 H41            5.9715     1.3754    -1.9407 H       
  42 H42            4.2436     1.7473    -1.7301 H       
  43 H43            6.9484     5.6366    -2.6135 H       
  44 H44            5.3487     5.9793    -3.3149 H       
  45 H45            5.5553     5.9381    -1.5474 H       
  46 H46            5.0631     2.3248    -3.5475 H       
  47 H47            4.3903     3.8337    -4.2099 H       
  48 H48            6.1182     3.4618    -4.4205 H       
@<TRIPOS>BOND
   1    1    2 ar
   2    1    6 ar
   3    2    3 ar
   4    2   32 1
   5    3    4 ar
   6    3   31 1
   7    4    5 ar
   8    4    7 1
   9    5    6 ar
  10    5   33 1
  11    6   34 1
  12    7   15 2
  13    7   18 1
  14    8    9 1
  15    8   16 1
  16    8   35 1
  17    9   10 ar
  18    9   14 ar
  19   10   11 ar
  20   10   36 1
  21   11   12 ar
  22   11   21 1
  23   12   13 ar
  24   12   23 1
  25   13   14 ar
  26   13   37 1
  27   14   38 1
  28   15   16 1
  29   16   17 2
  30   17   18 1
  31   18   19 1
  32   19   20 1
  33   19   39 1
  34   19   40 1
  35   20   26 1
  36   20   41 1
  37   20   42 1
  38   21   22 1
  39   22   23 1
  40   22   24 1
  41   22   25 1
  42   26   27 2
  43   26   28 am
  44   28   29 1
  45   28   30 1
  46   29   43 1
  47   29   44 1
  48   29   45 1
  49   30   46 1
  50   30   47 1
  51   30   48 1

#	End of record

