#	Name: ASD01510030
#	Creating user name:	WinNT
#	Creation time:	15. 06. 2019 19:21

#	Modifying user name:	WinNT
#	Modification time:	15. 06. 2019 19:21

#	Program:	/corina/corina34_cracker 3.40 0067  02.08.2006

@<TRIPOS>MOLECULE
ASD01510030
  83   86    0    0    0
SMALL
NO_CHARGES


@<TRIPOS>ATOM
   1 C1             0.3063     2.0236    -0.6254 C.3     
   2 C2             0.4435     0.5016    -0.5519 C.3     
   3 O3             0.9871     0.0124    -1.7796 O.3     
   4 C4             1.1738    -1.3272    -1.8799 C.ar    
   5 N5             0.8578    -2.1290    -0.8685 N.ar    
   6 C6             1.0369    -3.4380    -0.9582 C.ar    
   7 N7             1.5344    -4.0014    -2.0486 N.ar    
   8 C8             1.8741    -3.2653    -3.1014 C.ar    
   9 C9             1.6947    -1.8831    -3.0482 C.ar    
  10 S10            2.1289    -0.8630    -4.4178 S.3     
  11 C11            0.6034    -0.8689    -5.2994 C.ar    
  12 N12            0.5108    -0.1899    -6.4338 N.ar    
  13 C13           -0.6246    -0.1722    -7.1259 C.ar    
  14 N14           -0.7133     0.5426    -8.3159 N.am    
  15 C15            0.3198     1.3074    -8.7212 C.2     
  16 O16            1.2883     1.4474    -8.0049 O.2     
  17 C17            0.2716     1.9884   -10.0647 C.3     
  18 C18           -1.7227    -0.8785    -6.6442 C.ar    
  19 C19           -1.5878    -1.5797    -5.4497 C.ar    
  20 N20           -0.4202    -1.5565    -4.8138 N.ar    
  21 N21           -2.6588    -2.2997    -4.9306 N.am    
  22 C22           -2.4902    -3.0582    -3.8293 C.2     
  23 O23           -1.4319    -3.0413    -3.2376 O.2     
  24 C24           -3.6171    -3.9273    -3.3334 C.3     
  25 O25            2.3828    -3.8504    -4.2142 O.3     
  26 C26            2.5295    -5.2717    -4.1906 C.3     
  27 C27            3.1137    -5.7463    -5.5226 C.3     
  28 N28            0.6947    -4.2407     0.1190 N.pl3   
  29 C29            0.8846    -5.6912     0.0412 C.3     
  30 C30            2.2625    -6.0449     0.5386 C.ar    
  31 C31            2.4624    -6.3229     1.8782 C.ar    
  32 C32            3.7245    -6.6474     2.3367 C.ar    
  33 C33            4.7919    -6.6941     1.4517 C.ar    
  34 C34            4.5887    -6.4147     0.1081 C.ar    
  35 C35            3.3236    -6.0963    -0.3463 C.ar    
  36 O36            6.0345    -7.0126     1.9004 O.3     
  37 C37            7.0859    -7.0416     0.9329 C.3     
  38 C38            0.1433    -3.6383     1.3353 C.3     
  39 C39           -1.3586    -3.5754     1.2282 C.ar    
  40 C40           -2.1275    -4.6320     1.6800 C.ar    
  41 C41           -3.5045    -4.5769     1.5830 C.ar    
  42 C42           -4.1156    -3.4601     1.0318 C.ar    
  43 C43           -3.3419    -2.4012     0.5792 C.ar    
  44 C44           -1.9656    -2.4589     0.6836 C.ar    
  45 O45           -5.4700    -3.4036     0.9348 O.3     
  46 C46           -6.0304    -2.2231     0.3566 C.3     
  47 H47            1.2871     2.4692    -0.7916 H       
  48 H48           -0.3576     2.2892    -1.4481 H       
  49 H49           -0.1083     2.3967     0.3110 H       
  50 H50            1.1074     0.2359     0.2708 H       
  51 H51           -0.5373     0.0560    -0.3857 H       
  52 H52           -1.5186     0.4906    -8.8540 H       
  53 H53           -0.1790     2.9749    -9.9559 H       
  54 H54            1.2836     2.0923   -10.4559 H       
  55 H55           -0.3248     1.3905   -10.7539 H       
  56 H56           -2.6578    -0.8821    -7.1846 H       
  57 H57           -3.5269    -2.2558    -5.3611 H       
  58 H58           -3.5494    -4.9106    -3.7987 H       
  59 H59           -3.5457    -4.0320    -2.2507 H       
  60 H60           -4.5711    -3.4679    -3.5919 H       
  61 H61            3.1995    -5.5544    -3.3786 H       
  62 H62            1.5551    -5.7349    -4.0355 H       
  63 H63            3.2255    -6.8304    -5.5046 H       
  64 H64            2.4436    -5.4637    -6.3345 H       
  65 H65            4.0880    -5.2831    -5.6776 H       
  66 H66            0.1367    -6.1892     0.6583 H       
  67 H67            0.7772    -6.0167    -0.9934 H       
  68 H68            1.6312    -6.2860     2.5668 H       
  69 H69            3.8802    -6.8641     3.3832 H       
  70 H70            5.4180    -6.4505    -0.5828 H       
  71 H71            3.1649    -5.8787    -1.3922 H       
  72 H72            6.8533    -7.7800     0.1656 H       
  73 H73            7.1836    -6.0582     0.4731 H       
  74 H74            8.0226    -7.3086     1.4222 H       
  75 H75            0.4210    -4.2432     2.1985 H       
  76 H76            0.5415    -2.6307     1.4544 H       
  77 H77           -1.6512    -5.5014     2.1088 H       
  78 H78           -4.1046    -5.4026     1.9357 H       
  79 H79           -3.8153    -1.5308     0.1497 H       
  80 H80           -1.3628    -1.6349     0.3314 H       
  81 H81           -7.1169    -2.3076     0.3391 H       
  82 H82           -5.7428    -1.3557     0.9508 H       
  83 H83           -5.6587    -2.1055    -0.6614 H       
@<TRIPOS>BOND
   1    1    2 1
   2    1   47 1
   3    1   48 1
   4    1   49 1
   5    2    3 1
   6    2   50 1
   7    2   51 1
   8    3    4 1
   9    4    5 ar
  10    4    9 ar
  11    5    6 ar
  12    6    7 ar
  13    6   28 1
  14    7    8 ar
  15    8    9 ar
  16    8   25 1
  17    9   10 1
  18   10   11 1
  19   11   12 ar
  20   11   20 ar
  21   12   13 ar
  22   13   14 1
  23   13   18 ar
  24   14   15 am
  25   14   52 1
  26   15   16 2
  27   15   17 1
  28   17   53 1
  29   17   54 1
  30   17   55 1
  31   18   19 ar
  32   18   56 1
  33   19   20 ar
  34   19   21 1
  35   21   22 am
  36   21   57 1
  37   22   23 2
  38   22   24 1
  39   24   58 1
  40   24   59 1
  41   24   60 1
  42   25   26 1
  43   26   27 1
  44   26   61 1
  45   26   62 1
  46   27   63 1
  47   27   64 1
  48   27   65 1
  49   28   29 1
  50   28   38 1
  51   29   30 1
  52   29   66 1
  53   29   67 1
  54   30   31 ar
  55   30   35 ar
  56   31   32 ar
  57   31   68 1
  58   32   33 ar
  59   32   69 1
  60   33   34 ar
  61   33   36 1
  62   34   35 ar
  63   34   70 1
  64   35   71 1
  65   36   37 1
  66   37   72 1
  67   37   73 1
  68   37   74 1
  69   38   39 1
  70   38   75 1
  71   38   76 1
  72   39   40 ar
  73   39   44 ar
  74   40   41 ar
  75   40   77 1
  76   41   42 ar
  77   41   78 1
  78   42   43 ar
  79   42   45 1
  80   43   44 ar
  81   43   79 1
  82   44   80 1
  83   45   46 1
  84   46   81 1
  85   46   82 1
  86   46   83 1

#	End of record

