#	Name: ASD01208733
#	Creating user name:	WinNT
#	Creation time:	15. 06. 2019 19:10

#	Modifying user name:	WinNT
#	Modification time:	15. 06. 2019 19:10

#	Program:	/corina/corina34_cracker 3.40 0067  02.08.2006

@<TRIPOS>MOLECULE
ASD01208733
  59   62    0    0    0
SMALL
NO_CHARGES


@<TRIPOS>ATOM
   1 C1            -0.0506     1.3603    -0.4067 C.2     
   2 C2             0.0243     0.0686     0.2967 C.ar    
   3 C3             1.2621    -0.5718     0.4644 C.ar    
   4 C4             1.3233    -1.7857     1.1267 C.ar    
   5 C5             0.1645    -2.3655     1.6222 C.ar    
   6 C6            -1.0632    -1.7319     1.4567 C.ar    
   7 C7            -1.1365    -0.5222     0.8052 C.ar    
   8 O8             0.9614     1.8744    -0.8437 O.2     
   9 N9            -1.2413     1.9700    -0.5710 N.am    
  10 O10            2.3940    -0.0034    -0.0212 O.3     
  11 C11            3.5509    -0.7093     0.0680 C.ar    
  12 C12            3.9125    -1.5787    -0.9533 C.ar    
  13 C13            5.0854    -2.2971    -0.8662 C.ar    
  14 C14            5.9109    -2.1497     0.2503 C.ar    
  15 C15            5.5442    -1.2745     1.2746 C.ar    
  16 C16            4.3723    -0.5558     1.1777 C.ar    
  17 O17            8.0562    -2.8751     1.3621 O.3     
  18 C18            7.1691    -2.9185     0.3479 C.2     
  19 N19            7.6312    -3.7713    -0.5367 N.2     
  20 N20            8.7500    -4.2506    -0.1196 N.2     
  21 C21            9.0440    -3.7276     1.0376 C.2     
  22 C22           10.2700    -4.0241     1.8623 C.3     
  23 C23           11.3898    -3.0550     1.4779 C.3     
  24 O24           12.5524    -3.3362     2.2599 O.3     
  25 C25           13.6632    -2.4827     1.9775 C.3     
  26 S26           -2.7859     4.1081    -1.5289 S.3     
  27 C27           -1.3120     3.1893    -1.2349 C.2     
  28 N28           -0.3025     3.8325    -1.7366 N.2     
  29 C29           -0.5609     4.9811    -2.3338 C.2     
  30 C30           -1.8436     5.3497    -2.3515 C.2     
  31 F31           -2.3351     6.4798    -2.9051 F       
  32 O32            0.2285    -3.5560     2.2706 O.3     
  33 C33           -1.0018    -4.0975     2.7557 C.3     
  34 C34           -0.7318    -5.4324     3.4528 C.3     
  35 C35           -2.0292    -6.0034     3.9644 C.2     
  36 C36           -2.3950    -7.2124     3.6168 C.2     
  37 H37            2.2736    -2.2819     1.2575 H       
  38 H38           -1.9613    -2.1891     1.8450 H       
  39 H39           -2.0908    -0.0314     0.6828 H       
  40 H40           -2.0489     1.5581    -0.2259 H       
  41 H41            3.2735    -1.6921    -1.8166 H       
  42 H42            5.3655    -2.9733    -1.6603 H       
  43 H43            6.1801    -1.1580     2.1397 H       
  44 H44            4.0901     0.1246     1.9675 H       
  45 H45           10.0339    -3.9055     2.9198 H       
  46 H46           10.5950    -5.0475     1.6751 H       
  47 H47           11.6259    -3.1736     0.4204 H       
  48 H48           11.0648    -2.0316     1.6650 H       
  49 H49           13.9464    -2.5895     0.9303 H       
  50 H50           13.3854    -1.4474     2.1750 H       
  51 H51           14.5051    -2.7603     2.6117 H       
  52 H52            0.2162     5.5844    -2.7793 H       
  53 H53           -1.4506    -3.4017     3.4645 H       
  54 H54           -1.6838    -4.2554     1.9201 H       
  55 H55           -0.2830    -6.1283     2.7440 H       
  56 H56           -0.0498    -5.2746     4.2884 H       
  57 H57           -2.6575    -5.4160     4.6175 H       
  58 H58           -1.7667    -7.7998     2.9636 H       
  59 H59           -3.3248    -7.6216     3.9834 H       
@<TRIPOS>BOND
   1    1    2 1
   2    1    8 2
   3    1    9 am
   4    2    3 ar
   5    2    7 ar
   6    3    4 ar
   7    3   10 1
   8    4    5 ar
   9    4   37 1
  10    5    6 ar
  11    5   32 1
  12    6    7 ar
  13    6   38 1
  14    7   39 1
  15    9   27 1
  16    9   40 1
  17   10   11 1
  18   11   12 ar
  19   11   16 ar
  20   12   13 ar
  21   12   41 1
  22   13   14 ar
  23   13   42 1
  24   14   15 ar
  25   14   18 1
  26   15   16 ar
  27   15   43 1
  28   16   44 1
  29   17   18 1
  30   17   21 1
  31   18   19 2
  32   19   20 1
  33   20   21 2
  34   21   22 1
  35   22   23 1
  36   22   45 1
  37   22   46 1
  38   23   24 1
  39   23   47 1
  40   23   48 1
  41   24   25 1
  42   25   49 1
  43   25   50 1
  44   25   51 1
  45   26   27 1
  46   26   30 1
  47   27   28 2
  48   28   29 1
  49   29   30 2
  50   29   52 1
  51   30   31 1
  52   32   33 1
  53   33   34 1
  54   33   53 1
  55   33   54 1
  56   34   35 1
  57   34   55 1
  58   34   56 1
  59   35   36 2
  60   35   57 1
  61   36   58 1
  62   36   59 1

#	End of record

