#	Name: ASD01815874
#	Creating user name:	WinNT
#	Creation time:	15. 06. 2019 19:34

#	Modifying user name:	WinNT
#	Modification time:	15. 06. 2019 19:34

#	Program:	/corina/corina34_cracker 3.40 0067  02.08.2006

@<TRIPOS>MOLECULE
ASD01815874
  58   63    0    0    0
SMALL
NO_CHARGES


@<TRIPOS>ATOM
   1 C1            -0.0167     1.3813     0.0096 C.ar    
   2 C2             0.0021    -0.0041     0.0020 C.ar    
   3 C3             1.1984    -0.6909    -0.0127 C.ar    
   4 C4             2.4015     0.0059    -0.0200 C.ar    
   5 C5             2.3790     1.4106    -0.0127 C.ar    
   6 C6             1.1663     2.0916     0.0022 C.ar    
   7 N7             3.6053    -0.6772    -0.0338 N.pl3   
   8 C8             4.7970    -0.0586    -0.0414 C.2     
   9 C9             4.9000     1.3102    -0.0359 C.2     
  10 C10            3.6670     2.1301    -0.0207 C.2     
  11 C11            5.9971     2.2729    -0.0414 C.2     
  12 N12            5.4246     3.4960    -0.0308 N.am    
  13 N13            4.0323     3.3799    -0.0185 N.2     
  14 C14            6.1268     4.7086    -0.0320 C.ar    
  15 O15            7.1915     2.0228    -0.0532 O.2     
  16 C16            3.5779    -2.1420    -0.0399 C.3     
  17 C17            3.5558    -2.6380    -1.4627 C.ar    
  18 C18            4.7447    -2.8872    -2.1242 C.ar    
  19 C19            4.7303    -3.3417    -3.4273 C.ar    
  20 C20            3.5150    -3.5493    -4.0766 C.ar    
  21 C21            2.3203    -3.2967    -3.4055 C.ar    
  22 C22            2.3464    -2.8479    -2.1005 C.ar    
  23 C23            3.4932    -4.0373    -5.4778 C.ar    
  24 C24            2.2779    -4.2450    -6.1270 C.ar    
  25 C25            2.2635    -4.6991    -7.4303 C.ar    
  26 C26            3.4525    -4.9483    -8.0917 C.ar    
  27 C27            4.6617    -4.7443    -7.4519 C.ar    
  28 C28            4.6880    -4.2841    -6.1509 C.ar    
  29 C29            5.8877     5.6554     0.9618 C.ar    
  30 C30            7.0664     4.9676    -1.0198 C.ar    
  31 C31            7.7575     6.1640    -1.0188 C.ar    
  32 C32            7.5158     7.1055    -0.0350 C.ar    
  33 C33            6.5851     6.8526     0.9554 C.ar    
  34 O34            4.9720     5.4052     1.9352 O.3     
  35 C35            4.7793     6.4214     2.9212 C.3     
  36 H36           -0.9602     1.9068     0.0170 H       
  37 H37           -0.9289    -0.5515     0.0080 H       
  38 H38            1.2004    -1.7709    -0.0181 H       
  39 H39            1.1506     3.1715     0.0081 H       
  40 H40            5.6983    -0.6536    -0.0517 H       
  41 H41            4.4655    -2.5241     0.4643 H       
  42 H42            2.6860    -2.4909     0.4805 H       
  43 H43            5.6861    -2.7256    -1.6201 H       
  44 H44            5.6592    -3.5356    -3.9430 H       
  45 H45            1.3756    -3.4560    -3.9040 H       
  46 H46            1.4210    -2.6517    -1.5794 H       
  47 H47            1.3490    -4.0514    -5.6113 H       
  48 H48            1.3221    -4.8604    -7.9345 H       
  49 H49            3.4366    -5.3038    -9.1114 H       
  50 H50            5.5871    -4.9408    -7.9729 H       
  51 H51            5.6327    -4.1249    -5.6524 H       
  52 H52            7.2577     4.2339    -1.7889 H       
  53 H53            8.4885     6.3644    -1.7881 H       
  54 H54            8.0587     8.0391    -0.0381 H       
  55 H55            6.3985     7.5902     1.7220 H       
  56 H56            4.4480     7.3398     2.4365 H       
  57 H57            4.0241     6.0953     3.6363 H       
  58 H58            5.7187     6.6044     3.4428 H       
@<TRIPOS>BOND
   1    1    2 ar
   2    1    6 ar
   3    1   36 1
   4    2    3 ar
   5    2   37 1
   6    3    4 ar
   7    3   38 1
   8    4    5 ar
   9    4    7 1
  10    5    6 ar
  11    5   10 1
  12    6   39 1
  13    7    8 1
  14    7   16 1
  15    8    9 2
  16    8   40 1
  17    9   10 1
  18    9   11 1
  19   10   13 2
  20   11   12 am
  21   11   15 2
  22   12   13 1
  23   12   14 1
  24   14   29 ar
  25   14   30 ar
  26   16   17 1
  27   16   41 1
  28   16   42 1
  29   17   18 ar
  30   17   22 ar
  31   18   19 ar
  32   18   43 1
  33   19   20 ar
  34   19   44 1
  35   20   21 ar
  36   20   23 1
  37   21   22 ar
  38   21   45 1
  39   22   46 1
  40   23   24 ar
  41   23   28 ar
  42   24   25 ar
  43   24   47 1
  44   25   26 ar
  45   25   48 1
  46   26   27 ar
  47   26   49 1
  48   27   28 ar
  49   27   50 1
  50   28   51 1
  51   29   34 1
  52   29   33 ar
  53   30   31 ar
  54   30   52 1
  55   31   32 ar
  56   31   53 1
  57   32   33 ar
  58   32   54 1
  59   33   55 1
  60   34   35 1
  61   35   56 1
  62   35   57 1
  63   35   58 1

#	End of record

