#	Name: ASD02039342
#	Creating user name:	WinNT
#	Creation time:	15. 06. 2019 20:18

#	Modifying user name:	WinNT
#	Modification time:	15. 06. 2019 20:18

#	Program:	/corina/corina34_cracker 3.40 0067  02.08.2006

@<TRIPOS>MOLECULE
ASD02039342
  51   53    0    0    0
SMALL
NO_CHARGES


@<TRIPOS>ATOM
   1 C1             0.1354     1.1846    -0.3173 C.ar    
   2 C2             0.5169    -0.0935     0.0487 C.ar    
   3 C3            -0.3876    -1.1374    -0.0192 C.ar    
   4 C4            -2.0719     0.3822    -0.8144 C.ar    
   5 C5            -1.1534     1.4273    -0.7482 C.ar    
   6 C6            -3.4582     0.6371    -1.2773 C.ar    
   7 C7             1.1275     2.3163    -0.2397 C.3     
   8 N8             1.9438     2.3344    -1.4561 N.am    
   9 C9             1.4505     3.0090    -2.6593 C.3     
  10 C10            3.1486     1.7304    -1.4681 C.2     
  11 C11            3.6000     0.9635    -0.2940 C.2     
  12 C12            4.7327     0.2078    -0.2113 C.2     
  13 N13            2.9674     0.8848     0.9046 N.2     
  14 C14            3.6600     0.1182     1.6965 C.2     
  15 N15            4.7629    -0.3196     1.0352 N.pl3   
  16 O16            3.8632     1.8185    -2.4483 O.2     
  17 C17            5.7988    -1.2045     1.5740 C.3     
  18 C18           -4.0236    -0.1644    -2.2673 C.ar    
  19 C19           -1.6796    -0.9080    -0.4541 C.ar    
  20 C20            2.4337     4.1080    -3.0672 C.3     
  21 C21            1.3204     1.9935    -3.7963 C.3     
  22 F22           -2.5631    -1.9279    -0.5203 F       
  23 C23           -4.2017     1.6752    -0.7196 C.ar    
  24 C24           -5.4913     1.9076    -1.1537 C.ar    
  25 C25           -6.0455     1.1123    -2.1402 C.ar    
  26 C26           -5.3137     0.0770    -2.6937 C.ar    
  27 C27           -5.9244    -0.7853    -3.7682 C.3     
  28 H28            1.5255    -0.2770     0.3887 H       
  29 H29           -0.0841    -2.1334     0.2676 H       
  30 H30           -1.4515     2.4276    -1.0255 H       
  31 H31            0.5934     3.2619    -0.1464 H       
  32 H32            1.7718     2.1757     0.6282 H       
  33 H33            0.4757     3.4514    -2.4540 H       
  34 H34            5.4649     0.0585    -0.9910 H       
  35 H35            3.4011    -0.1277     2.7158 H       
  36 H36            5.5305    -2.2419     1.3739 H       
  37 H37            6.7533    -0.9779     1.0988 H       
  38 H38            5.8833    -1.0520     2.6499 H       
  39 H39           -3.4530    -0.9727    -2.7003 H       
  40 H40            3.4243     3.6755    -3.2076 H       
  41 H41            2.1014     4.5653    -3.9991 H       
  42 H42            2.4759     4.8663    -2.2852 H       
  43 H43            0.5860     1.2354    -3.5241 H       
  44 H44            0.9970     2.5035    -4.7037 H       
  45 H45            2.2856     1.5181    -3.9710 H       
  46 H46           -3.7701     2.2965     0.0510 H       
  47 H47           -6.0687     2.7117    -0.7219 H       
  48 H48           -7.0549     1.2975    -2.4766 H       
  49 H49           -5.7102    -0.3535    -4.7459 H       
  50 H50           -5.5013    -1.7883    -3.7134 H       
  51 H51           -7.0033    -0.8376    -3.6226 H       
@<TRIPOS>BOND
   1    1    2 ar
   2    1    7 1
   3    1    5 ar
   4    2    3 ar
   5    2   28 1
   6    3   19 ar
   7    3   29 1
   8    4    5 ar
   9    4    6 1
  10    4   19 ar
  11    5   30 1
  12    6   18 ar
  13    6   23 ar
  14    7    8 1
  15    7   31 1
  16    7   32 1
  17    8    9 1
  18    8   10 am
  19    9   21 1
  20    9   20 1
  21    9   33 1
  22   10   11 1
  23   10   16 2
  24   11   12 2
  25   11   13 1
  26   12   15 1
  27   12   34 1
  28   13   14 2
  29   14   15 1
  30   14   35 1
  31   15   17 1
  32   17   36 1
  33   17   37 1
  34   17   38 1
  35   18   26 ar
  36   18   39 1
  37   19   22 1
  38   20   40 1
  39   20   41 1
  40   20   42 1
  41   21   43 1
  42   21   44 1
  43   21   45 1
  44   23   24 ar
  45   23   46 1
  46   24   25 ar
  47   24   47 1
  48   25   26 ar
  49   25   48 1
  50   26   27 1
  51   27   49 1
  52   27   50 1
  53   27   51 1

#	End of record

