#	Name: ASD03331716
#	Creating user name:	WinNT
#	Creation time:	15. 06. 2019 20:39

#	Modifying user name:	WinNT
#	Modification time:	15. 06. 2019 20:39

#	Program:	/corina/corina34_cracker 3.40 0067  02.08.2006

@<TRIPOS>MOLECULE
ASD03331716
  52   54    0    0    0
SMALL
NO_CHARGES


@<TRIPOS>ATOM
   1 C1             0.2790     1.4939     0.1343 C.3     
   2 N2             0.2009     0.0274     0.0803 N.3     
   3 C3             0.5981    -0.4791    -1.2459 C.3     
   4 C4             1.9137     0.1580    -1.6121 C.2     
   5 N5             2.4252     1.2532    -0.9793 N.pl3   
   6 C6             1.7477     1.9375     0.1254 C.3     
   7 C7             2.7992    -0.1978    -2.5756 C.2     
   8 N8             3.8349     0.6709    -2.5228 N.2     
   9 C9             3.6159     1.5441    -1.5652 C.2     
  10 C10            4.5152     2.6570    -1.1886 C.ar    
  11 C11            2.6589    -1.3276    -3.5112 C.2     
  12 O12            1.6758    -2.0418    -3.4591 O.2     
  13 N13            3.6200    -1.5696    -4.4245 N.am    
  14 C14            3.4804    -2.6929    -5.3546 C.3     
  15 C15            2.6484    -2.2551    -6.5617 C.3     
  16 C16            4.8449    -3.1336    -5.8183 C.2     
  17 N17            5.0471    -4.4102    -6.2001 N.am    
  18 O18            5.7612    -2.3395    -5.8478 O.2     
  19 C19            6.3949    -4.8657    -6.5495 C.3     
  20 C20            3.2817    -1.0145    -7.1948 C.3     
  21 C21            2.6066    -3.3874    -7.5899 C.3     
  22 C22            1.2250    -1.9258    -6.1076 C.3     
  23 C23            5.5522     3.0617    -2.0356 C.ar    
  24 N24            6.3319     4.0604    -1.6597 N.ar    
  25 C25            6.1431     4.6714    -0.5067 C.ar    
  26 N26            5.1786     4.3219     0.3214 N.ar    
  27 C27            4.3487     3.3377     0.0220 C.ar    
  28 H28           -0.2321     1.9160    -0.7309 H       
  29 H29           -0.2011     1.8489     1.0462 H       
  30 H30            0.7588    -0.3915     0.8093 H       
  31 H31            0.7113    -1.5625    -1.2079 H       
  32 H32           -0.1584    -0.2126    -1.9840 H       
  33 H33            1.8052     3.0162    -0.0195 H       
  34 H34            2.2193     1.6670     1.0701 H       
  35 H35            4.4041    -1.0001    -4.4660 H       
  36 H36            2.9824    -3.5216    -4.8514 H       
  37 H37            4.3001    -5.0275    -6.2437 H       
  38 H38            6.3613    -5.9182    -6.8308 H       
  39 H39            6.7716    -4.2777    -7.3864 H       
  40 H40            7.0548    -4.7400    -5.6910 H       
  41 H41            4.2958    -1.2491    -7.5183 H       
  42 H42            2.6889    -0.7026    -8.0547 H       
  43 H43            3.3115    -0.2079    -6.4622 H       
  44 H44            2.2515    -4.2999    -7.1112 H       
  45 H45            1.9313    -3.1164    -8.4015 H       
  46 H46            3.6072    -3.5524    -7.9896 H       
  47 H47            1.2548    -1.1192    -5.3751 H       
  48 H48            0.6322    -1.6139    -6.9675 H       
  49 H49            0.7738    -2.8096    -5.6566 H       
  50 H50            5.7133     2.5658    -2.9815 H       
  51 H51            6.7996     5.4838    -0.2317 H       
  52 H52            3.5610     3.0571     0.7055 H       
@<TRIPOS>BOND
   1    1    2 1
   2    1    6 1
   3    1   28 1
   4    1   29 1
   5    2    3 1
   6    2   30 1
   7    3    4 1
   8    3   31 1
   9    3   32 1
  10    4    5 1
  11    4    7 2
  12    5    6 1
  13    5    9 1
  14    6   33 1
  15    6   34 1
  16    7    8 1
  17    7   11 1
  18    8    9 2
  19    9   10 1
  20   10   23 ar
  21   10   27 ar
  22   11   12 2
  23   11   13 am
  24   13   14 1
  25   13   35 1
  26   14   15 1
  27   14   16 1
  28   14   36 1
  29   15   20 1
  30   15   21 1
  31   15   22 1
  32   16   17 am
  33   16   18 2
  34   17   19 1
  35   17   37 1
  36   19   38 1
  37   19   39 1
  38   19   40 1
  39   20   41 1
  40   20   42 1
  41   20   43 1
  42   21   44 1
  43   21   45 1
  44   21   46 1
  45   22   47 1
  46   22   48 1
  47   22   49 1
  48   23   24 ar
  49   23   50 1
  50   24   25 ar
  51   25   26 ar
  52   25   51 1
  53   26   27 ar
  54   27   52 1

#	End of record

