#	Name: ASD01880406
#	Creating user name:	WinNT
#	Creation time:	15. 06. 2019 19:40

#	Modifying user name:	WinNT
#	Modification time:	15. 06. 2019 19:40

#	Program:	/corina/corina34_cracker 3.40 0067  02.08.2006

@<TRIPOS>MOLECULE
ASD01880406
  37   39    0    0    0
SMALL
NO_CHARGES


@<TRIPOS>ATOM
   1 C1            -0.0158     1.3166     0.0093 C.ar    
   2 N2             0.0021    -0.0041     0.0020 N.ar    
   3 C3             1.1445    -0.6746    -0.0125 C.ar    
   4 C4             2.3648     0.0485    -0.0202 C.ar    
   5 C5             2.2891     1.4440    -0.0120 C.ar    
   6 N6             1.0857     2.0309     0.0026 N.ar    
   7 C7             3.7373    -0.4211    -0.0353 C.2     
   8 C8             4.6485     0.5323    -0.0385 C.2     
   9 S9             3.9102     2.1228    -0.0232 S.3     
  10 C10            6.1352     0.2862    -0.0535 C.3     
  11 C11            6.7447     0.9212    -1.3050 C.3     
  12 N12            1.1474    -2.0578    -0.0195 N.pl3   
  13 C13           -0.1198    -2.7930    -0.0109 C.3     
  14 C14            6.7676     0.9078     1.1934 C.3     
  15 C15            0.1587    -4.2740    -0.0210 C.ar    
  16 C16            0.2980    -4.9593     1.1714 C.ar    
  17 C17            0.5534    -6.3178     1.1621 C.ar    
  18 C18            0.6691    -6.9911    -0.0397 C.ar    
  19 C19            0.5289    -6.3060    -1.2321 C.ar    
  20 C20            0.2691    -4.9483    -1.2227 C.ar    
  21 H21           -0.9682     1.8258     0.0165 H       
  22 H22            3.9931    -1.4704    -0.0429 H       
  23 H23            6.3258    -0.7869    -0.0610 H       
  24 H24            6.5541     1.9944    -1.2975 H       
  25 H25            7.8200     0.7432    -1.3158 H       
  26 H26            6.2942     0.4784    -2.1933 H       
  27 H27            1.9884    -2.5410    -0.0301 H       
  28 H28           -0.6832    -2.5354     0.8859 H       
  29 H29           -0.7005    -2.5264    -0.8939 H       
  30 H30            6.3334     0.4555     2.0849 H       
  31 H31            7.8429     0.7298     1.1825 H       
  32 H32            6.5770     1.9810     1.2008 H       
  33 H33            0.2076    -4.4333     2.1103 H       
  34 H34            0.6630    -6.8531     2.0937 H       
  35 H35            0.8693    -8.0524    -0.0470 H       
  36 H36            0.6196    -6.8320    -2.1710 H       
  37 H37            0.1596    -4.4130    -2.1543 H       
@<TRIPOS>BOND
   1    1    2 ar
   2    1    6 ar
   3    1   21 1
   4    2    3 ar
   5    3    4 ar
   6    3   12 1
   7    4    5 ar
   8    4    7 1
   9    5    6 ar
  10    5    9 1
  11    7    8 2
  12    7   22 1
  13    8    9 1
  14    8   10 1
  15   10   11 1
  16   10   14 1
  17   10   23 1
  18   11   24 1
  19   11   25 1
  20   11   26 1
  21   12   13 1
  22   12   27 1
  23   13   15 1
  24   13   28 1
  25   13   29 1
  26   14   30 1
  27   14   31 1
  28   14   32 1
  29   15   16 ar
  30   15   20 ar
  31   16   17 ar
  32   16   33 1
  33   17   18 ar
  34   17   34 1
  35   18   19 ar
  36   18   35 1
  37   19   20 ar
  38   19   36 1
  39   20   37 1

#	End of record

