#	Name: ASD00310283
#	Creating user name:	WinNT
#	Creation time:	15. 06. 2019 18:34

#	Modifying user name:	WinNT
#	Modification time:	15. 06. 2019 18:34

#	Program:	/corina/corina34_cracker 3.40 0067  02.08.2006

@<TRIPOS>MOLECULE
ASD00310283
  39   40    0    0    0
SMALL
NO_CHARGES


@<TRIPOS>ATOM
   1 N1            -0.0179     1.4653     0.0101 N.3     
   2 C2             0.0021    -0.0041     0.0020 C.3     
   3 C3             0.7337    -0.4948    -1.2495 C.3     
   4 N4             2.0995     0.0476    -1.2596 N.3     
   5 C5             2.0796     1.5170    -1.2515 C.3     
   6 C6             1.3479     2.0078    -0.0000 C.3     
   7 C7             2.8599    -0.4622    -2.4084 C.3     
   8 C8            -0.7783     1.9752     1.1589 C.3     
   9 C9            -0.5713     3.4865     1.2773 C.3     
  10 C10           -1.3634     4.0176     2.4738 C.3     
  11 O11           -1.1701     5.4291     2.5843 O.3     
  12 C12           -1.8094     6.0615     3.6034 C.ar    
  13 C13           -1.6661     7.4313     3.7697 C.ar    
  14 C14           -2.3167     8.0721     4.8062 C.ar    
  15 C15           -3.1105     7.3488     5.6783 C.ar    
  16 C16           -3.2548     5.9827     5.5142 C.ar    
  17 C17           -2.6108     5.3390     4.4754 C.ar    
  18 Br18          -3.9990     8.2284     7.0970 Br      
  19 H19            0.5192    -0.3656     0.8908 H       
  20 H20           -1.0204    -0.3816    -0.0030 H       
  21 H21            0.7751    -1.5840    -1.2430 H       
  22 H22            0.2013    -0.1561    -2.1383 H       
  23 H23            3.1021     1.8946    -1.2465 H       
  24 H24            1.5625     1.8786    -2.1404 H       
  25 H25            1.3066     3.0970    -0.0066 H       
  26 H26            1.8803     1.6690     0.8887 H       
  27 H27            2.3612    -0.1705    -3.3327 H       
  28 H28            3.8668    -0.0451    -2.3917 H       
  29 H29            2.9160    -1.5494    -2.3534 H       
  30 H30           -1.8380     1.7637     1.0160 H       
  31 H31           -0.4303     1.4884     2.0699 H       
  32 H32            0.4883     3.6981     1.4202 H       
  33 H33           -0.9194     3.9734     0.3662 H       
  34 H34           -2.4230     3.8060     2.3308 H       
  35 H35           -1.0153     3.5307     3.3848 H       
  36 H36           -1.0459     7.9962     3.0895 H       
  37 H37           -2.2054     9.1385     4.9360 H       
  38 H38           -3.8750     5.4198     6.1961 H       
  39 H39           -2.7273     4.2732     4.3449 H       
@<TRIPOS>BOND
   1    1    2 1
   2    1    6 1
   3    1    8 1
   4    2    3 1
   5    2   19 1
   6    2   20 1
   7    3    4 1
   8    3   21 1
   9    3   22 1
  10    4    5 1
  11    4    7 1
  12    5    6 1
  13    5   23 1
  14    5   24 1
  15    6   25 1
  16    6   26 1
  17    7   27 1
  18    7   28 1
  19    7   29 1
  20    8    9 1
  21    8   30 1
  22    8   31 1
  23    9   10 1
  24    9   32 1
  25    9   33 1
  26   10   11 1
  27   10   34 1
  28   10   35 1
  29   11   12 1
  30   12   13 ar
  31   12   17 ar
  32   13   14 ar
  33   13   36 1
  34   14   15 ar
  35   14   37 1
  36   15   16 ar
  37   15   18 1
  38   16   17 ar
  39   16   38 1
  40   17   39 1

#	End of record

