#	Name: ASD01420047
#	Creating user name:	WinNT
#	Creation time:	15. 06. 2019 19:20

#	Modifying user name:	WinNT
#	Modification time:	15. 06. 2019 19:20

#	Program:	/corina/corina34_cracker 3.40 0067  02.08.2006

@<TRIPOS>MOLECULE
ASD01420047
  44   46    0    0    0
SMALL
NO_CHARGES


@<TRIPOS>ATOM
   1 C1            -0.0144     1.2120     0.0087 C.2     
   2 O2             0.2998     0.3315    -0.7692 O.2     
   3 C3             2.1588     1.0146     1.2575 C.3     
   4 N4             0.8505     1.6080     0.9634 N.am    
   5 C5             0.6636     2.7151     1.9066 C.3     
   6 C6             1.8888     2.7828     2.7828 C.ar    
   7 C7             2.2202     3.6340     3.8231 C.ar    
   8 C8             3.4264     3.4879     4.4805 C.ar    
   9 C9             4.3040     2.4898     4.0995 C.ar    
  10 C10            3.9736     1.6398     3.0618 C.ar    
  11 C11            2.7652     1.7860     2.4023 C.ar    
  12 C12           -1.3380     1.8498    -0.0965 C.ar    
  13 C13           -2.4903     1.0619    -0.2406 C.ar    
  14 C14           -3.7301     1.6692    -0.3382 C.ar    
  15 C15           -3.8312     3.0521    -0.2940 C.ar    
  16 C16           -2.6896     3.8347    -0.1511 C.ar    
  17 C17           -1.4520     3.2424    -0.0473 C.ar    
  18 O18           -5.0485     3.6441    -0.3909 O.3     
  19 O19           -2.3893    -0.2902    -0.2845 O.3     
  20 C20           -2.8097     5.3361    -0.1041 C.3     
  21 C21           -2.2569     5.8506     1.2266 C.3     
  22 C22           -2.4918     7.3591     1.3273 C.3     
  23 C23           -2.0127     5.9479    -1.2581 C.3     
  24 H24            2.0351    -0.0306     1.5408 H       
  25 H25            2.8027     1.0870     0.3810 H       
  26 H26            0.5484     3.6509     1.3597 H       
  27 H27           -0.2192     2.5333     2.5195 H       
  28 H28            1.5349     4.4138     4.1209 H       
  29 H29            3.6839     4.1531     5.2914 H       
  30 H30            5.2473     2.3749     4.6126 H       
  31 H31            4.6595     0.8604     2.7642 H       
  32 H32           -4.6192     1.0663    -0.4492 H       
  33 H33           -0.5688     3.8531     0.0680 H       
  34 H34           -5.4880     3.7813     0.4595 H       
  35 H35           -2.4460    -0.7172     0.5813 H       
  36 H36           -3.8581     5.6198    -0.1961 H       
  37 H37           -2.7649     5.3480     2.0496 H       
  38 H38           -1.1878     5.6450     1.2797 H       
  39 H39           -3.5610     7.5647     1.2742 H       
  40 H40           -2.0981     7.7256     2.2753 H       
  41 H41           -1.9839     7.8617     0.5043 H       
  42 H42           -2.0996     7.0339    -1.2241 H       
  43 H43           -0.9643     5.6642    -1.1661 H       
  44 H44           -2.4065     5.5814    -2.2061 H       
@<TRIPOS>BOND
   1    1    2 2
   2    1    4 am
   3    1   12 1
   4    3    4 1
   5    3   11 1
   6    3   24 1
   7    3   25 1
   8    4    5 1
   9    5    6 1
  10    5   26 1
  11    5   27 1
  12    6    7 ar
  13    6   11 ar
  14    7    8 ar
  15    7   28 1
  16    8    9 ar
  17    8   29 1
  18    9   10 ar
  19    9   30 1
  20   10   11 ar
  21   10   31 1
  22   12   13 ar
  23   12   17 ar
  24   13   14 ar
  25   13   19 1
  26   14   15 ar
  27   14   32 1
  28   15   16 ar
  29   15   18 1
  30   16   17 ar
  31   16   20 1
  32   17   33 1
  33   18   34 1
  34   19   35 1
  35   20   21 1
  36   20   23 1
  37   20   36 1
  38   21   22 1
  39   21   37 1
  40   21   38 1
  41   22   39 1
  42   22   40 1
  43   22   41 1
  44   23   42 1
  45   23   43 1
  46   23   44 1

#	End of record

