#	Name: ASD04882491
#	Creating user name:	WinNT
#	Creation time:	15. 06. 2019 20:54

#	Modifying user name:	WinNT
#	Modification time:	15. 06. 2019 20:54

#	Program:	/corina/corina34_cracker 3.40 0067  02.08.2006

@<TRIPOS>MOLECULE
ASD04882491
  90   95    0    0    0
SMALL
NO_CHARGES


@<TRIPOS>ATOM
   1 C1            -0.1786     1.8917     0.2175 C.ar    
   2 C2            -0.3136     0.5006     0.2174 C.ar    
   3 C3            -1.5781    -0.0769     0.2333 C.ar    
   4 C4            -2.7019     0.7190     0.2489 C.ar    
   5 C5            -2.5740     2.1108     0.2491 C.ar    
   6 C6            -1.3038     2.6940     0.2388 C.ar    
   7 N7             0.8199    -0.3080     0.2008 N.3     
   8 C8             0.8666    -1.1739     1.3872 C.3     
   9 C9             0.8802    -1.1052    -1.0323 C.3     
  10 C10            2.1767    -1.9183    -1.0481 C.3     
  11 N11            2.2234    -2.7842     0.1383 N.3     
  12 C12            2.1631    -1.9870     1.3714 C.3     
  13 C13           -3.7780     2.9632     0.2652 C.2     
  14 O14           -3.6658     4.1740     0.2654 O.2     
  15 N15           -5.0023     2.3999     0.2798 N.am    
  16 N16            1.0964     2.4724     0.2018 N.am    
  17 C17            3.3604    -3.5953     0.1217 C.ar    
  18 C18            1.2816     3.7055     0.7133 C.2     
  19 C19            2.6358     4.2851     0.7678 C.2     
  20 O20            0.3313     4.3401     1.1299 O.2     
  21 N21            3.7854     3.6951     0.3414 N.2     
  22 C22            4.7718     4.5139     0.5535 C.2     
  23 O23            4.3009     5.6375     1.1128 O.3     
  24 C24            2.9709     5.5135     1.2486 C.2     
  25 C25            4.6253    -3.0207     0.1110 C.ar    
  26 C26            3.2291    -4.9779     0.1216 C.ar    
  27 C27            4.3556    -5.7770     0.1050 C.ar    
  28 C28            5.6129    -5.2020     0.0891 C.ar    
  29 C29            5.7473    -3.8254     0.0945 C.ar    
  30 C30            1.8592    -5.6056     0.1399 C.3     
  31 C31           -6.1980     3.2463     0.2959 C.3     
  32 C32           -7.4281     2.3797     0.2134 C.ar    
  33 C33           -7.4403     1.1376     0.8194 C.ar    
  34 C34           -8.5688     0.3425     0.7437 C.ar    
  35 C35           -9.6850     0.7900     0.0623 C.ar    
  36 C36           -9.6731     2.0329    -0.5431 C.ar    
  37 C37           -8.5465     2.8295    -0.4637 C.ar    
  38 C38            6.2170     4.2430     0.2234 C.3     
  39 C39            6.9074     5.1924    -0.7579 C.3     
  40 C40            7.2571     5.2438     0.7308 C.3     
  41 C41           -6.2314     4.0572     1.5929 C.3     
  42 C42           -6.1643     4.1993    -0.9006 C.3     
  43 C43           -8.5818    -1.0122     1.4036 C.3     
  44 N44           -9.0675    -0.8800     2.7837 N.3     
  45 C45           -9.3193    -2.1979     3.3817 C.3     
  46 C46           -8.1265    -0.1022     3.6007 C.3     
  47 H47           -1.6793    -1.1522     0.2332 H       
  48 H48           -3.6828     0.2673     0.2605 H       
  49 H49           -1.2019     3.7691     0.2392 H       
  50 H50            0.8333    -0.5598     2.2871 H       
  51 H51            0.0125    -1.8511     1.3769 H       
  52 H52            0.0263    -1.7816    -1.0700 H       
  53 H53            0.8569    -0.4410    -1.8962 H       
  54 H54            2.2100    -2.5323    -1.9480 H       
  55 H55            3.0308    -1.2411    -1.0378 H       
  56 H56            3.0170    -1.3106     1.4091 H       
  57 H57            2.1865    -2.6511     2.2354 H       
  58 H58           -5.0919     1.4340     0.2797 H       
  59 H59            1.8459     1.9869    -0.1771 H       
  60 H60            2.2962     6.2464     1.6659 H       
  61 H61            4.7309    -1.9459     0.1152 H       
  62 H62            4.2543    -6.8523     0.1049 H       
  63 H63            6.4921    -5.8291     0.0769 H       
  64 H64            6.7308    -3.3794     0.0820 H       
  65 H65            1.5145    -5.7555    -0.8832 H       
  66 H66            1.9068    -6.5668     0.6517 H       
  67 H67            1.1655    -4.9486     0.6645 H       
  68 H68           -6.5681     0.7879     1.3518 H       
  69 H69          -10.5663     0.1687     0.0026 H       
  70 H70          -10.5452     2.3825    -1.0758 H       
  71 H71           -8.5372     3.8005    -0.9366 H       
  72 H72            6.5030     3.1917     0.1921 H       
  73 H73            7.6480     4.7658    -1.4344 H       
  74 H74            6.3164     6.0130    -1.1646 H       
  75 H75            6.8961     6.0981     1.3034 H       
  76 H76            8.2277     4.8509     1.0336 H       
  77 H77           -5.3416     4.6840     1.6526 H       
  78 H78           -7.1210     4.6870     1.6049 H       
  79 H79           -6.2554     3.3783     2.4453 H       
  80 H80           -6.1405     3.6216    -1.8246 H       
  81 H81           -7.0538     4.8291    -0.8886 H       
  82 H82           -5.2745     4.8261    -0.8409 H       
  83 H83           -9.2407    -1.6803     0.8490 H       
  84 H84           -7.5718    -1.4222     1.4116 H       
  85 H85           -8.3950    -2.7756     3.3903 H       
  86 H86           -9.6779    -2.0709     4.4032 H       
  87 H87          -10.0718    -2.7252     2.7954 H       
  88 H88           -8.0118     0.8940     3.1736 H       
  89 H89           -8.5104    -0.0197     4.6175 H       
  90 H90           -7.1590    -0.6040     3.6173 H       
@<TRIPOS>BOND
   1    1    2 ar
   2    1   16 1
   3    1    6 ar
   4    2    3 ar
   5    2    7 1
   6    3    4 ar
   7    3   47 1
   8    4    5 ar
   9    4   48 1
  10    5    6 ar
  11    5   13 1
  12    6   49 1
  13    7    8 1
  14    7    9 1
  15    8   12 1
  16    8   50 1
  17    8   51 1
  18    9   10 1
  19    9   52 1
  20    9   53 1
  21   10   11 1
  22   10   54 1
  23   10   55 1
  24   11   12 1
  25   11   17 1
  26   12   56 1
  27   12   57 1
  28   13   14 2
  29   13   15 am
  30   15   31 1
  31   15   58 1
  32   16   18 am
  33   16   59 1
  34   17   26 ar
  35   17   25 ar
  36   18   19 1
  37   18   20 2
  38   19   21 1
  39   19   24 2
  40   21   22 2
  41   22   23 1
  42   22   38 1
  43   23   24 1
  44   24   60 1
  45   25   29 ar
  46   25   61 1
  47   26   27 ar
  48   26   30 1
  49   27   28 ar
  50   27   62 1
  51   28   29 ar
  52   28   63 1
  53   29   64 1
  54   30   65 1
  55   30   66 1
  56   30   67 1
  57   31   32 1
  58   31   41 1
  59   31   42 1
  60   32   33 ar
  61   32   37 ar
  62   33   34 ar
  63   33   68 1
  64   34   35 ar
  65   34   43 1
  66   35   36 ar
  67   35   69 1
  68   36   37 ar
  69   36   70 1
  70   37   71 1
  71   38   39 1
  72   38   40 1
  73   38   72 1
  74   39   40 1
  75   39   73 1
  76   39   74 1
  77   40   75 1
  78   40   76 1
  79   41   77 1
  80   41   78 1
  81   41   79 1
  82   42   80 1
  83   42   81 1
  84   42   82 1
  85   43   44 1
  86   43   83 1
  87   43   84 1
  88   44   45 1
  89   44   46 1
  90   45   85 1
  91   45   86 1
  92   45   87 1
  93   46   88 1
  94   46   89 1
  95   46   90 1

#	End of record

