#	Name: ASD03240218
#	Creating user name:	WinNT
#	Creation time:	15. 06. 2019 20:34

#	Modifying user name:	WinNT
#	Modification time:	15. 06. 2019 20:34

#	Program:	/corina/corina34_cracker 3.40 0067  02.08.2006

@<TRIPOS>MOLECULE
ASD03240218
  80   85    0    0    0
SMALL
NO_CHARGES


@<TRIPOS>ATOM
   1 C1            -1.0295     0.2073    -1.8034 C.2     
   2 N2            -0.5951    -0.6907    -0.8573 N.pl3   
   3 O3            -4.2020     2.5616    -1.2026 O.2     
   4 C4            -3.9891     1.8460    -0.2468 C.2     
   5 C5            -2.8331     0.8796    -0.2718 C.3     
   6 N6            -2.1267     0.9960    -1.5500 N.pl3   
   7 N7            -0.3978     0.3147    -2.9384 N.2     
   8 N8            -4.7864     1.9151     0.8376 N.am    
   9 C9            -5.7868     2.8841     0.9069 C.ar    
  10 C10           -6.9797     2.6042     1.5659 C.ar    
  11 C11           -7.9695     3.5585     1.6362 C.ar    
  12 C12           -7.7746     4.8099     1.0450 C.ar    
  13 C13           -6.5749     5.0878     0.3842 C.ar    
  14 C14           -5.5874     4.1306     0.3218 C.ar    
  15 C15           -8.8335     5.8351     1.1179 C.2     
  16 N16           -8.6440     7.0413     0.5473 N.am    
  17 O17           -9.8770     5.5917     1.6929 O.2     
  18 C18           -9.6869     7.9763     0.5230 C.ar    
  19 C19           -9.4049     9.3333     0.6083 C.ar    
  20 C20          -11.0023     7.5462     0.4077 C.ar    
  21 C21          -12.0301     8.4676     0.3833 C.ar    
  22 C22          -11.7486     9.8246     0.4740 C.ar    
  23 C23          -10.4326    10.2548     0.5843 C.ar    
  24 N24          -12.7901    10.7583     0.4492 N.pl3   
  25 C25          -12.4930    12.1897     0.5449 C.3     
  26 C26          -14.1778    10.3047     0.3277 C.3     
  27 C27          -14.7534    10.0754     1.7014 C.ar    
  28 C28          -12.2913    12.7544    -0.8377 C.ar    
  29 C29          -15.3799    11.0979     2.3449 C.ar    
  30 C30          -15.9183    10.8873     3.6259 C.ar    
  31 C31          -15.7996     9.6099     4.2280 C.ar    
  32 C32          -15.1453     8.5785     3.5327 C.ar    
  33 C33          -14.6413     8.8176     2.2913 C.ar    
  34 C34          -13.3585    13.2502    -1.5214 C.ar    
  35 C35          -13.1739    13.7780    -2.8108 C.ar    
  36 C36          -11.8757    13.7851    -3.3793 C.ar    
  37 C37          -10.7982    13.2639    -2.6428 C.ar    
  38 C38          -11.0137    12.7662    -1.3947 C.ar    
  39 C39          -14.2515    14.2983    -3.5478 C.ar    
  40 C40          -14.0349    14.8008    -4.7939 C.ar    
  41 C41          -12.7583    14.8075    -5.3530 C.ar    
  42 C42          -11.6910    14.3129    -4.6686 C.ar    
  43 C43          -16.5716    11.9189     4.3217 C.ar    
  44 C44          -17.0803    11.6782     5.5609 C.ar    
  45 C45          -16.9633    10.4220     6.1531 C.ar    
  46 C46          -16.3380     9.3992     5.5089 C.ar    
  47 H47            0.1814    -1.2443    -1.0345 H       
  48 H48           -1.0652    -0.7706    -0.0126 H       
  49 H49           -2.1484     1.1110     0.5441 H       
  50 H50           -3.2072    -0.1375    -0.1548 H       
  51 H51           -2.4332     1.6296    -2.2175 H       
  52 H52            0.3787    -0.2389    -3.1156 H       
  53 H53           -4.6643     1.2908     1.5699 H       
  54 H54           -7.1296     1.6370     2.0226 H       
  55 H55           -8.8955     3.3404     2.1473 H       
  56 H56           -6.4211     6.0538    -0.0737 H       
  57 H57           -4.6600     4.3448    -0.1884 H       
  58 H58           -7.7855     7.2621     0.1534 H       
  59 H59           -8.3815     9.6679     0.6938 H       
  60 H60          -11.2212     6.4910     0.3369 H       
  61 H61          -13.0531     8.1332     0.2933 H       
  62 H62          -10.2135    11.3100     0.6549 H       
  63 H63          -13.3247    12.7019     1.0287 H       
  64 H64          -11.5862    12.3341     1.1322 H       
  65 H65          -14.7642    11.0639    -0.1899 H       
  66 H66          -14.2075     9.3740    -0.2388 H       
  67 H67          -15.4625    12.0662     1.8737 H       
  68 H68          -15.0474     7.6000     3.9791 H       
  69 H69          -14.1393     8.0232     1.7590 H       
  70 H70          -14.3421    13.2378    -1.0756 H       
  71 H71           -9.8034    13.2628    -3.0633 H       
  72 H72          -10.1839    12.3666    -0.8307 H       
  73 H73          -15.2464    14.2991    -3.1276 H       
  74 H74          -14.8648    15.2001    -5.3580 H       
  75 H75          -12.6138    15.2116    -6.3441 H       
  76 H76          -10.7074    14.3250    -5.1144 H       
  77 H77          -16.6692    12.8975     3.8756 H       
  78 H78          -17.5820    12.4726     6.0934 H       
  79 H79          -17.3752    10.2577     7.1378 H       
  80 H80          -16.2550     8.4309     5.9800 H       
@<TRIPOS>BOND
   1    1    2 1
   2    1    7 2
   3    1    6 1
   4    2   47 1
   5    2   48 1
   6    3    4 2
   7    4    5 1
   8    4    8 am
   9    5    6 1
  10    5   49 1
  11    5   50 1
  12    6   51 1
  13    7   52 1
  14    8    9 1
  15    8   53 1
  16    9   10 ar
  17    9   14 ar
  18   10   11 ar
  19   10   54 1
  20   11   12 ar
  21   11   55 1
  22   12   13 ar
  23   12   15 1
  24   13   14 ar
  25   13   56 1
  26   14   57 1
  27   15   16 am
  28   15   17 2
  29   16   18 1
  30   16   58 1
  31   18   19 ar
  32   18   20 ar
  33   19   23 ar
  34   19   59 1
  35   20   21 ar
  36   20   60 1
  37   21   22 ar
  38   21   61 1
  39   22   23 ar
  40   22   24 1
  41   23   62 1
  42   24   25 1
  43   24   26 1
  44   25   28 1
  45   25   63 1
  46   25   64 1
  47   26   27 1
  48   26   65 1
  49   26   66 1
  50   27   29 ar
  51   27   33 ar
  52   28   34 ar
  53   28   38 ar
  54   29   30 ar
  55   29   67 1
  56   30   31 ar
  57   30   43 ar
  58   31   32 ar
  59   31   46 ar
  60   32   33 ar
  61   32   68 1
  62   33   69 1
  63   34   35 ar
  64   34   70 1
  65   35   36 ar
  66   35   39 ar
  67   36   37 ar
  68   36   42 ar
  69   37   38 ar
  70   37   71 1
  71   38   72 1
  72   39   40 ar
  73   39   73 1
  74   40   41 ar
  75   40   74 1
  76   41   42 ar
  77   41   75 1
  78   42   76 1
  79   43   44 ar
  80   43   77 1
  81   44   45 ar
  82   44   78 1
  83   45   46 ar
  84   45   79 1
  85   46   80 1

#	End of record

