#	Name: ASD01100009
#	Creating user name:	WinNT
#	Creation time:	15. 06. 2019 18:58

#	Modifying user name:	WinNT
#	Modification time:	15. 06. 2019 18:58

#	Program:	/corina/corina34_cracker 3.40 0067  02.08.2006

@<TRIPOS>MOLECULE
ASD01100009
  35   36    0    0    0
SMALL
NO_CHARGES


@<TRIPOS>ATOM
   1 C1             0.0422     1.1605    -0.2312 C.ar    
   2 C2             0.1349    -0.2196    -0.2039 C.ar    
   3 C3             1.3743    -0.8274    -0.1118 C.ar    
   4 C4             2.5191    -0.0557    -0.0471 C.ar    
   5 C5             2.4258     1.3233    -0.0744 C.ar    
   6 C6             1.1877     1.9312    -0.1664 C.ar    
   7 C7             3.6744     2.1642    -0.0033 C.3     
   8 C8             3.7797     3.0282    -1.2616 C.3     
   9 N9             3.9494     2.1656    -2.4335 N.pl3   
  10 C10            3.6122     3.0662     1.2309 C.3     
  11 C11            3.4107     2.2071     2.4808 C.3     
  12 C12            4.9202     3.8500     1.3563 C.3     
  13 Cl13          -1.3035    -1.1883    -0.2846 Cl      
  14 C14            3.9617     2.7180    -3.7047 C.2     
  15 N15            4.1050     2.0468    -4.8051 N.2     
  16 C16            4.0923     2.7371    -5.9315 C.2     
  17 C17            3.9308     4.0512    -5.7749 C.2     
  18 S18            3.7827     4.3827    -4.0510 S.3     
  19 H19           -0.9248     1.6355    -0.3075 H       
  20 H20            1.4473    -1.9047    -0.0902 H       
  21 H21            3.4866    -0.5300     0.0251 H       
  22 H22            1.1154     3.0086    -0.1877 H       
  23 H23            4.5467     1.5143     0.0652 H       
  24 H24            2.8705     3.6189    -1.3739 H       
  25 H25            4.6376     3.6949    -1.1739 H       
  26 H26            4.0532     1.2079    -2.3198 H       
  27 H27            2.7796     3.7625     1.1305 H       
  28 H28            4.2432     1.5108     2.5812 H       
  29 H29            3.3663     2.8497     3.3601 H       
  30 H30            2.4788     1.6487     2.3915 H       
  31 H31            5.0099     4.5433     0.5201 H       
  32 H32            4.9211     4.4080     2.2926 H       
  33 H33            5.7615     3.1570     1.3455 H       
  34 H34            4.2040     2.2743    -6.9009 H       
  35 H35            3.8931     4.7844    -6.5670 H       
@<TRIPOS>BOND
   1    1    2 ar
   2    1    6 ar
   3    1   19 1
   4    2    3 ar
   5    2   13 1
   6    3    4 ar
   7    3   20 1
   8    4    5 ar
   9    4   21 1
  10    5    6 ar
  11    5    7 1
  12    6   22 1
  13    7    8 1
  14    7   10 1
  15    7   23 1
  16    8    9 1
  17    8   24 1
  18    8   25 1
  19    9   14 1
  20    9   26 1
  21   10   11 1
  22   10   12 1
  23   10   27 1
  24   11   28 1
  25   11   29 1
  26   11   30 1
  27   12   31 1
  28   12   32 1
  29   12   33 1
  30   14   15 2
  31   14   18 1
  32   15   16 1
  33   16   17 2
  34   16   34 1
  35   17   18 1
  36   17   35 1

#	End of record

