#	Name: ASD01180094
#	Creating user name:	WinNT
#	Creation time:	15. 06. 2019 19:06

#	Modifying user name:	WinNT
#	Modification time:	15. 06. 2019 19:06

#	Program:	/corina/corina34_cracker 3.40 0067  02.08.2006

@<TRIPOS>MOLECULE
ASD01180094
  56   58    0    0    0
SMALL
NO_CHARGES


@<TRIPOS>ATOM
   1 C1             0.9072     1.5284    -0.6702 C.2     
   2 C2             0.8028     0.0278    -0.5790 C.3     
   3 C3             2.2027    -0.5859    -0.6480 C.3     
   4 O4             1.9901     2.0531    -0.7793 O.2     
   5 O5            -0.2032     2.2817    -0.6359 O.3     
   6 N6             2.1012    -2.0447    -0.5593 N.am    
   7 C7             3.2158    -2.8014    -0.5994 C.2     
   8 C8             3.1134    -4.2736    -0.5099 C.ar    
   9 C9             4.2657    -5.0602    -0.5510 C.ar    
  10 C10            4.1632    -6.4333    -0.4665 C.ar    
  11 C11            2.9216    -7.0311    -0.3417 C.ar    
  12 C12            1.7755    -6.2572    -0.3003 C.ar    
  13 C13            1.8644    -4.8826    -0.3780 C.ar    
  14 O14            4.3052    -2.2735    -0.7091 O.2     
  15 C15            2.8172    -8.5317    -0.2509 C.3     
  16 C16            2.6372    -8.9429     1.2117 C.3     
  17 C17            3.9032    -8.5969     1.9983 C.3     
  18 C18            3.6749    -8.8834     3.4838 C.3     
  19 N19            1.6654    -8.9892    -1.0321 N.pl3   
  20 N20            0.6814   -10.6240    -2.3881 N.ar    
  21 C21            1.6652   -10.2596    -1.5881 C.ar    
  22 C22            2.7140   -11.1499    -1.2952 C.ar    
  23 N23            2.7309   -12.3545    -1.8118 N.ar    
  24 C24            1.7419   -12.7447    -2.6261 C.ar    
  25 C25            1.7370   -14.0300    -3.1930 C.ar    
  26 C26            0.7192   -14.4006    -4.0179 C.ar    
  27 C27           -0.3218   -13.5224    -4.3102 C.ar    
  28 C28           -0.3498   -12.2688    -3.7793 C.ar    
  29 C29            0.6831   -11.8514    -2.9235 C.ar    
  30 C30            5.0688    -9.4466     1.4882 C.3     
  31 H31            0.3318    -0.2470     0.3648 H       
  32 H32            0.2011    -0.3456    -1.4076 H       
  33 H33            2.6737    -0.3112    -1.5918 H       
  34 H34            2.8044    -0.2125     0.1806 H       
  35 H35           -0.0860     3.2396    -0.6976 H       
  36 H36            1.2319    -2.4660    -0.4718 H       
  37 H37            5.2354    -4.5948    -0.6491 H       
  38 H38            5.0540    -7.0431    -0.4983 H       
  39 H39            0.8094    -6.7299    -0.2027 H       
  40 H40            0.9694    -4.2794    -0.3411 H       
  41 H41            3.7270    -8.9838    -0.6461 H       
  42 H42            1.7877    -8.4088     1.6374 H       
  43 H43            2.4567   -10.0164     1.2678 H       
  44 H44            4.1372    -7.5408     1.8637 H       
  45 H45            3.4408    -9.9394     3.6183 H       
  46 H46            4.5768    -8.6368     4.0441 H       
  47 H47            2.8445    -8.2780     3.8472 H       
  48 H48            0.9029    -8.4035    -1.1604 H       
  49 H49            3.5129   -10.8379    -0.6388 H       
  50 H50            2.5377   -14.7214    -2.9756 H       
  51 H51            0.7191   -15.3895    -4.4521 H       
  52 H52           -1.1177   -13.8401    -4.9674 H       
  53 H53           -1.1630   -11.5983    -4.0149 H       
  54 H54            5.2933    -9.1738     0.4571 H       
  55 H55            5.9464    -9.2703     2.1101 H       
  56 H56            4.7969   -10.5012     1.5340 H       
@<TRIPOS>BOND
   1    1    2 1
   2    1    4 2
   3    1    5 1
   4    2    3 1
   5    2   31 1
   6    2   32 1
   7    3    6 1
   8    3   33 1
   9    3   34 1
  10    5   35 1
  11    6    7 am
  12    6   36 1
  13    7    8 1
  14    7   14 2
  15    8    9 ar
  16    8   13 ar
  17    9   10 ar
  18    9   37 1
  19   10   11 ar
  20   10   38 1
  21   11   12 ar
  22   11   15 1
  23   12   13 ar
  24   12   39 1
  25   13   40 1
  26   15   16 1
  27   15   19 1
  28   15   41 1
  29   16   17 1
  30   16   42 1
  31   16   43 1
  32   17   18 1
  33   17   30 1
  34   17   44 1
  35   18   45 1
  36   18   46 1
  37   18   47 1
  38   19   21 1
  39   19   48 1
  40   20   21 ar
  41   20   29 ar
  42   21   22 ar
  43   22   23 ar
  44   22   49 1
  45   23   24 ar
  46   24   25 ar
  47   24   29 ar
  48   25   26 ar
  49   25   50 1
  50   26   27 ar
  51   26   51 1
  52   27   28 ar
  53   27   52 1
  54   28   29 ar
  55   28   53 1
  56   30   54 1
  57   30   55 1
  58   30   56 1

#	End of record

