#	Name: ASD02030306
#	Creating user name:	WinNT
#	Creation time:	15. 06. 2019 20:15

#	Modifying user name:	WinNT
#	Modification time:	15. 06. 2019 20:15

#	Program:	/corina/corina34_cracker 3.40 0067  02.08.2006

@<TRIPOS>MOLECULE
ASD02030306
  55   59    0    0    0
SMALL
NO_CHARGES


@<TRIPOS>ATOM
   1 N1            -0.0144     1.3644     0.1741 N.am    
   2 C2            -0.0642    -0.1018     0.0852 C.3     
   3 C3            -1.1208    -0.6168     1.0703 C.3     
   4 N4            -2.3604     0.1473     0.8714 N.am    
   5 C5            -2.3106     1.6134     0.9602 C.3     
   6 C6            -1.2550     2.1282    -0.0193 C.3     
   7 C7             1.1471     1.9968     0.4338 C.2     
   8 C8             2.3545     1.2147     0.7744 C.2     
   9 N9             3.5730     1.6921     0.9093 N.2     
  10 N10            2.3999    -0.1100     1.0067 N.2     
  11 C11            3.6441    -0.4156     1.2737 C.2     
  12 N12            4.3662     0.7219     1.2090 N.pl3   
  13 C13            5.7459     0.8300     1.4295 C.ar    
  14 O14            1.2018     3.2103     0.3880 O.2     
  15 C15           -3.5218    -0.4852     0.6117 C.2     
  16 C16           -3.5566    -1.9530     0.5252 C.2     
  17 O17           -4.5415     0.1580     0.4488 O.2     
  18 C18            6.3713     2.0659     1.3318 C.ar    
  19 C19            7.7312     2.1692     1.5496 C.ar    
  20 C20            8.4699     1.0435     1.8648 C.ar    
  21 C21            7.8500    -0.1888     1.9625 C.ar    
  22 C22            6.4893    -0.2975     1.7518 C.ar    
  23 C23           -3.3693    -2.7151    -0.5863 C.2     
  24 C24           -0.9920     3.6125     0.2425 C.3     
  25 O25           -3.4752    -4.0113    -0.2716 O.3     
  26 C26           -3.7340    -4.1783     1.0419 C.ar    
  27 C27           -3.7956    -2.9057     1.6277 C.ar    
  28 C28           -3.9264    -5.3019     1.8367 C.ar    
  29 C29           -4.1807    -5.1572     3.1837 C.ar    
  30 C30           -4.2474    -3.8973     3.7594 C.ar    
  31 C31           -4.0518    -2.7714     2.9884 C.ar    
  32 C32           -3.0853    -2.1792    -1.9659 C.3     
  33 H33           -0.3339    -0.3979    -0.9285 H       
  34 H34            0.9100    -0.5172     0.3434 H       
  35 H35           -1.3092    -1.6743     0.8849 H       
  36 H36           -0.7664    -0.4795     2.0919 H       
  37 H37           -3.2847     2.0288     0.7020 H       
  38 H38           -2.0409     1.9095     1.9739 H       
  39 H39           -1.6070     1.9912    -1.0418 H       
  40 H40            4.0235    -1.3997     1.5061 H       
  41 H41            5.7950     2.9453     1.0853 H       
  42 H42            8.2183     3.1301     1.4734 H       
  43 H43            9.5332     1.1268     2.0347 H       
  44 H44            8.4297    -1.0663     2.2081 H       
  45 H45            6.0058    -1.2602     1.8282 H       
  46 H46           -0.5215     3.7315     1.2184 H       
  47 H47           -0.3313     4.0061    -0.5299 H       
  48 H48           -1.9360     4.1573     0.2253 H       
  49 H49           -3.8770    -6.2880     1.3991 H       
  50 H50           -4.3298    -6.0338     3.7968 H       
  51 H51           -4.4477    -3.7981     4.8160 H       
  52 H52           -4.1038    -1.7903     3.4370 H       
  53 H53           -2.0083    -2.0850    -2.1045 H       
  54 H54           -3.4892    -2.8638    -2.7117 H       
  55 H55           -3.5531    -1.2013    -2.0792 H       
@<TRIPOS>BOND
   1    1    2 1
   2    1    7 am
   3    1    6 1
   4    2    3 1
   5    2   33 1
   6    2   34 1
   7    3    4 1
   8    3   35 1
   9    3   36 1
  10    4    5 1
  11    4   15 am
  12    5    6 1
  13    5   37 1
  14    5   38 1
  15    6   24 1
  16    6   39 1
  17    7    8 1
  18    7   14 2
  19    8    9 2
  20    8   10 1
  21    9   12 1
  22   10   11 2
  23   11   12 1
  24   11   40 1
  25   12   13 1
  26   13   18 ar
  27   13   22 ar
  28   15   16 1
  29   15   17 2
  30   16   23 2
  31   16   27 1
  32   18   19 ar
  33   18   41 1
  34   19   20 ar
  35   19   42 1
  36   20   21 ar
  37   20   43 1
  38   21   22 ar
  39   21   44 1
  40   22   45 1
  41   23   25 1
  42   23   32 1
  43   24   46 1
  44   24   47 1
  45   24   48 1
  46   25   26 1
  47   26   27 ar
  48   26   28 ar
  49   27   31 ar
  50   28   29 ar
  51   28   49 1
  52   29   30 ar
  53   29   50 1
  54   30   31 ar
  55   30   51 1
  56   31   52 1
  57   32   53 1
  58   32   54 1
  59   32   55 1

#	End of record

