#	Name: ASD02038799
#	Creating user name:	WinNT
#	Creation time:	15. 06. 2019 20:17

#	Modifying user name:	WinNT
#	Modification time:	15. 06. 2019 20:17

#	Program:	/corina/corina34_cracker 3.40 0067  02.08.2006

@<TRIPOS>MOLECULE
ASD02038799
  52   55    0    0    0
SMALL
NO_CHARGES


@<TRIPOS>ATOM
   1 C1            -1.2823    -0.8513     0.4656 C.2     
   2 C2            -0.0606    -0.0344     0.3017 C.2     
   3 N3             1.1368    -0.6350     0.1536 N.am    
   4 C4             1.2419    -2.0930     0.2502 C.3     
   5 C5             1.2141    -2.6913    -1.1327 C.ar    
   6 C6             2.3333     0.1702    -0.1039 C.3     
   7 O7            -0.1364     1.1788     0.3005 O.2     
   8 N8            -1.3378    -2.1953     0.4969 N.2     
   9 C9            -2.5932    -2.5286     0.6566 C.2     
  10 N10           -3.3112    -1.3923     0.7237 N.pl3   
  11 N11           -2.5060    -0.3926     0.6123 N.2     
  12 C12            2.3969    -3.0121    -1.7679 C.ar    
  13 C13            2.1213     1.0143    -1.3644 C.3     
  14 C14            3.3441     1.9097    -1.5811 C.3     
  15 O15            3.5437     2.7285    -0.4270 O.3     
  16 C16            3.7938     1.9943     0.7732 C.3     
  17 C17            2.5891     1.1023     1.0844 C.3     
  18 C18            0.0032    -2.9228    -1.7598 C.ar    
  19 C19           -0.0310    -3.4720    -3.0286 C.ar    
  20 C20            1.1470    -3.7922    -3.6773 C.ar    
  21 C21            2.3709    -3.5651    -3.0461 C.ar    
  22 C22           -4.7630    -1.3064     0.8998 C.3     
  23 C23            3.6394    -3.9062    -3.7360 C.ar    
  24 F24            1.1134    -4.3291    -4.9166 F       
  25 C25            3.8059    -5.1643    -4.3116 C.ar    
  26 C26            4.9878    -5.4761    -4.9525 C.ar    
  27 C27            6.0059    -4.5425    -5.0241 C.ar    
  28 C28            5.8460    -3.2922    -4.4545 C.ar    
  29 C29            4.6664    -2.9678    -3.8157 C.ar    
  30 H30            2.1778    -2.3580     0.7420 H       
  31 H31            0.4043    -2.4800     0.8304 H       
  32 H32            3.1915    -0.4868    -0.2450 H       
  33 H33           -2.9826    -3.5338     0.7223 H       
  34 H34            3.3411    -2.8342    -1.2747 H       
  35 H35            1.9935     0.3579    -2.2251 H       
  36 H36            1.2330     1.6341    -1.2426 H       
  37 H37            4.2252     1.2888    -1.7430 H       
  38 H38            3.1806     2.5435    -2.4526 H       
  39 H39            4.6808     1.3745     0.6420 H       
  40 H40            3.9543     2.6891     1.5976 H       
  41 H41            1.7102     1.7239     1.2557 H       
  42 H42            2.7958     0.5088     1.9750 H       
  43 H43           -0.9194    -2.6740    -1.2565 H       
  44 H44           -0.9794    -3.6512    -3.5132 H       
  45 H45           -4.9983    -1.2665     1.9633 H       
  46 H46           -5.1357    -0.4061     0.4112 H       
  47 H47           -5.2354    -2.1828     0.4558 H       
  48 H48            3.0118    -5.8941    -4.2559 H       
  49 H49            5.1181    -6.4510    -5.3986 H       
  50 H50            6.9293    -4.7908    -5.5262 H       
  51 H51            6.6442    -2.5670    -4.5133 H       
  52 H52            4.5424    -1.9911    -3.3716 H       
@<TRIPOS>BOND
   1    1    2 1
   2    1    8 1
   3    1   11 2
   4    2    3 am
   5    2    7 2
   6    3    4 1
   7    3    6 1
   8    4    5 1
   9    4   30 1
  10    4   31 1
  11    5   12 ar
  12    5   18 ar
  13    6   13 1
  14    6   17 1
  15    6   32 1
  16    8    9 2
  17    9   10 1
  18    9   33 1
  19   10   11 1
  20   10   22 1
  21   12   21 ar
  22   12   34 1
  23   13   14 1
  24   13   35 1
  25   13   36 1
  26   14   15 1
  27   14   37 1
  28   14   38 1
  29   15   16 1
  30   16   17 1
  31   16   39 1
  32   16   40 1
  33   17   41 1
  34   17   42 1
  35   18   19 ar
  36   18   43 1
  37   19   20 ar
  38   19   44 1
  39   20   21 ar
  40   20   24 1
  41   21   23 1
  42   22   45 1
  43   22   46 1
  44   22   47 1
  45   23   25 ar
  46   23   29 ar
  47   25   26 ar
  48   25   48 1
  49   26   27 ar
  50   26   49 1
  51   27   28 ar
  52   27   50 1
  53   28   29 ar
  54   28   51 1
  55   29   52 1

#	End of record

