#	Name: ASD07300237
#	Creating user name:	WinNT
#	Creation time:	15. 06. 2019 21:09

#	Modifying user name:	WinNT
#	Modification time:	15. 06. 2019 21:09

#	Program:	/corina/corina34_cracker 3.40 0067  02.08.2006

@<TRIPOS>MOLECULE
ASD07300237
  50   55    0    0    0
SMALL
NO_CHARGES


@<TRIPOS>ATOM
   1 C1            -0.0169     1.3941     0.0097 C.ar    
   2 C2             0.0021    -0.0041     0.0020 C.ar    
   3 C3             1.2199    -0.6674    -0.0136 C.ar    
   4 C4             2.3808     0.0923    -0.0210 C.ar    
   5 C5             2.2878     1.4714    -0.0127 C.ar    
   6 N6             1.1161     2.0768     0.0026 N.ar    
   7 C7            -2.1139     0.6622     0.0347 C.2     
   8 N8            -1.3542     1.7734     0.0301 N.am    
   9 N9            -1.3234    -0.4279     0.0129 N.am    
  10 O10           -3.3304     0.6453     0.0517 O.2     
  11 C11           -1.8317     3.0925     0.0441 C.ar    
  12 C12           -3.1985     3.3357     0.0642 C.ar    
  13 C13           -3.6686     4.6336     0.0780 C.ar    
  14 C14           -2.7742     5.6962     0.0722 C.ar    
  15 C15           -1.4069     5.4526     0.0526 C.ar    
  16 C16           -0.9373     4.1545     0.0437 C.ar    
  17 C17           -4.6052     7.2724     0.1048 C.2     
  18 N18           -5.5229     6.7087     0.8404 N.2     
  19 C19           -6.7262     7.2940     0.5981 C.ar    
  20 C20           -6.5175     8.2862    -0.3758 C.ar    
  21 N21           -5.1711     8.2446    -0.6851 N.pl3   
  22 C22           -8.0099     7.0913     1.1097 C.ar    
  23 C23           -9.0564     7.8647     0.6590 C.ar    
  24 C24           -8.8452     8.8437    -0.2998 C.ar    
  25 C25           -7.5836     9.0557    -0.8166 C.ar    
  26 N26           -3.2506     7.0124     0.0857 N.pl3   
  27 C27           -2.3235     8.1440     0.0804 C.3     
  28 C28           -2.0169     8.5466    -1.3633 C.3     
  29 C29           -3.2665     8.2664    -2.2156 C.3     
  30 C30           -4.4635     9.0535    -1.6783 C.3     
  31 H31            1.2635    -1.7465    -0.0195 H       
  32 H32            3.3475    -0.3890    -0.0328 H       
  33 H33            3.1908     2.0638    -0.0185 H       
  34 H34           -1.6258    -1.3496     0.0104 H       
  35 H35           -3.8940     2.5095     0.0687 H       
  36 H36           -4.7318     4.8228     0.0929 H       
  37 H37           -0.7112     6.2786     0.0482 H       
  38 H38            0.1259     3.9650     0.0323 H       
  39 H39           -8.1813     6.3300     1.8563 H       
  40 H40          -10.0488     7.7072     1.0549 H       
  41 H41           -9.6739     9.4445    -0.6445 H       
  42 H42           -7.4265     9.8201    -1.5632 H       
  43 H43           -2.7755     8.9863     0.6042 H       
  44 H44           -1.3989     7.8583     0.5820 H       
  45 H45           -1.7736     9.6083    -1.4053 H       
  46 H46           -1.1773     7.9612    -1.7380 H       
  47 H47           -3.0736     8.5622    -3.2468 H       
  48 H48           -3.4925     7.2005    -2.1849 H       
  49 H49           -5.1389     9.2936    -2.4995 H       
  50 H50           -4.1136     9.9754    -1.2138 H       
@<TRIPOS>BOND
   1    1    2 ar
   2    1    6 ar
   3    1    8 1
   4    2    3 ar
   5    2    9 1
   6    3    4 ar
   7    3   31 1
   8    4    5 ar
   9    4   32 1
  10    5    6 ar
  11    5   33 1
  12    7    8 am
  13    7    9 am
  14    7   10 2
  15    8   11 1
  16    9   34 1
  17   11   12 ar
  18   11   16 ar
  19   12   13 ar
  20   12   35 1
  21   13   14 ar
  22   13   36 1
  23   14   15 ar
  24   14   26 1
  25   15   16 ar
  26   15   37 1
  27   16   38 1
  28   17   18 2
  29   17   21 1
  30   17   26 1
  31   18   19 1
  32   19   20 ar
  33   19   22 ar
  34   20   21 1
  35   20   25 ar
  36   21   30 1
  37   22   23 ar
  38   22   39 1
  39   23   24 ar
  40   23   40 1
  41   24   25 ar
  42   24   41 1
  43   25   42 1
  44   26   27 1
  45   27   28 1
  46   27   43 1
  47   27   44 1
  48   28   29 1
  49   28   45 1
  50   28   46 1
  51   29   30 1
  52   29   47 1
  53   29   48 1
  54   30   49 1
  55   30   50 1

#	End of record

