#	Name: ASD01812549
#	Creating user name:	WinNT
#	Creation time:	15. 06. 2019 19:28

#	Modifying user name:	WinNT
#	Modification time:	15. 06. 2019 19:28

#	Program:	/corina/corina34_cracker 3.40 0067  02.08.2006

@<TRIPOS>MOLECULE
ASD01812549
  58   61    0    0    0
SMALL
NO_CHARGES


@<TRIPOS>ATOM
   1 C1            -0.0225     1.8097     0.0120 C.3     
   2 S2             0.0021    -0.0041     0.0020 S.3     
   3 C3             0.8516    -0.3807    -1.4950 C.ar    
   4 C4             1.0614    -1.7088    -1.8536 C.ar    
   5 C5             1.7297    -1.9900    -3.0314 C.ar    
   6 C6             2.1675    -0.9300    -3.8144 C.ar    
   7 C7             2.8994    -1.1893    -5.1060 C.3     
   8 C8             1.9068    -1.2818    -6.2361 C.ar    
   9 C9             1.4211    -2.5108    -6.6458 C.ar    
  10 C10            0.5043    -2.5532    -7.6940 C.ar    
  11 N11            0.1112    -1.4361    -8.2854 N.ar    
  12 C12            0.5597    -0.2458    -7.9199 C.ar    
  13 C13            0.0518     0.9528    -8.6801 C.3     
  14 C14            0.2968     2.2346    -7.8871 C.3     
  15 C15            1.7707     2.2718    -7.4668 C.3     
  16 C16            1.9976     1.1930    -6.4094 C.3     
  17 C17            1.4601    -0.1319    -6.8800 C.ar    
  18 C18           -0.0336    -3.8564    -8.1497 C.2     
  19 O19            0.3251    -4.8841    -7.6096 O.2     
  20 N20           -0.9207    -3.9020    -9.1633 N.am    
  21 C21           -1.4525    -5.1905    -9.6139 C.3     
  22 H22           -0.6779    -5.9527    -9.5298 H       
  23 C23           -2.6488    -5.5809    -8.7437 C.3     
  24 C24           -3.2042    -6.9266    -9.2143 C.3     
  25 C25           -3.6507    -6.8120   -10.6732 C.3     
  26 C26           -2.4544    -6.4216   -11.5435 C.3     
  27 C27           -1.8989    -5.0759   -11.0729 C.3     
  28 H28           -2.6736    -4.3137   -11.1570 H       
  29 O29           -0.7816    -4.7113   -11.8857 O.3     
  30 C30            1.9251     0.3640    -3.3980 C.ar    
  31 N31            1.2802     0.6030    -2.2722 N.ar    
  32 H32            1.0001     2.1870     0.0043 H       
  33 H33           -0.5497     2.1708    -0.8711 H       
  34 H34           -0.5327     2.1613     0.9088 H       
  35 H35            0.7075    -2.5091    -1.2206 H       
  36 H36            1.9073    -3.0110    -3.3352 H       
  37 H37            3.5953    -0.3730    -5.2995 H       
  38 H38            3.4509    -2.1264    -5.0292 H       
  39 H39            1.7468    -3.4201    -6.1625 H       
  40 H40            0.5699     1.0175    -9.6369 H       
  41 H41           -1.0175     0.8390    -8.8580 H       
  42 H42            0.0718     3.0998    -8.5107 H       
  43 H43           -0.3373     2.2437    -7.0005 H       
  44 H44            2.4042     2.0767    -8.3320 H       
  45 H45            2.0089     3.2503    -7.0498 H       
  46 H46            3.0657     1.1013    -6.2127 H       
  47 H47            1.4864     1.4777    -5.4897 H       
  48 H48           -1.2070    -3.0816    -9.5945 H       
  49 H49           -2.3308    -5.6626    -7.7043 H       
  50 H50           -3.4235    -4.8187    -8.8278 H       
  51 H51           -2.4296    -7.6889    -9.1302 H       
  52 H52           -4.0565    -7.2048    -8.5943 H       
  53 H53           -4.0464    -7.7708   -11.0085 H       
  54 H54           -4.4253    -6.0498   -10.7574 H       
  55 H55           -1.6797    -7.1839   -11.4593 H       
  56 H56           -2.7724    -6.3400   -12.5828 H       
  57 H57           -0.9917    -4.6204   -12.8252 H       
  58 H58            2.2640     1.1912    -4.0041 H       
@<TRIPOS>BOND
   1    1    2 1
   2    1   32 1
   3    1   33 1
   4    1   34 1
   5    2    3 1
   6    3   31 ar
   7    3    4 ar
   8    4    5 ar
   9    4   35 1
  10    5    6 ar
  11    5   36 1
  12    6    7 1
  13    6   30 ar
  14    7    8 1
  15    7   37 1
  16    7   38 1
  17    8   17 ar
  18    8    9 ar
  19    9   10 ar
  20    9   39 1
  21   10   11 ar
  22   10   18 1
  23   11   12 ar
  24   12   17 ar
  25   12   13 1
  26   13   14 1
  27   13   40 1
  28   13   41 1
  29   14   15 1
  30   14   42 1
  31   14   43 1
  32   15   16 1
  33   15   44 1
  34   15   45 1
  35   16   17 1
  36   16   46 1
  37   16   47 1
  38   18   19 2
  39   18   20 am
  40   20   21 1
  41   20   48 1
  42   21   22 1
  43   21   27 1
  44   21   23 1
  45   23   24 1
  46   23   49 1
  47   23   50 1
  48   24   25 1
  49   24   51 1
  50   24   52 1
  51   25   26 1
  52   25   53 1
  53   25   54 1
  54   26   27 1
  55   26   55 1
  56   26   56 1
  57   27   28 1
  58   27   29 1
  59   29   57 1
  60   30   31 ar
  61   30   58 1

#	End of record

