#	Name: ASD05430016
#	Creating user name:	WinNT
#	Creation time:	15. 06. 2019 20:59

#	Modifying user name:	WinNT
#	Modification time:	15. 06. 2019 20:59

#	Program:	/corina/corina34_cracker 3.40 0067  02.08.2006

@<TRIPOS>MOLECULE
ASD05430016
  65   70    0    0    0
SMALL
NO_CHARGES


@<TRIPOS>ATOM
   1 C1            -0.1027     1.1396    -0.5410 C.ar    
   2 C2            -0.0403    -0.0892     0.1155 C.ar    
   3 C3            -1.1793    -0.6254     0.7023 C.ar    
   4 C4            -2.3762     0.0541     0.6386 C.ar    
   5 C5            -2.4462     1.2872    -0.0177 C.ar    
   6 C6            -1.2986     1.8295    -0.6039 C.ar    
   7 C7            -4.9302    -0.1778    -0.2938 C.3     
   8 C8            -4.8842     1.3337    -0.1357 C.2     
   9 C9            -3.7242     2.0145    -0.0872 C.2     
  10 C10           -6.0665    -0.5178    -1.2671 C.3     
  11 C11           -7.4601    -0.0287    -0.8521 C.3     
  12 N12           -7.3688     1.3776    -0.4660 N.pl3   
  13 C13           -6.1980     2.0073    -0.0390 C.2     
  14 C14           -8.4148     2.4028    -0.4539 C.3     
  15 O15           -7.8604     3.4280     0.3967 O.3     
  16 N16           -6.4618     3.1804     0.4345 N.2     
  17 C17           -8.6537     2.9357    -1.8431 C.ar    
  18 C18           -9.1956     4.1956    -2.0163 C.ar    
  19 C19           -8.3258     2.1669    -2.9440 C.ar    
  20 C20           -8.5438     2.6555    -4.2189 C.ar    
  21 C21           -9.0899     3.9130    -4.3932 C.ar    
  22 C22           -9.4144     4.6848    -3.2915 C.ar    
  23 C23           -9.7092     1.8469     0.1432 C.3     
  24 Cl24         -10.1010     6.2643    -3.5097 Cl      
  25 C25           -5.7380    -0.5338    -2.7595 C.3     
  26 C26           -5.9798    -1.8484    -2.0147 C.3     
  27 O27            1.0142     1.6615    -1.1142 O.3     
  28 C28            0.8774     2.9238    -1.7699 C.3     
  29 N29            1.1744    -0.7849     0.1829 N.pl3   
  30 C30            2.0038    -1.0639    -0.8560 C.2     
  31 C31            1.7529    -1.3071     1.3107 C.2     
  32 C32            2.9048    -1.8884     0.9248 C.2     
  33 N33            3.0328    -1.7252    -0.4003 N.2     
  34 C34            3.8833    -2.5956     1.8267 C.3     
  35 O35            3.4032    -2.5589     3.1722 O.3     
  36 C36            4.2620    -3.2057     4.1136 C.3     
  37 H37           -1.1267    -1.5775     1.2094 H       
  38 H38           -3.2604    -0.3656     1.0952 H       
  39 H39           -1.3482     2.7815    -1.1113 H       
  40 H40           -3.9819    -0.5353    -0.6951 H       
  41 H41           -5.1211    -0.6438     0.6728 H       
  42 H42           -3.7310     3.0944    -0.0993 H       
  43 H43           -8.1489    -0.1336    -1.6904 H       
  44 H44           -7.8173    -0.6173    -0.0070 H       
  45 H45           -9.4483     4.7977    -1.1560 H       
  46 H46           -7.8986     1.1843    -2.8082 H       
  47 H47           -8.2870     2.0545    -5.0787 H       
  48 H48           -9.2595     4.2948    -5.3891 H       
  49 H49           -9.5257     1.5185     1.1662 H       
  50 H50          -10.4729     2.6247     0.1427 H       
  51 H51          -10.0511     1.0016    -0.4540 H       
  52 H52           -6.5119    -0.1961    -3.4489 H       
  53 H53           -4.7139    -0.3020    -3.0519 H       
  54 H54           -5.1147    -2.4814    -1.8170 H       
  55 H55           -6.9128    -2.3756    -2.2139 H       
  56 H56            1.8403     3.2250    -2.1827 H       
  57 H57            0.1478     2.8378    -2.5751 H       
  58 H58            0.5400     3.6714    -1.0521 H       
  59 H59            1.8393    -0.7855    -1.8865 H       
  60 H60            1.3605    -1.2610     2.3158 H       
  61 H61            3.9886    -3.6322     1.5067 H       
  62 H62            4.8518    -2.0985     1.7728 H       
  63 H63            4.3753    -4.2549     3.8410 H       
  64 H64            5.2384    -2.7212     4.1071 H       
  65 H65            3.8275    -3.1341     5.1106 H       
@<TRIPOS>BOND
   1    1    2 ar
   2    1   27 1
   3    1    6 ar
   4    2    3 ar
   5    2   29 1
   6    3    4 ar
   7    3   37 1
   8    4    5 ar
   9    4   38 1
  10    5    6 ar
  11    5    9 1
  12    6   39 1
  13    7    8 1
  14    7   10 1
  15    7   40 1
  16    7   41 1
  17    8    9 2
  18    8   13 1
  19    9   42 1
  20   10   11 1
  21   10   25 1
  22   10   26 1
  23   11   12 1
  24   11   43 1
  25   11   44 1
  26   12   13 1
  27   12   14 1
  28   13   16 2
  29   14   15 1
  30   14   17 1
  31   14   23 1
  32   15   16 1
  33   17   18 ar
  34   17   19 ar
  35   18   22 ar
  36   18   45 1
  37   19   20 ar
  38   19   46 1
  39   20   21 ar
  40   20   47 1
  41   21   22 ar
  42   21   48 1
  43   22   24 1
  44   23   49 1
  45   23   50 1
  46   23   51 1
  47   25   26 1
  48   25   52 1
  49   25   53 1
  50   26   54 1
  51   26   55 1
  52   27   28 1
  53   28   56 1
  54   28   57 1
  55   28   58 1
  56   29   30 1
  57   29   31 1
  58   30   33 2
  59   30   59 1
  60   31   32 2
  61   31   60 1
  62   32   33 1
  63   32   34 1
  64   34   35 1
  65   34   61 1
  66   34   62 1
  67   35   36 1
  68   36   63 1
  69   36   64 1
  70   36   65 1

#	End of record

