#	Name: ASD01411108
#	Creating user name:	WinNT
#	Creation time:	15. 06. 2019 19:19

#	Modifying user name:	WinNT
#	Modification time:	15. 06. 2019 19:19

#	Program:	/corina/corina34_cracker 3.40 0067  02.08.2006

@<TRIPOS>MOLECULE
ASD01411108
  60   62    0    0    0
SMALL
NO_CHARGES


@<TRIPOS>ATOM
   1 C1            -0.0087     1.5416    -0.0010 C.3     
   2 C2             0.0122     0.0063    -0.0163 C.3     
   3 O3             1.3333     2.0363    -0.0032 O.3     
   4 C4             0.9911    -0.4528     1.0352 C.2     
   5 C5             2.0430     1.8250     1.2238 C.3     
   6 C6             1.9117     0.3678     1.5995 C.2     
   7 C7             1.1585    -1.7536     1.6305 C.ar    
   8 C8             1.4402     2.6986     2.3258 C.3     
   9 N9             2.6505    -0.3273     2.5128 N.pl3   
  10 C10            0.4981    -2.9875     1.4443 C.ar    
  11 C11            2.2220    -1.6246     2.5614 C.ar    
  12 C12            0.9480    -4.0612     2.2217 C.ar    
  13 C13            2.6427    -2.7155     3.3174 C.ar    
  14 C14            1.9836    -3.9201     3.1230 C.ar    
  15 C15            2.1244     2.3839     3.6576 C.3     
  16 C16            3.5192     2.1792     1.0339 C.3     
  17 N17            3.6460     3.6123     0.7580 N.am    
  18 S18            4.9519     4.4536     1.3317 S.o2    
  19 O19            4.9981     4.1288     2.7144 O.2     
  20 C20            6.3717     3.7346     0.4611 C.3     
  21 O21            4.7261     5.7885     0.8999 O.2     
  22 C22            7.6546     4.4365     0.9109 C.3     
  23 C23            8.8520     3.8300     0.1766 C.3     
  24 C24           10.1350     4.5320     0.6263 C.3     
  25 C25            3.7706    -2.5919     4.3091 C.3     
  26 C26            1.6160     3.3470     4.7323 C.3     
  27 C27            4.0795     1.3933    -0.1234 C.2     
  28 O28            4.5377     1.9711    -1.0806 O.2     
  29 O29            4.0695     0.0514    -0.0910 O.3     
  30 C30           -0.5766    -3.1330     0.5092 C.1     
  31 N31           -1.4292    -3.2484    -0.2326 N.1     
  32 H32           -0.5319     1.9067    -0.8848 H       
  33 H33           -0.5226     1.8892     0.8951 H       
  34 H34           -0.9818    -0.3785     0.2118 H       
  35 H35            0.3301    -0.3487    -0.9965 H       
  36 H36            1.5907     3.7497     2.0794 H       
  37 H37            0.3727     2.4941     2.4085 H       
  38 H38            3.3709     0.0431     3.0464 H       
  39 H39            0.4723    -5.0247     2.1137 H       
  40 H40            2.2923    -4.7802     3.6986 H       
  41 H41            1.8957     1.3592     3.9504 H       
  42 H42            3.2029     2.4984     3.5480 H       
  43 H43            4.0714     1.9336     1.9411 H       
  44 H44            2.9651     4.0685     0.2393 H       
  45 H45            6.4391     2.6715     0.6921 H       
  46 H46            6.2433     3.8655    -0.6133 H       
  47 H47            7.5872     5.4996     0.6799 H       
  48 H48            7.7829     4.3056     1.9853 H       
  49 H49            8.9195     2.7669     0.4075 H       
  50 H50            8.7237     3.9610    -0.8979 H       
  51 H51           10.0676     5.5951     0.3953 H       
  52 H52           10.2633     4.4010     1.7007 H       
  53 H53           10.9881     4.0999     0.1031 H       
  54 H54            3.3690    -2.3125     5.2831 H       
  55 H55            4.2893    -3.5471     4.3904 H       
  56 H56            4.4694    -1.8267     3.9711 H       
  57 H57            2.1035     3.1228     5.6811 H       
  58 H58            1.8447     4.3717     4.4395 H       
  59 H59            0.5376     3.2325     4.8419 H       
  60 H60            4.4398    -0.4090    -0.8565 H       
@<TRIPOS>BOND
   1    1    2 1
   2    1    3 1
   3    1   32 1
   4    1   33 1
   5    2    4 1
   6    2   34 1
   7    2   35 1
   8    3    5 1
   9    4    6 2
  10    4    7 1
  11    5    8 1
  12    5   16 1
  13    5    6 1
  14    6    9 1
  15    7   10 ar
  16    7   11 ar
  17    8   15 1
  18    8   36 1
  19    8   37 1
  20    9   11 1
  21    9   38 1
  22   10   12 ar
  23   10   30 1
  24   11   13 ar
  25   12   14 ar
  26   12   39 1
  27   13   14 ar
  28   13   25 1
  29   14   40 1
  30   15   26 1
  31   15   41 1
  32   15   42 1
  33   16   17 1
  34   16   27 1
  35   16   43 1
  36   17   18 am
  37   17   44 1
  38   18   19 2
  39   18   20 1
  40   18   21 2
  41   20   22 1
  42   20   45 1
  43   20   46 1
  44   22   23 1
  45   22   47 1
  46   22   48 1
  47   23   24 1
  48   23   49 1
  49   23   50 1
  50   24   51 1
  51   24   52 1
  52   24   53 1
  53   25   54 1
  54   25   55 1
  55   25   56 1
  56   26   57 1
  57   26   58 1
  58   26   59 1
  59   27   28 2
  60   27   29 1
  61   29   60 1
  62   30   31 3

#	End of record

