#	Name: ASD01914340
#	Creating user name:	WinNT
#	Creation time:	15. 06. 2019 20:03

#	Modifying user name:	WinNT
#	Modification time:	15. 06. 2019 20:03

#	Program:	/corina/corina34_cracker 3.40 0067  02.08.2006

@<TRIPOS>MOLECULE
ASD01914340
  40   43    0    0    0
SMALL
NO_CHARGES


@<TRIPOS>ATOM
   1 C1            -0.1904     1.3622    -1.0234 C.2     
   2 N2            -0.1473     0.0611    -0.9973 N.2     
   3 C3            -1.3791    -0.4059    -0.7139 C.2     
   4 C4            -2.1892     0.6502    -0.5647 C.2     
   5 O5            -1.4415     1.7571    -0.7541 O.3     
   6 C6            -3.5833     0.1761    -0.2455 C.3     
   7 N7            -3.5514    -1.2912    -0.2124 N.am    
   8 C8            -4.5857    -2.1185     0.0370 C.2     
   9 C9             0.9765     2.2736    -1.3039 C.3     
  10 O10            1.0572     2.5258    -2.7081 O.3     
  11 C11            2.0623     3.3359    -3.1327 C.ar    
  12 C12            2.1998     3.6232    -4.4830 C.ar    
  13 C13            3.2224     4.4469    -4.9121 C.ar    
  14 C14            4.1085     4.9848    -3.9972 C.ar    
  15 C15            3.9740     4.6996    -2.6509 C.ar    
  16 C16            2.9493     3.8814    -2.2161 C.ar    
  17 C17           -2.1655    -1.6754    -0.5065 C.3     
  18 C18           -4.4083    -3.5801    -0.0841 C.ar    
  19 C19           -3.1385    -4.1156    -0.3096 C.ar    
  20 O20           -5.6646    -1.6620     0.3617 O.2     
  21 C21           -5.5091    -4.4316     0.0323 C.ar    
  22 C22           -5.3380    -5.7945    -0.0815 C.ar    
  23 C23           -4.0758    -6.3206    -0.3107 C.ar    
  24 C24           -2.9786    -5.4800    -0.4219 C.ar    
  25 F25           -3.9135    -7.6572    -0.4211 F       
  26 H26           -3.8921     0.5617     0.7261 H       
  27 H27           -4.2751     0.5141    -1.0169 H       
  28 H28            0.8378     3.2154    -0.7729 H       
  29 H29            1.8978     1.7986    -0.9665 H       
  30 H30            1.5081     3.2030    -5.1981 H       
  31 H31            3.3300     4.6706    -5.9632 H       
  32 H32            4.9074     5.6285    -4.3346 H       
  33 H33            4.6678     5.1204    -1.9383 H       
  34 H34            2.8446     3.6590    -1.1644 H       
  35 H35           -2.1336    -2.2826    -1.4111 H       
  36 H36           -1.7506    -2.2351     0.3318 H       
  37 H37           -2.2832    -3.4618    -0.3963 H       
  38 H38           -6.4926    -4.0229     0.2116 H       
  39 H39           -6.1886    -6.4539     0.0083 H       
  40 H40           -1.9977    -5.8949    -0.6008 H       
@<TRIPOS>BOND
   1    1    2 2
   2    1    9 1
   3    1    5 1
   4    2    3 1
   5    3    4 2
   6    3   17 1
   7    4    5 1
   8    4    6 1
   9    6    7 1
  10    6   26 1
  11    6   27 1
  12    7    8 am
  13    7   17 1
  14    8   18 1
  15    8   20 2
  16    9   10 1
  17    9   28 1
  18    9   29 1
  19   10   11 1
  20   11   12 ar
  21   11   16 ar
  22   12   13 ar
  23   12   30 1
  24   13   14 ar
  25   13   31 1
  26   14   15 ar
  27   14   32 1
  28   15   16 ar
  29   15   33 1
  30   16   34 1
  31   17   35 1
  32   17   36 1
  33   18   19 ar
  34   18   21 ar
  35   19   24 ar
  36   19   37 1
  37   21   22 ar
  38   21   38 1
  39   22   23 ar
  40   22   39 1
  41   23   24 ar
  42   23   25 1
  43   24   40 1

#	End of record

