#	Name: ASD01915493
#	Creating user name:	WinNT
#	Creation time:	15. 06. 2019 20:05

#	Modifying user name:	WinNT
#	Modification time:	15. 06. 2019 20:05

#	Program:	/corina/corina34_cracker 3.40 0067  02.08.2006

@<TRIPOS>MOLECULE
ASD01915493
  51   53    0    0    0
SMALL
NO_CHARGES


@<TRIPOS>ATOM
   1 C1             0.2501     1.2707    -0.9271 C.ar    
   2 C2             0.2528    -0.0919    -0.6760 C.ar    
   3 C3             1.4560     1.9549    -0.9805 C.ar    
   4 C4             2.6230     1.2411    -0.7778 C.ar    
   5 C5             2.5514    -0.1255    -0.5145 C.ar    
   6 N6             1.3790    -0.7438    -0.4799 N.ar    
   7 C7             3.9649     1.9170    -0.8576 C.3     
   8 C8             4.9380     1.2691     0.1245 C.3     
   9 N9             4.9460    -0.1838    -0.0301 N.am    
  10 C10            3.8080    -0.8678    -0.2518 C.2     
  11 O11            3.8103    -2.0828    -0.2359 O.2     
  12 C12           -1.0495     2.0014    -1.1462 C.3     
  13 O13           -1.5464     2.4759     0.1069 O.3     
  14 C14           -2.7197     3.1613     0.0857 C.ar    
  15 C15           -3.2599     3.6506     1.2662 C.ar    
  16 C16           -4.4527     4.3470     1.2420 C.ar    
  17 C17           -5.1081     4.5565     0.0428 C.ar    
  18 C18           -4.5720     4.0695    -1.1350 C.ar    
  19 C19           -3.3763     3.3778    -1.1170 C.ar    
  20 C20            6.2157    -0.9093     0.0579 C.3     
  21 C21            6.7803    -0.7793     1.4739 C.3     
  22 C22            7.2104    -0.3197    -0.9440 C.3     
  23 C23            5.7234    -1.2232     2.4872 C.3     
  24 C24            8.0215    -1.6634     1.6112 C.3     
  25 C25            7.1608     0.6786     1.7394 C.3     
  26 H26           -0.6844    -0.6275    -0.6403 H       
  27 H27            1.4826     3.0168    -1.1757 H       
  28 H28            4.3572     1.8232    -1.8702 H       
  29 H29            3.8528     2.9730    -0.6118 H       
  30 H30            5.9411     1.6543    -0.0585 H       
  31 H31            4.6392     1.5194     1.1424 H       
  32 H32           -0.8832     2.8463    -1.8145 H       
  33 H33           -1.7770     1.3232    -1.5922 H       
  34 H34           -2.7485     3.4869     2.2032 H       
  35 H35           -4.8738     4.7278     2.1608 H       
  36 H36           -6.0405     5.1012     0.0260 H       
  37 H37           -5.0862     4.2339    -2.0704 H       
  38 H38           -2.9580     2.9976    -2.0372 H       
  39 H39            6.0494    -1.9618    -0.1718 H       
  40 H40            8.1551    -0.8595    -0.8786 H       
  41 H41            6.8082    -0.4123    -1.9528 H       
  42 H42            7.3767     0.7328    -0.7143 H       
  43 H43            5.4523    -2.2618     2.2980 H       
  44 H44            6.1256    -1.1306     3.4960 H       
  45 H45            4.8392    -0.5933     2.3894 H       
  46 H46            8.7745    -1.3472     0.8893 H       
  47 H47            8.4237    -1.5708     2.6200 H       
  48 H48            7.7504    -2.7021     1.4221 H       
  49 H49            6.2636     1.2973     1.7220 H       
  50 H50            7.6377     0.7576     2.7163 H       
  51 H51            7.8523     1.0198     0.9689 H       
@<TRIPOS>BOND
   1    1    2 ar
   2    1    3 ar
   3    1   12 1
   4    2    6 ar
   5    2   26 1
   6    3    4 ar
   7    3   27 1
   8    4    5 ar
   9    4    7 1
  10    5    6 ar
  11    5   10 1
  12    7    8 1
  13    7   28 1
  14    7   29 1
  15    8    9 1
  16    8   30 1
  17    8   31 1
  18    9   10 am
  19    9   20 1
  20   10   11 2
  21   12   13 1
  22   12   32 1
  23   12   33 1
  24   13   14 1
  25   14   15 ar
  26   14   19 ar
  27   15   16 ar
  28   15   34 1
  29   16   17 ar
  30   16   35 1
  31   17   18 ar
  32   17   36 1
  33   18   19 ar
  34   18   37 1
  35   19   38 1
  36   20   21 1
  37   20   22 1
  38   20   39 1
  39   21   23 1
  40   21   24 1
  41   21   25 1
  42   22   40 1
  43   22   41 1
  44   22   42 1
  45   23   43 1
  46   23   44 1
  47   23   45 1
  48   24   46 1
  49   24   47 1
  50   24   48 1
  51   25   49 1
  52   25   50 1
  53   25   51 1

#	End of record

