#	Name: ASD01890426
#	Creating user name:	WinNT
#	Creation time:	15. 06. 2019 19:50

#	Modifying user name:	WinNT
#	Modification time:	15. 06. 2019 19:50

#	Program:	/corina/corina34_cracker 3.40 0067  02.08.2006

@<TRIPOS>MOLECULE
ASD01890426
  40   43    0    0    0
SMALL
NO_CHARGES


@<TRIPOS>ATOM
   1 C1            -0.0177     1.4575     0.0101 C.2     
   2 C2             0.0021    -0.0041     0.0020 C.2     
   3 C3             1.1815    -0.6638    -0.0128 C.2     
   4 O4             1.0282     2.0806     0.0034 O.2     
   5 C5             2.4163    -2.8073    -0.0361 C.ar    
   6 C6             1.2015    -2.1337    -0.0209 C.ar    
   7 C7            -0.0117    -2.8502    -0.0127 C.ar    
   8 C8            -0.0177    -4.2066    -0.0194 C.ar    
   9 C9             1.1971    -4.9172    -0.0352 C.ar    
  10 C10            1.2137    -6.3215    -0.0428 C.ar    
  11 C11            2.4039    -6.9829    -0.0586 C.ar    
  12 C12            3.6118    -6.2877    -0.0675 C.ar    
  13 C13            3.6363    -4.9270    -0.0601 C.ar    
  14 C14            2.4263    -4.2089    -0.0442 C.ar    
  15 C15           -1.3207     3.5650     0.0277 C.ar    
  16 C16           -1.3079     2.1792     0.0201 C.ar    
  17 C17           -2.5130     1.4543     0.0214 C.ar    
  18 C18           -3.7100     2.0941     0.0301 C.ar    
  19 C19           -3.7566     3.5003     0.0379 C.ar    
  20 C20           -4.9835     4.1843     0.0463 C.ar    
  21 C21           -4.9973     5.5458     0.0534 C.ar    
  22 C22           -3.8102     6.2760     0.0519 C.ar    
  23 C23           -2.6025     5.6487     0.0437 C.ar    
  24 C24           -2.5482     4.2430     0.0367 C.ar    
  25 H25           -0.9258    -0.5567     0.0079 H       
  26 H26            2.1094    -0.1112    -0.0187 H       
  27 H27            3.3448    -2.2558    -0.0464 H       
  28 H28           -0.9484    -2.3128    -0.0005 H       
  29 H29           -0.9556    -4.7419    -0.0122 H       
  30 H30            0.2861    -6.8747    -0.0357 H       
  31 H31            2.4121    -8.0628    -0.0641 H       
  32 H32            4.5417    -6.8367    -0.0801 H       
  33 H33            4.5795    -4.4011    -0.0664 H       
  34 H34           -0.3930     4.1181     0.0311 H       
  35 H35           -2.4857     0.3746     0.0151 H       
  36 H36           -4.6270     1.5236     0.0306 H       
  37 H37           -5.9119     3.6326     0.0469 H       
  38 H38           -5.9426     6.0679     0.0599 H       
  39 H39           -3.8493     7.3553     0.0569 H       
  40 H40           -1.6904     6.2271     0.0423 H       
@<TRIPOS>BOND
   1    1    2 1
   2    1    4 2
   3    1   16 1
   4    2    3 2
   5    2   25 1
   6    3    6 1
   7    3   26 1
   8    5    6 ar
   9    5   14 ar
  10    5   27 1
  11    6    7 ar
  12    7    8 ar
  13    7   28 1
  14    8    9 ar
  15    8   29 1
  16    9   10 ar
  17    9   14 ar
  18   10   11 ar
  19   10   30 1
  20   11   12 ar
  21   11   31 1
  22   12   13 ar
  23   12   32 1
  24   13   14 ar
  25   13   33 1
  26   15   16 ar
  27   15   24 ar
  28   15   34 1
  29   16   17 ar
  30   17   18 ar
  31   17   35 1
  32   18   19 ar
  33   18   36 1
  34   19   20 ar
  35   19   24 ar
  36   20   21 ar
  37   20   37 1
  38   21   22 ar
  39   21   38 1
  40   22   23 ar
  41   22   39 1
  42   23   24 ar
  43   23   40 1

#	End of record

