#	Name: ASD03540271
#	Creating user name:	WinNT
#	Creation time:	15. 06. 2019 20:42

#	Modifying user name:	WinNT
#	Modification time:	15. 06. 2019 20:42

#	Program:	/corina/corina34_cracker 3.40 0067  02.08.2006

@<TRIPOS>MOLECULE
ASD03540271
  52   54    0    0    0
SMALL
NO_CHARGES


@<TRIPOS>ATOM
   1 C1            -0.0179     1.4653     0.0101 C.2     
   2 C2             0.0021    -0.0041     0.0020 C.2     
   3 C3             1.1635    -0.6537    -0.0126 C.2     
   4 C4             1.1839    -2.1606    -0.0208 C.3     
   5 O5             1.0263     2.0872     0.0035 O.2     
   6 O6            -1.1943     2.1233     0.0193 O.3     
   7 C7             3.2910    -2.8354    -1.0169 C.2     
   8 N8             4.0617    -3.2659    -2.0260 N.am    
   9 C9             3.5308    -3.5238    -3.2774 C.2     
  10 C10            2.1706    -3.3310    -3.4871 C.2     
  11 C11            1.3629    -2.8544    -2.3419 C.2     
  12 N12            1.9718    -2.6320    -1.1624 N.am    
  13 C13            1.7721    -3.6283    -4.7924 C.2     
  14 C14            2.7679    -4.0411    -5.5942 C.2     
  15 S15            4.2832    -4.0709    -4.7102 S.3     
  16 O16            0.1668    -2.6672    -2.4648 O.2     
  17 O17            3.8024    -2.6273     0.0663 O.2     
  18 C18            5.4950    -3.4668    -1.7992 C.3     
  19 C19            2.6112    -4.4126    -7.0024 C.2     
  20 N20            3.6814    -4.8143    -7.7164 N.am    
  21 O21            1.5146    -4.3585    -7.5277 O.2     
  22 C22            3.5248    -5.1858    -9.1248 C.3     
  23 C23            4.8615    -5.5941    -9.6883 C.ar    
  24 C24            5.2632    -6.9156    -9.6237 C.ar    
  25 C25            6.4880    -7.2924   -10.1395 C.ar    
  26 C26            7.3153    -6.3436   -10.7227 C.ar    
  27 C27            6.9100    -5.0184   -10.7863 C.ar    
  28 C28            5.6817    -4.6476   -10.2741 C.ar    
  29 O29            8.5210    -6.7118   -11.2305 O.3     
  30 C30            9.3201    -5.6819   -11.8160 C.3     
  31 C31           -1.1380     3.5742     0.0269 C.3     
  32 H32           -0.9258    -0.5567     0.0079 H       
  33 H33            2.0913    -0.1010    -0.0185 H       
  34 H34            1.6320    -2.5229     0.9044 H       
  35 H35            0.1644    -2.5373    -0.1027 H       
  36 H36            0.7500    -3.5346    -5.1285 H       
  37 H37            5.7379    -3.2174    -0.7663 H       
  38 H38            5.7506    -4.5089    -1.9910 H       
  39 H39            6.0629    -2.8237    -2.4714 H       
  40 H40            4.5554    -4.8574    -7.2978 H       
  41 H41            2.8267    -6.0191    -9.2053 H       
  42 H42            3.1394    -4.3336    -9.6847 H       
  43 H43            4.6189    -7.6537    -9.1693 H       
  44 H44            6.8015    -8.3246   -10.0885 H       
  45 H45            7.5523    -4.2779   -11.2398 H       
  46 H46            5.3637    -3.6169   -10.3276 H       
  47 H47            8.7783    -5.2296   -12.6466 H       
  48 H48            9.5379    -4.9208   -11.0667 H       
  49 H49           10.2537    -6.1099   -12.1812 H       
  50 H50           -0.6062     3.9125     0.9162 H       
  51 H51           -0.6146     3.9222    -0.8637 H       
  52 H52           -2.1507     3.9771     0.0339 H       
@<TRIPOS>BOND
   1    1    2 1
   2    1    5 2
   3    1    6 1
   4    2    3 2
   5    2   32 1
   6    3    4 1
   7    3   33 1
   8    4   12 1
   9    4   34 1
  10    4   35 1
  11    6   31 1
  12    7    8 am
  13    7   12 am
  14    7   17 2
  15    8    9 1
  16    8   18 1
  17    9   10 2
  18    9   15 1
  19   10   11 1
  20   10   13 1
  21   11   12 am
  22   11   16 2
  23   13   14 2
  24   13   36 1
  25   14   15 1
  26   14   19 1
  27   18   37 1
  28   18   38 1
  29   18   39 1
  30   19   20 am
  31   19   21 2
  32   20   22 1
  33   20   40 1
  34   22   23 1
  35   22   41 1
  36   22   42 1
  37   23   24 ar
  38   23   28 ar
  39   24   25 ar
  40   24   43 1
  41   25   26 ar
  42   25   44 1
  43   26   27 ar
  44   26   29 1
  45   27   28 ar
  46   27   45 1
  47   28   46 1
  48   29   30 1
  49   30   47 1
  50   30   48 1
  51   30   49 1
  52   31   50 1
  53   31   51 1
  54   31   52 1

#	End of record

