#	Name: ASD02508472
#	Creating user name:	WinNT
#	Creation time:	15. 06. 2019 20:24

#	Modifying user name:	WinNT
#	Modification time:	15. 06. 2019 20:24

#	Program:	/corina/corina34_cracker 3.40 0067  02.08.2006

@<TRIPOS>MOLECULE
ASD02508472
  32   34    0    0    0
SMALL
NO_CHARGES


@<TRIPOS>ATOM
   1 N1            -0.0292     1.3185     0.0154 N.2     
   2 C2             0.0176    -0.0175    -0.0998 C.2     
   3 C3             1.3086    -0.3969    -0.0815 C.2     
   4 N4             2.0568     0.7464     0.0486 N.pl3   
   5 C5             1.1844     1.7883     0.1051 C.2     
   6 C6             3.4478     0.8248     0.1117 C.ar    
   7 N7             4.0950     0.0981     1.0085 N.ar    
   8 N8             4.0880     1.6197    -0.7300 N.ar    
   9 C9             5.4073     1.7186    -0.6982 C.ar    
  10 C10            6.1180     0.9771     0.2308 C.ar    
  11 C11            5.4150     0.1488     1.0953 C.ar    
  12 S12            1.9208    -2.0448    -0.2010 S.o2    
  13 N13            1.9411    -2.4449    -1.8078 N.am    
  14 C14            2.7883    -1.7654    -2.6860 C.ar    
  15 C15            3.5369    -2.4732    -3.6174 C.ar    
  16 C16            4.3755    -1.7982    -4.4862 C.ar    
  17 C17            4.4691    -0.4178    -4.4275 C.ar    
  18 C18            3.7239     0.2899    -3.4993 C.ar    
  19 C19            2.8791    -0.3806    -2.6329 C.ar    
  20 O20            3.2778    -2.0001     0.2186 O.2     
  21 O21            0.9460    -2.8801     0.4083 O.2     
  22 Cl22           6.2555    -0.8023     2.2797 Cl      
  23 F23            3.8175     1.6365    -3.4438 F       
  24 F24            5.1039    -2.4862    -5.3924 F       
  25 H25           -0.8342    -0.6751    -0.1911 H       
  26 H26            1.4517     2.8297     0.2067 H       
  27 H27            5.9235     2.3692    -1.3886 H       
  28 H28            7.1952     1.0382     0.2786 H       
  29 H29            1.3646    -3.1511    -2.1390 H       
  30 H30            3.4648    -3.5498    -3.6631 H       
  31 H31            5.1245     0.1076    -5.1063 H       
  32 H32            2.2978     0.1718    -1.9094 H       
@<TRIPOS>BOND
   1    1    2 1
   2    1    5 2
   3    2    3 2
   4    2   25 1
   5    3    4 1
   6    3   12 1
   7    4    5 1
   8    4    6 1
   9    5   26 1
  10    6    7 ar
  11    6    8 ar
  12    7   11 ar
  13    8    9 ar
  14    9   10 ar
  15    9   27 1
  16   10   11 ar
  17   10   28 1
  18   11   22 1
  19   12   13 am
  20   12   20 2
  21   12   21 2
  22   13   14 1
  23   13   29 1
  24   14   15 ar
  25   14   19 ar
  26   15   16 ar
  27   15   30 1
  28   16   17 ar
  29   16   24 1
  30   17   18 ar
  31   17   31 1
  32   18   19 ar
  33   18   23 1
  34   19   32 1

#	End of record

