#	Name: ASD01883887
#	Creating user name:	WinNT
#	Creation time:	15. 06. 2019 19:47

#	Modifying user name:	WinNT
#	Modification time:	15. 06. 2019 19:47

#	Program:	/corina/corina34_cracker 3.40 0067  02.08.2006

@<TRIPOS>MOLECULE
ASD01883887
  47   50    0    0    0
SMALL
NO_CHARGES


@<TRIPOS>ATOM
   1 C1             1.6520     1.2378    -0.9182 C.ar    
   2 C2             2.0374    -0.0600    -1.0904 C.ar    
   3 C3             3.3950    -0.4032    -1.0332 C.ar    
   4 C4             4.3566     0.5958    -0.7976 C.ar    
   5 C5             3.9504     1.9089    -0.6247 C.ar    
   6 C6             2.6002     2.2297    -0.6848 C.ar    
   7 C7             3.8105    -1.7960    -1.2173 C.2     
   8 O8             4.9866    -2.0899    -1.1672 O.2     
   9 C9             2.7771    -2.8636    -1.4690 C.3     
  10 O10            5.6736     0.2754    -0.7397 O.3     
  11 O11            2.2037     3.5167    -0.5157 O.3     
  12 C12            0.8008     3.7784    -0.5899 C.3     
  13 C13            0.5525     5.2499    -0.3797 C.ar    
  14 C14            0.1189     7.0900     1.0928 C.ar    
  15 C15            0.3475     5.7403     0.8965 C.ar    
  16 C16            0.5356     6.1085    -1.4619 C.ar    
  17 C17            0.3069     7.4630    -1.2677 C.ar    
  18 C18            0.0958     7.9518     0.0138 C.ar    
  19 O19            0.2902     8.3097    -2.3305 O.3     
  20 C20           -0.8089     8.3122    -3.1255 C.ar    
  21 C21           -2.9508     7.5541    -3.5276 C.ar    
  22 N22           -1.8603     7.5836    -2.7878 N.ar    
  23 C23           -0.8176     9.0850    -4.2812 C.ar    
  24 C24           -1.9408     9.0829    -5.0856 C.ar    
  25 C25           -3.0324     8.2970    -4.7015 C.ar    
  26 F26            4.8660     2.8760    -0.3979 F       
  27 C27           -4.2626     8.2603    -5.5314 C.2     
  28 N28           -5.3586     7.5706    -5.2846 N.2     
  29 N29           -6.1945     7.8045    -6.2372 N.pl3   
  30 N30           -5.6631     8.6202    -7.0794 N.2     
  31 N31           -4.4773     8.9265    -6.6747 N.2     
  32 H32            0.6048     1.4976    -0.9676 H       
  33 H33            1.2953    -0.8236    -1.2706 H       
  34 H34            2.6106    -2.9625    -2.5417 H       
  35 H35            3.1303    -3.8132    -1.0671 H       
  36 H36            1.8427    -2.5873    -0.9803 H       
  37 H37            6.1269     0.3189    -1.5928 H       
  38 H38            0.4275     3.4834    -1.5706 H       
  39 H39            0.2836     3.2087     0.1822 H       
  40 H40           -0.0417     7.4705     2.0908 H       
  41 H41            0.3655     5.0681     1.7417 H       
  42 H42            0.7005     5.7256    -2.4582 H       
  43 H43           -0.0831     9.0057     0.1676 H       
  44 H44           -3.7894     6.9472    -3.2197 H       
  45 H45            0.0435     9.6802    -4.5468 H       
  46 H46           -1.9753     9.6739    -5.9889 H       
  47 H47           -7.0843     7.4250    -6.3086 H       
@<TRIPOS>BOND
   1    1    2 ar
   2    1    6 ar
   3    1   32 1
   4    2    3 ar
   5    2   33 1
   6    3    4 ar
   7    3    7 1
   8    4    5 ar
   9    4   10 1
  10    5    6 ar
  11    5   26 1
  12    6   11 1
  13    7    8 2
  14    7    9 1
  15    9   34 1
  16    9   35 1
  17    9   36 1
  18   10   37 1
  19   11   12 1
  20   12   13 1
  21   12   38 1
  22   12   39 1
  23   13   16 ar
  24   13   15 ar
  25   14   15 ar
  26   14   18 ar
  27   14   40 1
  28   15   41 1
  29   16   17 ar
  30   16   42 1
  31   17   18 ar
  32   17   19 1
  33   18   43 1
  34   19   20 1
  35   20   23 ar
  36   20   22 ar
  37   21   22 ar
  38   21   25 ar
  39   21   44 1
  40   23   24 ar
  41   23   45 1
  42   24   25 ar
  43   24   46 1
  44   25   27 1
  45   27   28 2
  46   27   31 1
  47   28   29 1
  48   29   30 1
  49   29   47 1
  50   30   31 2

#	End of record

