#	Name: ASD01200015
#	Creating user name:	WinNT
#	Creation time:	15. 06. 2019 19:08

#	Modifying user name:	WinNT
#	Modification time:	15. 06. 2019 19:08

#	Program:	/corina/corina34_cracker 3.40 0067  02.08.2006

@<TRIPOS>MOLECULE
ASD01200015
  40   42    0    0    0
SMALL
NO_CHARGES


@<TRIPOS>ATOM
   1 C1             0.0891     1.2525     0.0197 C.ar    
   2 N2             0.0600    -0.1419    -0.0992 N.am    
   3 C3             1.1841    -0.8148    -0.4157 C.2     
   4 N4             1.1794    -2.1624    -0.4370 N.am    
   5 C5             2.3386    -2.8563    -0.7634 C.2     
   6 O6             2.2023    -0.2061    -0.6822 O.2     
   7 S7             2.4750    -4.5593    -0.8288 S.3     
   8 C8             4.1698    -4.4166    -1.2880 C.2     
   9 C9             4.4740    -3.1191    -1.3492 C.2     
  10 N10            3.4723    -2.3065    -1.0680 N.2     
  11 C11           -0.2758     1.8561     1.2157 C.ar    
  12 C12           -0.2460     3.2324     1.3313 C.ar    
  13 C13            0.1465     4.0099     0.2566 C.ar    
  14 C14            0.5106     3.4108    -0.9381 C.ar    
  15 C15            0.4883     2.0341    -1.0565 C.ar    
  16 Cl16           0.1821     5.7392     0.4051 Cl      
  17 Cl17           1.0021     4.3895    -2.2850 Cl      
  18 C18           -1.1922    -0.8699     0.1204 C.3     
  19 C19           -1.9576    -0.9780    -1.2000 C.3     
  20 C20           -3.1910    -1.8805    -1.0219 C.3     
  21 C21           -4.4239    -1.0098    -1.3406 C.3     
  22 C22           -3.8694     0.1162    -2.2481 C.3     
  23 C23           -2.4840     0.4097    -1.6207 C.3     
  24 H24            0.3671    -2.6480    -0.2244 H       
  25 H25            4.8448    -5.2364    -1.4848 H       
  26 H26            5.4592    -2.7623    -1.6112 H       
  27 H27           -0.5830     1.2500     2.0551 H       
  28 H28           -0.5298     3.7019     2.2616 H       
  29 H29            0.7726     1.5669    -1.9878 H       
  30 H30           -0.9706    -1.8693     0.4948 H       
  31 H31           -1.8002    -0.3351     0.8501 H       
  32 H32           -1.3077    -1.3826    -1.9759 H       
  33 H33           -3.1402    -2.7227    -1.7119 H       
  34 H34           -3.2444    -2.2416     0.0052 H       
  35 H35           -5.1756    -1.5930    -1.8725 H       
  36 H36           -4.8421    -0.5909    -0.4253 H       
  37 H37           -3.7622    -0.2330    -3.2751 H       
  38 H38           -4.5083     0.9982    -2.2036 H       
  39 H39           -2.5888     1.0578    -0.7507 H       
  40 H40           -1.8199     0.8624    -2.3571 H       
@<TRIPOS>BOND
   1    1    2 1
   2    1   11 ar
   3    1   15 ar
   4    2    3 am
   5    2   18 1
   6    3    4 am
   7    3    6 2
   8    4    5 1
   9    4   24 1
  10    5    7 1
  11    5   10 2
  12    7    8 1
  13    8    9 2
  14    8   25 1
  15    9   10 1
  16    9   26 1
  17   11   12 ar
  18   11   27 1
  19   12   13 ar
  20   12   28 1
  21   13   14 ar
  22   13   16 1
  23   14   15 ar
  24   14   17 1
  25   15   29 1
  26   18   19 1
  27   18   30 1
  28   18   31 1
  29   19   20 1
  30   19   23 1
  31   19   32 1
  32   20   21 1
  33   20   33 1
  34   20   34 1
  35   21   22 1
  36   21   35 1
  37   21   36 1
  38   22   23 1
  39   22   37 1
  40   22   38 1
  41   23   39 1
  42   23   40 1

#	End of record

