#	Name: ASD09740147
#	Creating user name:	WinNT
#	Creation time:	15. 06. 2019 21:22

#	Modifying user name:	WinNT
#	Modification time:	15. 06. 2019 21:22

#	Program:	/corina/corina34_cracker 3.40 0067  02.08.2006

@<TRIPOS>MOLECULE
ASD09740147
  49   53    0    0    0
SMALL
NO_CHARGES


@<TRIPOS>ATOM
   1 O1            -0.2489     1.3696    -0.0239 O.3     
   2 N2            -0.3285     0.1623     0.0587 N.2     
   3 C3             1.0320     1.7526     0.0952 C.2     
   4 N4             1.7461     0.6546     0.2612 N.2     
   5 C5             0.8578    -0.3607     0.2356 C.2     
   6 C6             1.1690    -1.8048     0.3813 C.ar    
   7 C7             1.5446     3.1373     0.0493 C.ar    
   8 C8             0.1454    -2.7487     0.3346 C.ar    
   9 C9             2.4864    -2.2215     0.5596 C.ar    
  10 C10            2.7701    -3.5655     0.6946 C.ar    
  11 C11            1.7494    -4.4980     0.6532 C.ar    
  12 C12            0.4403    -4.0901     0.4707 C.ar    
  13 C13            0.6611     4.2040    -0.1334 C.ar    
  14 C14            1.1397     5.4940    -0.1756 C.ar    
  15 C15            2.5066     5.7363    -0.0359 C.ar    
  16 C16            3.3895     4.6721     0.1461 C.ar    
  17 C17            2.9122     3.3814     0.1943 C.ar    
  18 C18            2.0653    -5.9640     0.8011 C.3     
  19 C19            3.0210     7.1263    -0.0815 C.ar    
  20 C20            2.5593     8.0735     0.8311 C.ar    
  21 C21            3.9724     7.4893    -1.0335 C.ar    
  22 C22            4.4476     8.7844    -1.0712 C.ar    
  23 C23            3.9815     9.7216    -0.1666 C.ar    
  24 C24            3.0416     9.3656     0.7839 C.ar    
  25 N25            3.2338    -6.1449     1.6698 N.2     
  26 C26            3.0371    -7.0903     2.5055 C.2     
  27 C27            1.6601    -7.6783     2.2921 C.3     
  28 N28            0.9466    -6.6626     1.4784 N.3     
  29 C29            0.1870     6.6448    -0.3731 C.3     
  30 F30           -1.0943     6.1493    -0.6375 F       
  31 F31            0.1544     7.4275     0.7860 F       
  32 F32            0.6166     7.4259    -1.4514 F       
  33 H33           -0.8771    -2.4313     0.1926 H       
  34 H34            3.2842    -1.4943     0.5917 H       
  35 H35            3.7911    -3.8897     0.8324 H       
  36 H36           -0.3530    -4.8223     0.4395 H       
  37 H37           -0.3970     4.0166    -0.2419 H       
  38 H38            4.4475     4.8607     0.2534 H       
  39 H39            3.5960     2.5574     0.3352 H       
  40 H40            2.2510    -6.4088    -0.1765 H       
  41 H41            1.8253     7.7968     1.5734 H       
  42 H42            4.3372     6.7584    -1.7399 H       
  43 H43            5.1849     9.0668    -1.8080 H       
  44 H44            4.3564    10.7339    -0.1996 H       
  45 H45            2.6813    10.1014     1.4876 H       
  46 H46            3.7459    -7.4197     3.2508 H       
  47 H47            1.7285    -8.6212     1.7496 H       
  48 H48            1.1558    -7.8234     3.2475 H       
  49 H49            0.4271    -6.0281     2.0663 H       
@<TRIPOS>BOND
   1    1    2 1
   2    1    3 1
   3    2    5 2
   4    3    4 2
   5    3    7 1
   6    4    5 1
   7    5    6 1
   8    6    8 ar
   9    6    9 ar
  10    7   13 ar
  11    7   17 ar
  12    8   12 ar
  13    8   33 1
  14    9   10 ar
  15    9   34 1
  16   10   11 ar
  17   10   35 1
  18   11   12 ar
  19   11   18 1
  20   12   36 1
  21   13   14 ar
  22   13   37 1
  23   14   15 ar
  24   14   29 1
  25   15   16 ar
  26   15   19 1
  27   16   17 ar
  28   16   38 1
  29   17   39 1
  30   18   25 1
  31   18   28 1
  32   18   40 1
  33   19   20 ar
  34   19   21 ar
  35   20   24 ar
  36   20   41 1
  37   21   22 ar
  38   21   42 1
  39   22   23 ar
  40   22   43 1
  41   23   24 ar
  42   23   44 1
  43   24   45 1
  44   25   26 2
  45   26   27 1
  46   26   46 1
  47   27   28 1
  48   27   47 1
  49   27   48 1
  50   28   49 1
  51   29   30 1
  52   29   31 1
  53   29   32 1

#	End of record

