#	Name: ASD05170085
#	Creating user name:	WinNT
#	Creation time:	15. 06. 2019 20:57

#	Modifying user name:	WinNT
#	Modification time:	15. 06. 2019 20:57

#	Program:	/corina/corina34_cracker 3.40 0067  02.08.2006

@<TRIPOS>MOLECULE
ASD05170085
  47   50    0    0    0
SMALL
NO_CHARGES


@<TRIPOS>ATOM
   1 C1            -0.2243     1.4606    -1.1269 C.ar    
   2 C2            -0.2356     0.0855    -1.2812 C.ar    
   3 C3             0.9622    -0.6064    -1.1450 C.ar    
   4 C4             2.1191     0.0956    -0.8617 C.ar    
   5 N5             2.0959     1.4076    -0.7201 N.ar    
   6 C6             0.9759     2.0994    -0.8430 C.ar    
   7 O7             0.9992     3.4478    -0.6900 O.3     
   8 C8             2.2640     4.0459    -0.3990 C.3     
   9 C9             2.0952     5.5374    -0.2644 C.2     
  10 C10            0.8931     6.2459    -0.3942 C.2     
  11 N11            3.0473     6.4013     0.0008 N.2     
  12 C12            1.2295     7.5546    -0.1941 C.2     
  13 C13            0.4214     8.7834    -0.1952 C.2     
  14 N14            2.5833     7.5880     0.0587 N.pl3   
  15 C15            3.2696     8.8514     0.3545 C.3     
  16 C16            2.5534     9.9940    -0.3642 C.3     
  17 N17            1.1055     9.9530    -0.1744 N.am    
  18 O18           -0.7944     8.7516    -0.2141 O.2     
  19 C19            3.2479     9.1036     1.8634 C.3     
  20 F20            0.9956    -1.9494    -1.2873 F       
  21 C21            0.4103    11.1476     0.0377 C.ar    
  22 C22            0.3130    12.0864    -0.9821 C.ar    
  23 C23           -0.3738    13.2663    -0.7724 C.ar    
  24 C24           -0.9661    13.5162     0.4511 C.ar    
  25 C25           -0.8722    12.5823     1.4732 C.ar    
  26 C26           -0.1883    11.3946     1.2651 C.ar    
  27 O27           -1.4544    12.8298     2.6760 O.3     
  28 C28           -2.1469    14.0717     2.8182 C.3     
  29 H29           -1.1360     2.0302    -1.2304 H       
  30 H30           -1.1540    -0.4382    -1.5020 H       
  31 H31            3.0530    -0.4361    -0.7546 H       
  32 H32            2.6524     3.6385     0.5344 H       
  33 H33            2.9623     3.8308    -1.2078 H       
  34 H34           -0.0867     5.8444    -0.6067 H       
  35 H35            4.3019     8.7944     0.0091 H       
  36 H36            2.9318    10.9424     0.0172 H       
  37 H37            2.7727     9.9324    -1.4301 H       
  38 H38            3.7554     8.2862     2.3757 H       
  39 H39            3.7576    10.0418     2.0823 H       
  40 H40            2.2152     9.1623     2.2071 H       
  41 H41            0.7749    11.8936    -1.9391 H       
  42 H42           -0.4477    13.9951    -1.5660 H       
  43 H43           -1.5024    14.4397     0.6120 H       
  44 H44           -0.1177    10.6648     2.0581 H       
  45 H45           -1.4527    14.8958     2.6536 H       
  46 H46           -2.9530    14.1241     2.0863 H       
  47 H47           -2.5633    14.1425     3.8230 H       
@<TRIPOS>BOND
   1    1    2 ar
   2    1    6 ar
   3    1   29 1
   4    2    3 ar
   5    2   30 1
   6    3    4 ar
   7    3   20 1
   8    4    5 ar
   9    4   31 1
  10    5    6 ar
  11    6    7 1
  12    7    8 1
  13    8    9 1
  14    8   32 1
  15    8   33 1
  16    9   11 2
  17    9   10 1
  18   10   12 2
  19   10   34 1
  20   11   14 1
  21   12   14 1
  22   12   13 1
  23   13   17 am
  24   13   18 2
  25   14   15 1
  26   15   16 1
  27   15   19 1
  28   15   35 1
  29   16   17 1
  30   16   36 1
  31   16   37 1
  32   17   21 1
  33   19   38 1
  34   19   39 1
  35   19   40 1
  36   21   22 ar
  37   21   26 ar
  38   22   23 ar
  39   22   41 1
  40   23   24 ar
  41   23   42 1
  42   24   25 ar
  43   24   43 1
  44   25   26 ar
  45   25   27 1
  46   26   44 1
  47   27   28 1
  48   28   45 1
  49   28   46 1
  50   28   47 1

#	End of record

