#	Name: ASD01890010
#	Creating user name:	WinNT
#	Creation time:	15. 06. 2019 19:50

#	Modifying user name:	WinNT
#	Modification time:	15. 06. 2019 19:50

#	Program:	/corina/corina34_cracker 3.40 0067  02.08.2006

@<TRIPOS>MOLECULE
ASD01890010
 103  105    0    0    0
SMALL
NO_CHARGES


@<TRIPOS>ATOM
   1 C1            -0.2233     2.7952     0.5423 C.3     
   2 C2            -0.0185     1.3040     0.4689 C.2     
   3 N3             0.2397     0.6033     1.5909 N.am    
   4 C4             0.4388    -0.8464     1.5196 C.3     
   5 C5             1.2796    -1.2960     2.6866 C.2     
   6 N6             1.5935    -2.5989     2.8286 N.am    
   7 C7             1.1359     3.4934     0.6198 C.3     
   8 N8            -0.9401     3.2506    -0.6564 N.3     
   9 C9             0.9269     4.9959     0.8195 C.3     
  10 C10            2.2861     5.6941     0.8970 C.3     
  11 N11            2.0854     7.1366     1.0888 N.3     
  12 O12           -0.0862     0.7345    -0.5997 O.2     
  13 C13           -0.9187    -1.5505     1.5678 C.3     
  14 C14           -1.7125    -1.1961     0.3368 C.ar    
  15 C15           -1.6077    -1.9758    -0.8002 C.ar    
  16 O16            1.6738    -0.4853     3.4980 O.2     
  17 C17            2.4109    -3.0360     3.9631 C.3     
  18 C18            1.5247    -3.2677     5.1608 C.2     
  19 N19            1.0210    -4.4873     5.3999 N.am    
  20 C20            1.4255    -5.7479     4.7551 C.3     
  21 C21            2.1186    -5.4651     3.4299 C.3     
  22 C22            3.1325    -4.3343     3.6005 C.3     
  23 C23           -0.0763    -4.8266     6.3196 C.3     
  24 C24           -0.7339    -6.1114     5.7771 C.3     
  25 C25            0.0865    -6.4817     4.5179 C.3     
  26 O26            1.2671    -2.3491     5.9097 O.2     
  27 C27           -1.0845    -3.7070     6.3535 C.2     
  28 O28           -0.9122    -2.7151     5.6773 O.2     
  29 N29           -2.1777    -3.8081     7.1354 N.am    
  30 C30           -3.1577    -2.7197     7.1684 C.3     
  31 C31           -2.7118    -1.6624     8.1804 C.3     
  32 C32           -4.5024    -3.2667     7.5729 C.2     
  33 C33           -1.4080    -1.0187     7.7044 C.3     
  34 N34           -5.5637    -2.4418     7.6710 N.am    
  35 O35           -4.6296    -4.4493     7.8103 O.2     
  36 C36           -6.8709    -2.9736     8.0642 C.3     
  37 C37           -6.9587    -3.0300     9.5676 C.2     
  38 C38           -7.9755    -2.0639     7.5227 C.3     
  39 O39           -6.0216    -2.6622    10.2440 O.2     
  40 N40           -8.0785    -3.4891    10.1605 N.am    
  41 C41           -7.9478    -2.0831     5.9930 C.3     
  42 C42           -8.3119    -3.4829     5.4940 C.3     
  43 C43           -8.9584    -1.0699     5.4519 C.3     
  44 C44           -2.3343    -1.6530    -1.9299 C.ar    
  45 C45           -3.1696    -0.5454    -1.9229 C.ar    
  46 C46           -3.2730     0.2354    -0.7809 C.ar    
  47 C47           -2.5486    -0.0949     0.3481 C.ar    
  48 O48           -3.8851    -0.2255    -3.0332 O.3     
  49 C49           -0.9688     0.0227     8.7012 C.2     
  50 O50           -1.6307     0.2289     9.6908 O.2     
  51 O51            0.1577     0.7213     8.4897 O.3     
  52 H52           -0.8078     3.0385     1.4295 H       
  53 H53            0.2938     1.0588     2.4456 H       
  54 H54            0.9458    -1.0981     0.5881 H       
  55 H55            1.2782    -3.2473     2.1797 H       
  56 H56            1.7039     3.0909     1.4585 H       
  57 H57            1.6853     3.3230    -0.3061 H       
  58 H58           -0.4182     3.0365    -1.4930 H       
  59 H59           -1.8666     2.8531    -0.6965 H       
  60 H60            0.3589     5.3984    -0.0193 H       
  61 H61            0.3776     5.1663     1.7454 H       
  62 H62            2.8540     5.2916     1.7358 H       
  63 H63            2.8354     5.5236    -0.0289 H       
  64 H64            1.5230     7.3178     1.9067 H       
  65 H65            2.9690     7.6206     1.1431 H       
  66 H66           -0.7674    -2.6293     1.6044 H       
  67 H67           -1.4631    -1.2297     2.4560 H       
  68 H68           -0.9570    -2.8378    -0.8052 H       
  69 H69            3.1458    -2.2663     4.1988 H       
  70 H70            2.0796    -6.3207     5.4125 H       
  71 H71            2.6335    -6.3644     3.0919 H       
  72 H72            1.3749    -5.1756     2.6874 H       
  73 H73            3.6799    -4.1954     2.6682 H       
  74 H74            3.8330    -4.5931     4.3945 H       
  75 H75            0.3178    -5.0039     7.3202 H       
  76 H76           -0.6728    -6.9095     6.5170 H       
  77 H77           -1.7732    -5.9209     5.5094 H       
  78 H78           -0.4020    -6.1123     3.6162 H       
  79 H79            0.2413    -7.5592     4.4608 H       
  80 H80           -2.3155    -4.6014     7.6762 H       
  81 H81           -3.2320    -2.2675     6.1794 H       
  82 H82           -3.4831    -0.8974     8.2703 H       
  83 H83           -2.5518    -2.1327     9.1506 H       
  84 H84           -0.6368    -1.7837     7.6145 H       
  85 H85           -1.5681    -0.5483     6.7342 H       
  86 H86           -5.4620    -1.4960     7.4811 H       
  87 H87           -6.9932    -3.9765     7.6553 H       
  88 H88           -8.9441    -2.4203     7.8731 H       
  89 H89           -7.8135    -1.0456     7.8762 H       
  90 H90           -8.8281    -3.7833     9.6196 H       
  91 H91           -8.1350    -3.5254    11.1282 H       
  92 H92           -6.9488    -1.8216     5.6444 H       
  93 H93           -9.3110    -3.7445     5.8426 H       
  94 H94           -8.2922    -3.4966     4.4042 H       
  95 H95           -7.5919    -4.2048     5.8795 H       
  96 H96           -8.7512    -0.0877     5.8766 H       
  97 H97           -8.8775    -1.0205     4.3660 H       
  98 H98           -9.9665    -1.3795     5.7274 H       
  99 H99           -2.2518    -2.2622    -2.8179 H       
 100 H100          -3.9226     1.0982    -0.7730 H       
 101 H101          -2.6287     0.5126     1.2375 H       
 102 H102          -4.7590    -0.6376    -3.0702 H       
 103 H103           0.3986     1.3784     9.1570 H       
@<TRIPOS>BOND
   1    1    2 1
   2    1    7 1
   3    1    8 1
   4    1   52 1
   5    2    3 am
   6    2   12 2
   7    3    4 1
   8    3   53 1
   9    4    5 1
  10    4   13 1
  11    4   54 1
  12    5    6 am
  13    5   16 2
  14    6   17 1
  15    6   55 1
  16    7    9 1
  17    7   56 1
  18    7   57 1
  19    8   58 1
  20    8   59 1
  21    9   10 1
  22    9   60 1
  23    9   61 1
  24   10   11 1
  25   10   62 1
  26   10   63 1
  27   11   64 1
  28   11   65 1
  29   13   14 1
  30   13   66 1
  31   13   67 1
  32   14   15 ar
  33   14   47 ar
  34   15   44 ar
  35   15   68 1
  36   17   18 1
  37   17   22 1
  38   17   69 1
  39   18   19 am
  40   18   26 2
  41   19   20 1
  42   19   23 1
  43   20   21 1
  44   20   25 1
  45   20   70 1
  46   21   22 1
  47   21   71 1
  48   21   72 1
  49   22   73 1
  50   22   74 1
  51   23   24 1
  52   23   27 1
  53   23   75 1
  54   24   25 1
  55   24   76 1
  56   24   77 1
  57   25   78 1
  58   25   79 1
  59   27   28 2
  60   27   29 am
  61   29   30 1
  62   29   80 1
  63   30   31 1
  64   30   32 1
  65   30   81 1
  66   31   33 1
  67   31   82 1
  68   31   83 1
  69   32   34 am
  70   32   35 2
  71   33   49 1
  72   33   84 1
  73   33   85 1
  74   34   36 1
  75   34   86 1
  76   36   37 1
  77   36   38 1
  78   36   87 1
  79   37   39 2
  80   37   40 am
  81   38   41 1
  82   38   88 1
  83   38   89 1
  84   40   90 1
  85   40   91 1
  86   41   42 1
  87   41   43 1
  88   41   92 1
  89   42   93 1
  90   42   94 1
  91   42   95 1
  92   43   96 1
  93   43   97 1
  94   43   98 1
  95   44   45 ar
  96   44   99 1
  97   45   46 ar
  98   45   48 1
  99   46   47 ar
 100   46  100 1
 101   47  101 1
 102   48  102 1
 103   49   50 2
 104   49   51 1
 105   51  103 1

#	End of record

