#	Name: ASD01880904
#	Creating user name:	WinNT
#	Creation time:	15. 06. 2019 19:41

#	Modifying user name:	WinNT
#	Modification time:	15. 06. 2019 19:41

#	Program:	/corina/corina34_cracker 3.40 0067  02.08.2006

@<TRIPOS>MOLECULE
ASD01880904
  49   54    0    0    0
SMALL
NO_CHARGES


@<TRIPOS>ATOM
   1 C1            -0.0169     1.3929     0.0097 C.ar    
   2 C2             0.0021    -0.0041     0.0020 C.ar    
   3 C3             1.2138    -0.6908    -0.0132 C.ar    
   4 C4             2.4023     0.0194    -0.0208 C.ar    
   5 C5             2.3728     1.4247    -0.0130 C.ar    
   6 C6             1.1521     2.1001     0.0023 C.ar    
   7 N7             3.6288    -0.6375    -0.0355 N.pl3   
   8 C8             4.7930     0.0689    -0.0425 C.2     
   9 N9             4.8015     1.4564    -0.0360 N.am    
  10 C10            3.6501     2.1586    -0.0210 C.2     
  11 N11            3.9496    -2.0025    -0.0448 N.2     
  12 C12            5.2609    -2.1198    -0.0570 C.2     
  13 C13            5.8181    -0.8298    -0.0559 C.2     
  14 O14            3.6660     3.3752    -0.0157 O.2     
  15 C15           -1.2738    -0.7592     0.0106 C.ar    
  16 C16            6.0199    -3.3950    -0.0698 C.ar    
  17 C17           -2.4856    -0.0837     0.0263 C.ar    
  18 C18           -3.6661    -0.8470     0.0334 C.ar    
  19 C19           -3.5734    -2.2614     0.0244 C.ar    
  20 N20           -2.3752    -2.8558     0.0098 N.ar    
  21 C21           -1.2647    -2.1637    -0.0029 C.ar    
  22 C22            5.3419    -4.6123    -0.0701 C.ar    
  23 C23            7.4131    -3.3793    -0.0874 C.ar    
  24 C24            8.1139    -4.5683    -0.0992 C.ar    
  25 C25            7.4358    -5.7738    -0.0936 C.ar    
  26 C26            6.0528    -5.7952    -0.0819 C.ar    
  27 C27            6.0811     2.1697    -0.0441 C.3     
  28 C28           -4.9303    -0.2336     0.0498 C.ar    
  29 C29           -6.0522    -1.0046     0.0567 C.ar    
  30 C30           -5.9633    -2.3953     0.0478 C.ar    
  31 C31           -4.7553    -3.0222     0.0315 C.ar    
  32 H32           -0.9612     1.9169     0.0170 H       
  33 H33            1.2261    -1.7707    -0.0188 H       
  34 H34            1.1313     3.1798     0.0080 H       
  35 H35            6.8717    -0.5924    -0.0639 H       
  36 H36           -2.5209     0.9957     0.0332 H       
  37 H37           -0.3188    -2.6847    -0.0148 H       
  38 H38            4.2621    -4.6301    -0.0606 H       
  39 H39            7.9435    -2.4386    -0.0921 H       
  40 H40            9.1938    -4.5573    -0.1132 H       
  41 H41            7.9882    -6.7019    -0.1029 H       
  42 H42            5.5283    -6.7393    -0.0772 H       
  43 H43            6.3892     2.3515    -1.0738 H       
  44 H44            5.9697     3.1215     0.4752 H       
  45 H45            6.8363     1.5668     0.4601 H       
  46 H46           -5.0113     0.8433     0.0572 H       
  47 H47           -7.0235    -0.5325     0.0696 H       
  48 H48           -6.8679    -2.9853     0.0539 H       
  49 H49           -4.7051    -4.1010     0.0248 H       
@<TRIPOS>BOND
   1    1    2 ar
   2    1    6 ar
   3    1   32 1
   4    2    3 ar
   5    2   15 1
   6    3    4 ar
   7    3   33 1
   8    4    5 ar
   9    4    7 1
  10    5    6 ar
  11    5   10 1
  12    6   34 1
  13    7    8 1
  14    7   11 1
  15    8    9 1
  16    8   13 2
  17    9   10 am
  18    9   27 1
  19   10   14 2
  20   11   12 2
  21   12   13 1
  22   12   16 1
  23   13   35 1
  24   15   17 ar
  25   15   21 ar
  26   16   22 ar
  27   16   23 ar
  28   17   18 ar
  29   17   36 1
  30   18   19 ar
  31   18   28 ar
  32   19   20 ar
  33   19   31 ar
  34   20   21 ar
  35   21   37 1
  36   22   26 ar
  37   22   38 1
  38   23   24 ar
  39   23   39 1
  40   24   25 ar
  41   24   40 1
  42   25   26 ar
  43   25   41 1
  44   26   42 1
  45   27   43 1
  46   27   44 1
  47   27   45 1
  48   28   29 ar
  49   28   46 1
  50   29   30 ar
  51   29   47 1
  52   30   31 ar
  53   30   48 1
  54   31   49 1

#	End of record

