#	Name: ASD09740036
#	Creating user name:	WinNT
#	Creation time:	15. 06. 2019 21:22

#	Modifying user name:	WinNT
#	Modification time:	15. 06. 2019 21:22

#	Program:	/corina/corina34_cracker 3.40 0067  02.08.2006

@<TRIPOS>MOLECULE
ASD09740036
  46   49    0    0    0
SMALL
NO_CHARGES


@<TRIPOS>ATOM
   1 N1            -0.0137     1.2088     0.0108 N.2     
   2 O2             0.0026    -0.0038    -0.0001 O.3     
   3 C3             1.2068     1.6802     0.0130 C.2     
   4 N4             2.0467     0.6242     0.0020 N.2     
   5 C5             1.2706    -0.4439    -0.0063 C.2     
   6 C6             1.7131    -1.8532    -0.0193 C.ar    
   7 C7             1.5958     3.1128     0.0246 C.ar    
   8 C8             2.9414     3.4689     0.0251 C.ar    
   9 C9             3.2981     4.8024     0.0357 C.ar    
  10 C10            2.3218     5.7801     0.0464 C.ar    
  11 C11            0.9797     5.4333     0.0461 C.ar    
  12 C12            0.6126     4.1031     0.0292 C.ar    
  13 C13            3.0783    -2.1576    -0.0240 C.ar    
  14 C14            0.7709    -2.8788    -0.0213 C.ar    
  15 C15            1.1939    -4.2067    -0.0337 C.ar    
  16 C16            2.5661    -4.5004    -0.0440 C.ar    
  17 C17            3.4965    -3.4699    -0.0366 C.ar    
  18 O18            2.9833    -5.7905    -0.0556 O.3     
  19 C19            4.3887    -6.0167    -0.1807 C.3     
  20 C20            5.0423    -5.9417     1.2007 C.3     
  21 C21           -0.2575     6.3057     0.0564 C.3     
  22 C22           -1.4087     5.3793    -0.3895 C.3     
  23 C23           -0.8965     3.9871     0.0324 C.3     
  24 O24           -0.5029     6.8027     1.3735 O.3     
  25 C25            4.6306    -7.4014    -0.7848 C.3     
  26 C26            0.2319    -5.2675    -0.0353 C.1     
  27 N27           -0.5312    -6.1090    -0.0366 N.1     
  28 H28            3.7041     2.7042     0.0175 H       
  29 H29            4.3413     5.0817     0.0361 H       
  30 H30            2.6063     6.8219     0.0553 H       
  31 H31            3.8072    -1.3607    -0.0179 H       
  32 H32           -0.2837    -2.6460    -0.0130 H       
  33 H33            4.5521    -3.6980    -0.0446 H       
  34 H34            4.8228    -5.2562    -0.8298 H       
  35 H35            6.1143    -6.1142     1.1052 H       
  36 H36            4.8700    -4.9552     1.6311 H       
  37 H37            4.6083    -6.7022     1.8498 H       
  38 H38           -0.1436     7.1320    -0.6453 H       
  39 H39           -2.3320     5.6294     0.1330 H       
  40 H40           -1.5482     5.4268    -1.4695 H       
  41 H41           -1.2199     3.2320    -0.6840 H       
  42 H42           -1.2543     3.7394     1.0318 H       
  43 H43            0.2082     7.3567     1.7236 H       
  44 H44            4.1650    -7.4548    -1.7689 H       
  45 H45            5.7026    -7.5739    -0.8802 H       
  46 H46            4.1965    -8.1619    -0.1357 H       
@<TRIPOS>BOND
   1    1    2 1
   2    1    3 2
   3    2    5 1
   4    3    4 1
   5    3    7 1
   6    4    5 2
   7    5    6 1
   8    6   13 ar
   9    6   14 ar
  10    7    8 ar
  11    7   12 ar
  12    8    9 ar
  13    8   28 1
  14    9   10 ar
  15    9   29 1
  16   10   11 ar
  17   10   30 1
  18   11   12 ar
  19   11   21 1
  20   12   23 1
  21   13   17 ar
  22   13   31 1
  23   14   15 ar
  24   14   32 1
  25   15   16 ar
  26   15   26 1
  27   16   17 ar
  28   16   18 1
  29   17   33 1
  30   18   19 1
  31   19   20 1
  32   19   25 1
  33   19   34 1
  34   20   35 1
  35   20   36 1
  36   20   37 1
  37   21   22 1
  38   21   24 1
  39   21   38 1
  40   22   23 1
  41   22   39 1
  42   22   40 1
  43   23   41 1
  44   23   42 1
  45   24   43 1
  46   25   44 1
  47   25   45 1
  48   25   46 1
  49   26   27 3

#	End of record

