#	Name: ASD01940206
#	Creating user name:	WinNT
#	Creation time:	15. 06. 2019 20:12

#	Modifying user name:	WinNT
#	Modification time:	15. 06. 2019 20:12

#	Program:	/corina/corina34_cracker 3.40 0067  02.08.2006

@<TRIPOS>MOLECULE
ASD01940206
  51   52    0    0    0
SMALL
NO_CHARGES


@<TRIPOS>ATOM
   1 F1             3.1918     1.6131     2.0832 F       
   2 C2             2.1940     1.9986     1.2581 C.ar    
   3 C3             2.4663     2.2939    -0.0710 C.ar    
   4 C4             1.4333     2.6908    -0.9186 C.ar    
   5 C5             0.1388     2.7890    -0.4310 C.ar    
   6 C6            -0.1265     2.4941     0.8937 C.ar    
   7 C7             0.8968     2.0941     1.7361 C.ar    
   8 N8             3.7765     2.1936    -0.5590 N.pl3   
   9 N9             1.7025     2.9905    -2.2608 N.am    
  10 C10            4.2693     0.9582    -0.9900 C.ar    
  11 C11            3.4234    -0.1398    -1.0672 C.ar    
  12 C12            3.9134    -1.3595    -1.4935 C.ar    
  13 C13            5.2448    -1.4883    -1.8428 C.ar    
  14 C14            6.0919    -0.3972    -1.7677 C.ar    
  15 C15            5.6076     0.8276    -1.3481 C.ar    
  16 F16            6.4347     1.8934    -1.2751 F       
  17 F17            0.6310     1.8014     3.0280 F       
  18 S18            0.8632     4.1968    -3.0242 S.o2    
  19 O19            1.4284     4.2466    -4.3270 O.2     
  20 O20           -0.5014     3.8512    -2.8304 O.2     
  21 C21           -0.7648     6.9363    -2.2759 C.3     
  22 C22           -0.9091     8.0790    -1.2688 C.3     
  23 C23           -0.2134     7.6969     0.0392 C.3     
  24 C24           -1.6245     7.2299    -3.5070 C.3     
  25 C25           -1.6353     6.0060    -4.4251 C.3     
  26 C26            5.7747    -2.8208    -2.3062 C.3     
  27 F27            5.6422    -2.9177    -3.6955 F       
  28 F28            7.1249    -2.9324    -1.9575 F       
  29 F29            5.0488    -3.8492    -1.6956 F       
  30 C30            1.2786     5.6968    -2.0924 C.3     
  31 O31            0.6042     6.8173    -2.6683 O.3     
  32 H32           -0.6628     3.0963    -1.0862 H       
  33 H33           -1.1354     2.5716     1.2710 H       
  34 H34            4.3413     2.9813    -0.5977 H       
  35 H35            2.3804     2.4914    -2.7427 H       
  36 H36            2.3832    -0.0410    -0.7939 H       
  37 H37            3.2553    -2.2137    -1.5535 H       
  38 H38            7.1314    -0.5014    -2.0413 H       
  39 H39           -1.0936     6.0039    -1.8170 H       
  40 H40           -0.4504     8.9808    -1.6743 H       
  41 H41           -1.9662     8.2635    -1.0777 H       
  42 H42           -0.6588     6.7840     0.4344 H       
  43 H43            0.8476     7.5320    -0.1483 H       
  44 H44           -0.3335     8.5027     0.7634 H       
  45 H45           -2.6432     7.4574    -3.1929 H       
  46 H46           -1.2107     8.0833    -4.0441 H       
  47 H47           -0.6107     5.7274    -4.6713 H       
  48 H48           -2.1257     5.1753    -3.9175 H       
  49 H49           -2.1774     6.2433    -5.3405 H       
  50 H50            0.9658     5.5784    -1.0550 H       
  51 H51            2.3553     5.8618    -2.1307 H       
@<TRIPOS>BOND
   1    1    2 1
   2    2    3 ar
   3    2    7 ar
   4    3    4 ar
   5    3    8 1
   6    4    5 ar
   7    4    9 1
   8    5    6 ar
   9    5   32 1
  10    6    7 ar
  11    6   33 1
  12    7   17 1
  13    8   10 1
  14    8   34 1
  15    9   18 am
  16    9   35 1
  17   10   11 ar
  18   10   15 ar
  19   11   12 ar
  20   11   36 1
  21   12   13 ar
  22   12   37 1
  23   13   14 ar
  24   13   26 1
  25   14   15 ar
  26   14   38 1
  27   15   16 1
  28   18   19 2
  29   18   20 2
  30   18   30 1
  31   21   24 1
  32   21   31 1
  33   21   22 1
  34   21   39 1
  35   22   23 1
  36   22   40 1
  37   22   41 1
  38   23   42 1
  39   23   43 1
  40   23   44 1
  41   24   25 1
  42   24   45 1
  43   24   46 1
  44   25   47 1
  45   25   48 1
  46   25   49 1
  47   26   27 1
  48   26   28 1
  49   26   29 1
  50   30   31 1
  51   30   50 1
  52   30   51 1

#	End of record

