#	Name: ASD05143043
#	Creating user name:	WinNT
#	Creation time:	15. 06. 2019 20:57

#	Modifying user name:	WinNT
#	Modification time:	15. 06. 2019 20:57

#	Program:	/corina/corina34_cracker 3.40 0067  02.08.2006

@<TRIPOS>MOLECULE
ASD05143043
 141  144    0    0    0
SMALL
NO_CHARGES


@<TRIPOS>ATOM
   1 C1            -1.8608     2.6674     4.9196 C.2     
   2 C2            -1.3087     1.5721     5.7951 C.3     
   3 N3            -1.0264     3.4215     4.1769 N.am    
   4 O4            -3.0564     2.8671     4.8796 O.2     
   5 C5            -1.5631     4.4863     3.3258 C.3     
   6 C6            -2.5270     3.8836     2.3018 C.3     
   7 C7            -2.2979     5.4884     4.1783 C.2     
   8 C8            -1.7553     2.9603     1.3568 C.3     
   9 C9            -2.7192     2.3577     0.3328 C.3     
  10 N10           -1.9804     1.4736    -0.5721 N.pl3   
  11 C11           -2.6416     0.8154    -1.5819 C.2     
  12 N12           -1.9482    -0.0143    -2.4310 N.pl3   
  13 N13           -3.9259     0.9779    -1.7342 N.2     
  14 O14           -2.6841     5.1759     5.2847 O.2     
  15 N15           -2.5259     6.7319     3.7112 N.am    
  16 C16           -3.2403     7.7062     4.5399 C.3     
  17 C17           -2.2365     8.6754     5.1674 C.3     
  18 C18           -1.0663     7.8869     5.7586 C.3     
  19 C19           -0.0149     7.6776     4.6996 C.2     
  20 O20           -0.3250     7.3147     3.5847 O.2     
  21 N21            1.2941     7.9045     5.0184 N.am    
  22 C22            2.2633     7.6695     3.9239 C.3     
  23 C23            2.4121     8.9599     3.1156 C.3     
  24 C24            2.9512     8.6291     1.7224 C.3     
  25 C25            3.9314     9.7183     1.2822 C.3     
  26 N26            3.7746     9.9422    -0.1690 N.am    
  27 C27            5.3420     9.2768     1.5756 C.2     
  28 N28            5.8363     9.3858     2.8247 N.am    
  29 O29            6.0326     8.8233     0.6876 O.2     
  30 C30            2.9648    10.9707    -0.5417 C.2     
  31 O31            2.4182    11.6564     0.2961 O.2     
  32 C32            2.7564    11.2470    -2.0084 C.3     
  33 N33            1.5664    12.1154    -2.1599 N.am    
  34 C34            3.9865    11.9570    -2.5773 C.3     
  35 C35            0.4418    11.4918    -2.6212 C.2     
  36 O36            0.4555    10.3079    -2.8843 O.2     
  37 C37           -0.8164    12.3028    -2.7966 C.3     
  38 N38           -1.9825    11.4042    -2.6843 N.am    
  39 C39           -0.8899    13.3765    -1.7091 C.3     
  40 C40           -3.0085    11.8329    -1.8987 C.2     
  41 O41           -2.9408    12.9002    -1.3266 O.2     
  42 C42           -4.2297    10.9624    -1.7507 C.3     
  43 C43            3.8273    12.1218    -4.0668 C.2     
  44 C44            3.1238    13.2081    -4.7530 C.ar    
  45 C45            3.2398    12.9383    -6.1287 C.ar    
  46 N46            3.9620    11.7728    -6.2546 N.pl3   
  47 C47            4.3082    11.3041    -5.0166 C.2     
  48 C48            2.4329    14.3420    -4.3212 C.ar    
  49 C49            1.8724    15.1850    -5.2388 C.ar    
  50 C50            1.9837    14.9230    -6.5976 C.ar    
  51 C51            2.6615    13.8106    -7.0454 C.ar    
  52 N52           -4.7023    11.0421    -0.3497 N.am    
  53 C53           -3.8717     9.5141    -2.0900 C.3     
  54 C54           -5.1108     8.6595    -2.0147 C.ar    
  55 C55           -6.0994     8.7886    -2.9737 C.ar    
  56 C56           -7.2366     8.0033    -2.9042 C.ar    
  57 C57           -7.3840     7.0906    -1.8770 C.ar    
  58 C58           -6.3956     6.9621    -0.9189 C.ar    
  59 C59           -5.2570     7.7426    -0.9907 C.ar    
  60 C60           -4.2137     8.4756     3.6845 C.2     
  61 N61           -3.7326     9.2962     2.7106 N.am    
  62 O62           -5.4085     8.3651     3.8609 O.2     
  63 C63           -4.7336    10.0241     1.9054 C.3     
  64 C64           -4.8464    11.4648     2.4080 C.3     
  65 C65           -4.2914    10.0251     0.4647 C.2     
  66 O66           -3.6115    12.1468     2.1804 O.3     
  67 O67           -3.5837     9.1385     0.0358 O.2     
  68 C68           -0.7702    12.7179    -0.3333 C.3     
  69 C69           -0.9468    13.7774     0.7563 C.3     
  70 N70           -0.8322    13.1468     2.0737 N.pl3   
  71 C71           -0.9571    13.9066     3.2127 C.2     
  72 N72           -1.1895    15.2581     3.1154 N.pl3   
  73 N73           -0.8551    13.3456     4.3848 N.2     
  74 Cl74          -5.9137     9.9356    -4.2634 Cl      
  75 H75           -0.2236     1.5407     5.6970 H       
  76 H76           -1.5740     1.7688     6.8339 H       
  77 H77           -1.7292     0.6146     5.4878 H       
  78 H78           -0.0705     3.2591     4.2059 H       
  79 H79           -0.7441     4.9830     2.8055 H       
  80 H80           -3.2968     3.3119     2.8200 H       
  81 H81           -2.9936     4.6838     1.7272 H       
  82 H82           -0.9855     3.5321     0.8385 H       
  83 H83           -1.2887     2.1602     1.9313 H       
  84 H84           -3.4891     1.7860     0.8510 H       
  85 H85           -3.1859     3.1579    -0.2418 H       
  86 H86           -1.0247     1.3527    -0.4587 H       
  87 H87           -0.9925    -0.1352    -2.3177 H       
  88 H88           -2.4148    -0.4787    -3.1435 H       
  89 H89           -4.3924     0.5135    -2.4466 H       
  90 H90           -2.2170     6.9819     2.8263 H       
  91 H91           -3.7829     7.1842     5.3281 H       
  92 H92           -1.8651     9.3587     4.4037 H       
  93 H93           -2.7265     9.2450     5.9571 H       
  94 H94           -0.6371     8.4437     6.5916 H       
  95 H95           -1.4223     6.9197     6.1133 H       
  96 H96            1.5695     8.1995     5.9005 H       
  97 H97            3.2287     7.3880     4.3445 H       
  98 H98            1.8975     6.8725     3.2765 H       
  99 H99            1.4404     9.4451     3.0235 H       
 100 H100           3.1059     9.6294     3.6242 H       
 101 H101           3.4647     7.6681     1.7504 H       
 102 H102           2.1233     8.5781     1.0152 H       
 103 H103           3.7165    10.6420     1.8196 H       
 104 H104           4.2251     9.3849    -0.8228 H       
 105 H105           5.2840     9.7485     3.5349 H       
 106 H106           6.7443     9.1016     3.0135 H       
 107 H107           2.5945    10.3083    -2.5383 H       
 108 H108           1.5843    13.0615    -1.9467 H       
 109 H109           4.0877    12.9375    -2.1121 H       
 110 H110           4.8768    11.3631    -2.3706 H       
 111 H111          -0.8125    12.7750    -3.7790 H       
 112 H112          -2.0159    10.5519    -3.1463 H       
 113 H113          -0.0743    14.0868    -1.8441 H       
 114 H114          -1.8432    13.9002    -1.7795 H       
 115 H115          -5.0133    11.3146    -2.4215 H       
 116 H116           4.1940    11.3492    -7.0958 H       
 117 H117           4.8773    10.4052    -4.8308 H       
 118 H118           2.3416    14.5518    -3.2658 H       
 119 H119           1.3381    16.0620    -4.9043 H       
 120 H120           1.5349    15.5986    -7.3107 H       
 121 H121           2.7429    13.6157    -8.1045 H       
 122 H122          -5.2642    11.7662    -0.0321 H       
 123 H123          -3.4594     9.4683    -3.0979 H       
 124 H124          -3.1328     9.1461    -1.3781 H       
 125 H125          -8.0089     8.1038    -3.6524 H       
 126 H126          -8.2717     6.4779    -1.8225 H       
 127 H127          -6.5114     6.2490    -0.1161 H       
 128 H128          -4.4851     7.6416    -0.2421 H       
 129 H129          -2.7807     9.3977     2.5538 H       
 130 H130          -5.7013     9.5302     1.9921 H       
 131 H131          -5.6472    11.9748     1.8724 H       
 132 H132          -5.0681    11.4610     3.4752 H       
 133 H133          -3.6106    13.0677     2.4753 H       
 134 H134          -1.5418    11.9554    -0.2271 H       
 135 H135           0.2125    12.2565    -0.2356 H       
 136 H136          -0.1752    14.5399     0.6501 H       
 137 H137          -1.9295    14.2388     0.6586 H       
 138 H138          -0.6682    12.1932     2.1424 H       
 139 H139          -1.2654    15.6756     2.2432 H       
 140 H140          -1.2776    15.7942     3.9190 H       
 141 H141          -0.9432    13.8816     5.1884 H       
@<TRIPOS>BOND
   1    1    2 1
   2    1    3 am
   3    1    4 2
   4    2   75 1
   5    2   76 1
   6    2   77 1
   7    3    5 1
   8    3   78 1
   9    5    6 1
  10    5    7 1
  11    5   79 1
  12    6    8 1
  13    6   80 1
  14    6   81 1
  15    7   14 2
  16    7   15 am
  17    8    9 1
  18    8   82 1
  19    8   83 1
  20    9   10 1
  21    9   84 1
  22    9   85 1
  23   10   11 1
  24   10   86 1
  25   11   12 1
  26   11   13 2
  27   12   87 1
  28   12   88 1
  29   13   89 1
  30   15   16 1
  31   15   90 1
  32   16   17 1
  33   16   60 1
  34   16   91 1
  35   17   18 1
  36   17   92 1
  37   17   93 1
  38   18   19 1
  39   18   94 1
  40   18   95 1
  41   19   20 2
  42   19   21 am
  43   21   22 1
  44   21   96 1
  45   22   23 1
  46   22   97 1
  47   22   98 1
  48   23   24 1
  49   23   99 1
  50   23  100 1
  51   24   25 1
  52   24  101 1
  53   24  102 1
  54   25   26 1
  55   25   27 1
  56   25  103 1
  57   26   30 am
  58   26  104 1
  59   27   28 am
  60   27   29 2
  61   28  105 1
  62   28  106 1
  63   30   31 2
  64   30   32 1
  65   32   33 1
  66   32   34 1
  67   32  107 1
  68   33   35 am
  69   33  108 1
  70   34   43 1
  71   34  109 1
  72   34  110 1
  73   35   36 2
  74   35   37 1
  75   37   38 1
  76   37   39 1
  77   37  111 1
  78   38   40 am
  79   38  112 1
  80   39   68 1
  81   39  113 1
  82   39  114 1
  83   40   41 2
  84   40   42 1
  85   42   52 1
  86   42   53 1
  87   42  115 1
  88   43   44 1
  89   43   47 2
  90   44   45 ar
  91   44   48 ar
  92   45   46 1
  93   45   51 ar
  94   46   47 1
  95   46  116 1
  96   47  117 1
  97   48   49 ar
  98   48  118 1
  99   49   50 ar
 100   49  119 1
 101   50   51 ar
 102   50  120 1
 103   51  121 1
 104   52   65 am
 105   52  122 1
 106   53   54 1
 107   53  123 1
 108   53  124 1
 109   54   55 ar
 110   54   59 ar
 111   55   56 ar
 112   55   74 1
 113   56   57 ar
 114   56  125 1
 115   57   58 ar
 116   57  126 1
 117   58   59 ar
 118   58  127 1
 119   59  128 1
 120   60   61 am
 121   60   62 2
 122   61   63 1
 123   61  129 1
 124   63   64 1
 125   63   65 1
 126   63  130 1
 127   64   66 1
 128   64  131 1
 129   64  132 1
 130   65   67 2
 131   66  133 1
 132   68   69 1
 133   68  134 1
 134   68  135 1
 135   69   70 1
 136   69  136 1
 137   69  137 1
 138   70   71 1
 139   70  138 1
 140   71   72 1
 141   71   73 2
 142   72  139 1
 143   72  140 1
 144   73  141 1

#	End of record

