#	Name: ASD08170372
#	Creating user name:	WinNT
#	Creation time:	15. 06. 2019 21:17

#	Modifying user name:	WinNT
#	Modification time:	15. 06. 2019 21:17

#	Program:	/corina/corina34_cracker 3.40 0067  02.08.2006

@<TRIPOS>MOLECULE
ASD08170372
  39   40    0    0    0
SMALL
NO_CHARGES


@<TRIPOS>ATOM
   1 N1            -0.0155     1.2947     0.0092 N.2     
   2 C2             0.0021    -0.0041     0.0020 C.2     
   3 S3             1.6320    -0.5310    -0.0164 S.3     
   4 C4             2.1557     1.1534    -0.0123 C.2     
   5 N5             1.0945     1.8960     0.0018 N.2     
   6 C6             7.9705     3.1008     4.7955 C.2     
   7 S7             7.7406     4.5190     5.8189 S.3     
   8 C8             8.3761     3.6409     7.1454 C.2     
   9 N9             8.6858     2.4453     6.7432 N.2     
  10 N10            8.4731     2.1610     5.5316 N.2     
  11 N11           -1.1168    -0.8300     0.0087 N.am    
  12 C12           -2.3521    -0.2911     0.0233 C.2     
  13 O13           -2.4879     0.9140     0.0307 O.2     
  14 C14           -3.5646    -1.1861     0.0305 C.3     
  15 Cl15          -5.0575    -0.1754     0.0500 Cl      
  16 N16            8.5346     4.1275     8.4385 N.am    
  17 C17            9.0489     3.3340     9.3989 C.2     
  18 O18            9.3735     2.1955     9.1354 O.2     
  19 C19            9.2207     3.8614    10.8001 C.3     
  20 Cl20           9.9263     2.5726    11.8451 Cl      
  21 C21            3.5816     1.6410    -0.0229 C.3     
  22 C22            4.0775     1.7984     1.4160 C.3     
  23 S23            5.7939     2.3852     1.4033 S.3     
  24 C24            6.1962     2.5079     3.1678 C.3     
  25 C25            7.6363     2.9989     3.3296 C.3     
  26 H26           -1.0082    -1.7939     0.0028 H       
  27 H27           -3.5603    -1.8108    -0.8627 H       
  28 H28           -3.5432    -1.8197     0.9172 H       
  29 H29            8.2750     5.0381     8.6493 H       
  30 H30            9.8883     4.7229    10.7848 H       
  31 H31            8.2506     4.1605    11.1972 H       
  32 H32            4.2086     0.9191    -0.5463 H       
  33 H33            3.6328     2.6033    -0.5321 H       
  34 H34            3.4505     2.5202     1.9394 H       
  35 H35            4.0263     0.8360     1.9252 H       
  36 H36            5.5163     3.2120     3.6474 H       
  37 H37            6.0920     1.5278     3.6332 H       
  38 H38            7.7405     3.9790     2.8642 H       
  39 H39            8.3162     2.2947     2.8500 H       
@<TRIPOS>BOND
   1    1    2 2
   2    1    5 1
   3    2    3 1
   4    2   11 1
   5    3    4 1
   6    4    5 2
   7    4   21 1
   8    6    7 1
   9    6   25 1
  10    6   10 2
  11    7    8 1
  12    8    9 2
  13    8   16 1
  14    9   10 1
  15   11   12 am
  16   11   26 1
  17   12   13 2
  18   12   14 1
  19   14   15 1
  20   14   27 1
  21   14   28 1
  22   16   17 am
  23   16   29 1
  24   17   18 2
  25   17   19 1
  26   19   20 1
  27   19   30 1
  28   19   31 1
  29   21   22 1
  30   21   32 1
  31   21   33 1
  32   22   23 1
  33   22   34 1
  34   22   35 1
  35   23   24 1
  36   24   25 1
  37   24   36 1
  38   24   37 1
  39   25   38 1
  40   25   39 1

#	End of record

