#	Name: ASD02560183
#	Creating user name:	WinNT
#	Creation time:	15. 06. 2019 20:24

#	Modifying user name:	WinNT
#	Modification time:	15. 06. 2019 20:24

#	Program:	/corina/corina34_cracker 3.40 0067  02.08.2006

@<TRIPOS>MOLECULE
ASD02560183
  59   63    0    0    0
SMALL
NO_CHARGES


@<TRIPOS>ATOM
   1 Cl1            4.6913     1.0188     2.0275 Cl      
   2 Br2            1.9219     2.5047    -1.7158 Br      
   3 N3             0.0547     1.3213     0.0578 N.2     
   4 N4             0.0167     0.0883    -0.0001 N.2     
   5 C5             1.4393     1.8107     0.0592 C.3     
   6 N6             2.2615     0.6193     0.3896 N.3     
   7 C7             1.3687    -0.4832    -0.0485 C.3     
   8 S8             1.5002    -1.8917     1.0871 S.3     
   9 C9             0.9873    -1.1836     2.6765 C.3     
  10 C10            1.0437    -2.2478     3.7421 C.2     
  11 O11            1.3953    -3.3731     3.4573 O.2     
  12 N12            0.7035    -1.9490     5.0115 N.am    
  13 C13            3.4519     0.6167    -0.3364 C.ar    
  14 C14            0.6742    -2.9557     5.9837 C.ar    
  15 C15           -0.1449    -2.8235     7.0988 C.ar    
  16 C16           -0.1715    -3.8196     8.0562 C.ar    
  17 C17            0.6158    -4.9467     7.9052 C.ar    
  18 C18            1.4314    -5.0806     6.7970 C.ar    
  19 C19            1.4589    -4.0909     5.8334 C.ar    
  20 Cl20          -1.1328    -1.4087     7.2889 Cl      
  21 S21            0.5796    -6.2144     9.1284 S.o2    
  22 O22            1.8117    -6.9138     9.0179 O.2     
  23 O23            0.1405    -5.5988    10.3315 O.2     
  24 C24            3.4318     0.4395    -1.7360 C.ar    
  25 C25            4.6598     0.7931     0.3066 C.ar    
  26 C26            5.8536     0.7924    -0.4096 C.ar    
  27 C27            5.8629     0.6179    -1.7601 C.ar    
  28 C28            4.6538     0.4403    -2.4533 C.ar    
  29 N29           -0.6062    -7.2842     8.6906 N.am    
  30 C30            7.1691     0.6219    -2.5118 C.3     
  31 C31            7.9564     1.9355    -2.3717 C.3     
  32 C32            9.2251     1.0725    -2.2694 C.3     
  33 C33            8.3199    -0.0573    -1.7507 C.3     
  34 C34            4.6338     0.2574    -3.8470 C.ar    
  35 C35            3.4448     0.0877    -4.4871 C.ar    
  36 C36            2.2431     0.0927    -3.7813 C.ar    
  37 C37            2.2248     0.2622    -2.4305 C.ar    
  38 H38            1.5682     2.5830     0.8176 H       
  39 H39            1.6149    -0.7899    -1.0651 H       
  40 H40            1.6574    -0.3664     2.9433 H       
  41 H41           -0.0317    -0.8057     2.5940 H       
  42 H42            0.4789    -1.0364     5.2514 H       
  43 H43           -0.8073    -3.7178     8.9232 H       
  44 H44            2.0452    -5.9618     6.6825 H       
  45 H45            2.0964    -4.1965     4.9681 H       
  46 H46            6.7875     0.9330     0.1144 H       
  47 H47           -0.5269    -8.2209     8.9300 H       
  48 H48           -1.3801    -6.9742     8.1948 H       
  49 H49            7.0654     0.2829    -3.5425 H       
  50 H50            7.9245     2.5609    -3.2638 H       
  51 H51            7.7282     2.4861    -1.4591 H       
  52 H52            9.6847     0.8558    -3.2337 H       
  53 H53            9.9402     1.4333    -1.5300 H       
  54 H54            8.1910    -0.0515    -0.6683 H       
  55 H55            8.5814    -1.0406    -2.1415 H       
  56 H56            5.5572     0.2520    -4.4070 H       
  57 H57            3.4323    -0.0526    -5.5578 H       
  58 H58            1.3131    -0.0434    -4.3132 H       
  59 H59            1.2861     0.2636    -1.8964 H       
@<TRIPOS>BOND
   1    1   25 1
   2    2    5 1
   3    3    4 2
   4    3    5 1
   5    4    7 1
   6    5    6 1
   7    5   38 1
   8    6    7 1
   9    6   13 1
  10    7    8 1
  11    7   39 1
  12    8    9 1
  13    9   10 1
  14    9   40 1
  15    9   41 1
  16   10   11 2
  17   10   12 am
  18   12   14 1
  19   12   42 1
  20   13   24 ar
  21   13   25 ar
  22   14   15 ar
  23   14   19 ar
  24   15   16 ar
  25   15   20 1
  26   16   17 ar
  27   16   43 1
  28   17   18 ar
  29   17   21 1
  30   18   19 ar
  31   18   44 1
  32   19   45 1
  33   21   22 2
  34   21   23 2
  35   21   29 am
  36   24   28 ar
  37   24   37 ar
  38   25   26 ar
  39   26   27 ar
  40   26   46 1
  41   27   28 ar
  42   27   30 1
  43   28   34 ar
  44   29   47 1
  45   29   48 1
  46   30   31 1
  47   30   33 1
  48   30   49 1
  49   31   32 1
  50   31   50 1
  51   31   51 1
  52   32   33 1
  53   32   52 1
  54   32   53 1
  55   33   54 1
  56   33   55 1
  57   34   35 ar
  58   34   56 1
  59   35   36 ar
  60   35   57 1
  61   36   37 ar
  62   36   58 1
  63   37   59 1

#	End of record

