#	Name: ASD03240588
#	Creating user name:	WinNT
#	Creation time:	15. 06. 2019 20:35

#	Modifying user name:	WinNT
#	Modification time:	15. 06. 2019 20:35

#	Program:	/corina/corina34_cracker 3.40 0067  02.08.2006

@<TRIPOS>MOLECULE
ASD03240588
  60   66    0    0    0
SMALL
NO_CHARGES


@<TRIPOS>ATOM
   1 C1            -0.0166     1.3754     0.0096 C.ar    
   2 C2             0.0021    -0.0041     0.0020 C.ar    
   3 N3             1.1422    -0.6683    -0.0053 N.ar    
   4 C4             2.3145    -0.0481    -0.0053 C.ar    
   5 C5             2.3702     1.3442    -0.0124 C.ar    
   6 C6             1.1861     2.0698     0.0018 C.ar    
   7 N7             3.4821    -0.8058     0.0231 N.pl3   
   8 C8             4.3590    -0.7185     1.1009 C.ar    
   9 C9             4.9947     0.4901     1.4044 C.ar    
  10 C10            4.7634     1.6842     0.5621 C.2     
  11 N11            3.5938     2.0276    -0.0512 N.pl3   
  12 C12            4.6049    -1.8378     1.8849 C.ar    
  13 C13            5.4641    -1.7516     2.9638 C.ar    
  14 C14            6.0848    -0.5533     3.2720 C.ar    
  15 C15            5.8554     0.5671     2.4991 C.ar    
  16 N16            5.6757     2.5945     0.2855 N.2     
  17 C17            5.1470     3.5415    -0.5064 C.2     
  18 C18            3.8223     3.2055    -0.7386 C.2     
  19 C19            2.8505     3.9547    -1.5563 C.ar    
  20 C20            2.7513     5.3434    -1.4324 C.ar    
  21 C21            2.0280     3.2803    -2.4631 C.ar    
  22 C22            1.1214     3.9877    -3.2243 C.ar    
  23 C23            1.0249     5.3620    -3.0921 C.ar    
  24 C24            1.8400     6.0373    -2.2004 C.ar    
  25 C25            5.8499     4.7274    -1.0341 C.2     
  26 C26            0.0317     6.1277    -3.9277 C.3     
  27 N27           -1.0469     5.2792    -4.4518 N.3     
  28 C28           -0.4696     7.4189    -3.2596 C.3     
  29 C29           -0.3828     8.0771    -4.6468 C.3     
  30 C30            0.6844     7.0231    -4.9940 C.3     
  31 S31            5.5921     5.4687    -2.6114 S.3     
  32 C32            6.7787     6.6490    -2.2637 C.2     
  33 N33            7.2750     6.4546    -1.0824 N.2     
  34 C34            6.7995     5.4390    -0.3913 C.2     
  35 O35            7.1481     7.6459    -3.1039 O.3     
  36 C36            8.1601     8.5425    -2.6413 C.3     
  37 H37           -0.9556     1.9091     0.0170 H       
  38 H38           -0.9306    -0.5486     0.0025 H       
  39 H39            1.2002     3.1497     0.0061 H       
  40 H40            3.6865    -1.4007    -0.7153 H       
  41 H41            4.1241    -2.7763     1.6516 H       
  42 H42            5.6523    -2.6249     3.5707 H       
  43 H43            6.7507    -0.4948     4.1203 H       
  44 H44            6.3405     1.5010     2.7419 H       
  45 H45            3.3865     5.8716    -0.7368 H       
  46 H46            2.1024     2.2080    -2.5676 H       
  47 H47            0.4855     3.4681    -3.9257 H       
  48 H48            1.7589     7.1097    -2.1024 H       
  49 H49           -0.6738     4.4572    -4.9025 H       
  50 H50           -1.6965     5.0280    -3.7217 H       
  51 H51           -1.4866     7.3448    -2.8744 H       
  52 H52            0.2296     7.8351    -2.5343 H       
  53 H53           -1.2964     7.9811    -5.2335 H       
  54 H54            0.0010     9.0970    -4.6229 H       
  55 H55            1.6996     7.3306    -4.7431 H       
  56 H56            0.5979     6.6317    -6.0076 H       
  57 H57            7.1457     5.1921     0.6014 H       
  58 H58            8.3610     9.2905    -3.4083 H       
  59 H59            7.8192     9.0372    -1.7319 H       
  60 H60            9.0721     7.9837    -2.4310 H       
@<TRIPOS>BOND
   1    1    2 ar
   2    1    6 ar
   3    1   37 1
   4    2    3 ar
   5    2   38 1
   6    3    4 ar
   7    4    5 ar
   8    4    7 1
   9    5    6 ar
  10    5   11 1
  11    6   39 1
  12    7    8 1
  13    7   40 1
  14    8    9 ar
  15    8   12 ar
  16    9   10 1
  17    9   15 ar
  18   10   11 1
  19   10   16 2
  20   11   18 1
  21   12   13 ar
  22   12   41 1
  23   13   14 ar
  24   13   42 1
  25   14   15 ar
  26   14   43 1
  27   15   44 1
  28   16   17 1
  29   17   18 2
  30   17   25 1
  31   18   19 1
  32   19   20 ar
  33   19   21 ar
  34   20   24 ar
  35   20   45 1
  36   21   22 ar
  37   21   46 1
  38   22   23 ar
  39   22   47 1
  40   23   24 ar
  41   23   26 1
  42   24   48 1
  43   25   31 1
  44   25   34 2
  45   26   27 1
  46   26   28 1
  47   26   30 1
  48   27   49 1
  49   27   50 1
  50   28   29 1
  51   28   51 1
  52   28   52 1
  53   29   30 1
  54   29   53 1
  55   29   54 1
  56   30   55 1
  57   30   56 1
  58   31   32 1
  59   32   33 2
  60   32   35 1
  61   33   34 1
  62   34   57 1
  63   35   36 1
  64   36   58 1
  65   36   59 1
  66   36   60 1

#	End of record

