#	Name: ASD01190044
#	Creating user name:	WinNT
#	Creation time:	15. 06. 2019 19:07

#	Modifying user name:	WinNT
#	Modification time:	15. 06. 2019 19:07

#	Program:	/corina/corina34_cracker 3.40 0067  02.08.2006

@<TRIPOS>MOLECULE
ASD01190044
  55   58    0    0    0
SMALL
NO_CHARGES


@<TRIPOS>ATOM
   1 N1             0.0577     1.2610     0.1013 N.am    
   2 N2            -0.1021    -0.1264     0.0236 N.2     
   3 C3             1.0285    -0.7219     0.2684 C.2     
   4 C4             2.0313     0.3085     0.5312 C.ar    
   5 C5             3.3932     0.2789     0.8466 C.ar    
   6 C6             4.0704     1.4488     1.0383 C.ar    
   7 C7             3.4188     2.6700     0.9234 C.ar    
   8 C8             2.0781     2.7235     0.6135 C.ar    
   9 C9             1.3685     1.5441     0.4136 C.ar    
  10 C10           -0.9131     2.1735    -0.1024 C.2     
  11 O11           -0.6862     3.3533     0.0807 O.2     
  12 N12           -2.1355     1.7775    -0.5091 N.am    
  13 C13           -2.3760     0.3720    -0.8451 C.3     
  14 C14           -3.2236     2.7526    -0.6152 C.3     
  15 C15           -3.7281     2.7988    -2.0589 C.3     
  16 C16           -4.3690     2.3417     0.3123 C.3     
  17 C17            5.5381     1.4148     1.3782 C.3     
  18 C18            5.7265     0.7936     2.7637 C.3     
  19 N19            7.4795    -1.0163    -0.5909 N.pl3   
  20 C20            6.9427    -0.5519     0.5789 C.2     
  21 C21            6.2721     0.5889     0.3534 C.2     
  22 C22            6.3890     0.8786    -1.0778 C.ar    
  23 C23            5.9175     1.9020    -1.9025 C.ar    
  24 C24            6.2073     1.8850    -3.2376 C.ar    
  25 C25            6.9671     0.8581    -3.7813 C.ar    
  26 C26            7.4419    -0.1615    -2.9860 C.ar    
  27 C27            7.1593    -0.1641    -1.6238 C.ar    
  28 C28            8.2810    -2.2355    -0.7235 C.3     
  29 O29            6.0580     2.7459     1.3783 O.3     
  30 F30            5.2175    -0.5095     2.7636 F       
  31 F31            7.0891     0.7620     3.0792 F       
  32 F32            5.0452     1.5604     3.7151 F       
  33 H33            1.1962    -1.7888     0.2764 H       
  34 H34            3.9076    -0.6662     0.9387 H       
  35 H35            3.9688     3.5864     1.0788 H       
  36 H36            1.5794     3.6775     0.5265 H       
  37 H37           -2.5979    -0.1862     0.0644 H       
  38 H38           -3.2211     0.3017    -1.5299 H       
  39 H39           -1.4880    -0.0452    -1.3199 H       
  40 H40           -2.8580     3.7380    -0.3264 H       
  41 H41           -4.0938     1.8135    -2.3478 H       
  42 H42           -4.5377     3.5244    -2.1379 H       
  43 H43           -2.9121     3.0916    -2.7197 H       
  44 H44           -4.0096     2.3087     1.3408 H       
  45 H45           -5.1786     3.0672     0.2333 H       
  46 H46           -4.7346     1.3563     0.0235 H       
  47 H47            7.0434    -1.0322     1.5410 H       
  48 H48            5.3255     2.7039    -1.4866 H       
  49 H49            5.8421     2.6766    -3.8751 H       
  50 H50            7.1879     0.8585    -4.8385 H       
  51 H51            8.0318    -0.9561    -3.4185 H       
  52 H52            7.6252    -3.0804    -0.9336 H       
  53 H53            8.9922    -2.1157    -1.5407 H       
  54 H54            8.8219    -2.4175     0.2051 H       
  55 H55            5.9721     3.2017     0.5298 H       
@<TRIPOS>BOND
   1    1    2 1
   2    1    9 1
   3    1   10 am
   4    2    3 2
   5    3    4 1
   6    3   33 1
   7    4    5 ar
   8    4    9 ar
   9    5    6 ar
  10    5   34 1
  11    6    7 ar
  12    6   17 1
  13    7    8 ar
  14    7   35 1
  15    8    9 ar
  16    8   36 1
  17   10   11 2
  18   10   12 am
  19   12   13 1
  20   12   14 1
  21   13   37 1
  22   13   38 1
  23   13   39 1
  24   14   15 1
  25   14   16 1
  26   14   40 1
  27   15   41 1
  28   15   42 1
  29   15   43 1
  30   16   44 1
  31   16   45 1
  32   16   46 1
  33   17   18 1
  34   17   21 1
  35   17   29 1
  36   18   30 1
  37   18   31 1
  38   18   32 1
  39   19   20 1
  40   19   27 1
  41   19   28 1
  42   20   21 2
  43   20   47 1
  44   21   22 1
  45   22   23 ar
  46   22   27 ar
  47   23   24 ar
  48   23   48 1
  49   24   25 ar
  50   24   49 1
  51   25   26 ar
  52   25   50 1
  53   26   27 ar
  54   26   51 1
  55   28   52 1
  56   28   53 1
  57   28   54 1
  58   29   55 1

#	End of record

