#	Name: ASD01180236
#	Creating user name:	WinNT
#	Creation time:	15. 06. 2019 19:07

#	Modifying user name:	WinNT
#	Modification time:	15. 06. 2019 19:07

#	Program:	/corina/corina34_cracker 3.40 0067  02.08.2006

@<TRIPOS>MOLECULE
ASD01180236
  53   55    0    0    0
SMALL
NO_CHARGES


@<TRIPOS>ATOM
   1 C1            -2.2165    -1.0474    -4.1928 C.2     
   2 C2            -1.6448    -1.8057    -3.0654 C.ar    
   3 C3            -0.6978    -2.8168    -3.2945 C.ar    
   4 C4            -0.1934    -3.4946    -2.2182 C.ar    
   5 C5            -0.6305    -3.1648    -0.9360 C.ar    
   6 N6            -1.5262    -2.2054    -0.7469 N.ar    
   7 C7            -2.0329    -1.5251    -1.7539 C.ar    
   8 O8            -1.8688    -1.2955    -5.3304 O.2     
   9 O9            -3.1289    -0.0829    -3.9623 O.3     
  10 N10           -0.1227    -3.8489     0.1550 N.pl3   
  11 C11            0.9515    -4.8279    -0.0294 C.3     
  12 C12            1.7184    -4.9969     1.2836 C.3     
  13 C13            2.3806    -3.6705     1.6618 C.3     
  14 C14            3.0304    -3.7999     3.0409 C.3     
  15 C15            0.3596    -6.1518    -0.4395 C.ar    
  16 C16            0.9894    -6.9194    -1.4026 C.ar    
  17 C17            0.4518    -8.1326    -1.7820 C.ar    
  18 C18           -0.7277    -8.5838    -1.1928 C.ar    
  19 C19           -1.3579    -7.8064    -0.2230 C.ar    
  20 C20           -0.8084    -6.5974     0.1527 C.ar    
  21 C21           -1.3106    -9.8868    -1.5968 C.ar    
  22 C22           -2.4903   -10.3300    -1.0023 C.ar    
  23 C23           -3.0221   -11.5477    -1.3895 C.ar    
  24 C24           -2.3558   -12.2831    -2.3598 C.ar    
  25 C25           -1.1893   -11.7828    -2.9077 C.ar    
  26 N26           -0.7074   -10.6178    -2.5249 N.ar    
  27 C27           -2.8985   -13.6145    -2.8114 C.3     
  28 F28           -3.7675   -13.4221    -3.8907 F       
  29 F29           -1.8401   -14.4398    -3.2062 F       
  30 F30           -3.5916   -14.2177    -1.7564 F       
  31 C31            3.4500    -3.3205     0.6251 C.3     
  32 H32           -0.3750    -3.0542    -4.2974 H       
  33 H33            0.5362    -4.2780    -2.3606 H       
  34 H34           -2.7572    -0.7468    -1.5643 H       
  35 H35           -3.4751     0.3871    -4.7332 H       
  36 H36           -0.4780    -3.6801     1.0416 H       
  37 H37            1.6323    -4.4783    -0.8055 H       
  38 H38            1.0277    -5.2960     2.0720 H       
  39 H39            2.4838    -5.7633     1.1612 H       
  40 H40            1.6277    -2.8828     1.6874 H       
  41 H41            3.7833    -4.5876     3.0154 H       
  42 H42            3.5021    -2.8550     3.3104 H       
  43 H43            2.2685    -4.0493     3.7796 H       
  44 H44            1.9032    -6.5685    -1.8588 H       
  45 H45            0.9441    -8.7309    -2.5343 H       
  46 H46           -2.2722    -8.1513     0.2368 H       
  47 H47           -1.2933    -5.9962     0.9076 H       
  48 H48           -2.9825    -9.7320    -0.2497 H       
  49 H49           -3.9349   -11.9175    -0.9463 H       
  50 H50           -0.6684   -12.3526    -3.6630 H       
  51 H51            2.9807    -3.1849    -0.3494 H       
  52 H52            3.9520    -2.3984     0.9180 H       
  53 H53            4.1790    -4.1288     0.5680 H       
@<TRIPOS>BOND
   1    1    2 1
   2    1    8 2
   3    1    9 1
   4    2    3 ar
   5    2    7 ar
   6    3    4 ar
   7    3   32 1
   8    4    5 ar
   9    4   33 1
  10    5    6 ar
  11    5   10 1
  12    6    7 ar
  13    7   34 1
  14    9   35 1
  15   10   11 1
  16   10   36 1
  17   11   12 1
  18   11   15 1
  19   11   37 1
  20   12   13 1
  21   12   38 1
  22   12   39 1
  23   13   14 1
  24   13   31 1
  25   13   40 1
  26   14   41 1
  27   14   42 1
  28   14   43 1
  29   15   16 ar
  30   15   20 ar
  31   16   17 ar
  32   16   44 1
  33   17   18 ar
  34   17   45 1
  35   18   19 ar
  36   18   21 1
  37   19   20 ar
  38   19   46 1
  39   20   47 1
  40   21   22 ar
  41   21   26 ar
  42   22   23 ar
  43   22   48 1
  44   23   24 ar
  45   23   49 1
  46   24   25 ar
  47   24   27 1
  48   25   26 ar
  49   25   50 1
  50   27   28 1
  51   27   29 1
  52   27   30 1
  53   31   51 1
  54   31   52 1
  55   31   53 1

#	End of record

