#	Name: ASD03240653
#	Creating user name:	WinNT
#	Creation time:	15. 06. 2019 20:35

#	Modifying user name:	WinNT
#	Modification time:	15. 06. 2019 20:35

#	Program:	/corina/corina34_cracker 3.40 0067  02.08.2006

@<TRIPOS>MOLECULE
ASD03240653
  63   69    0    0    0
SMALL
NO_CHARGES


@<TRIPOS>ATOM
   1 C1             0.0465     1.1673    -0.2558 C.ar    
   2 C2             0.1303    -0.2074    -0.3363 C.ar    
   3 N3             1.2997    -0.8186    -0.3304 N.ar    
   4 C4             2.4406    -0.1476    -0.2466 C.ar    
   5 C5             2.4311     1.2441    -0.1763 C.ar    
   6 C6             1.2146     1.9141    -0.1744 C.ar    
   7 N7             3.6404    -0.8527    -0.2091 N.pl3   
   8 C8             4.4679    -0.7870     0.9085 C.ar    
   9 C9             5.0335     0.4299     1.3040 C.ar    
  10 C10            4.7805     1.6576     0.5182 C.2     
  11 N11            3.6219     1.9826    -0.1257 N.pl3   
  12 C12            4.7342    -1.9363     1.6407 C.ar    
  13 C13            5.5440    -1.8725     2.7586 C.ar    
  14 C14            6.0952    -0.6669     3.1573 C.ar    
  15 C15            5.8446     0.4838     2.4373 C.ar    
  16 N16            5.6586     2.6221     0.3300 N.2     
  17 C17            5.1171     3.5853    -0.4314 C.2     
  18 C18            3.8227     3.2038    -0.7370 C.2     
  19 C19            2.8495     3.9541    -1.5542 C.ar    
  20 C20            2.6803     5.3270    -1.3591 C.ar    
  21 C21            2.0975     3.2956    -2.5300 C.ar    
  22 C22            1.1892     4.0020    -3.2909 C.ar    
  23 C23            1.0214     5.3604    -3.0905 C.ar    
  24 C24            1.7675     6.0225    -2.1278 C.ar    
  25 C25            5.7854     4.8338    -0.8663 C.ar    
  26 C26            0.0278     6.1250    -3.9266 C.3     
  27 C27            6.6914     5.4740    -0.0213 C.ar    
  28 N28           -1.2110     6.4339    -3.2000 N.3     
  29 C29            0.6360     7.3376    -4.6507 C.3     
  30 C30           -0.2307     6.9505    -5.8606 C.3     
  31 C31           -0.2079     5.5121    -5.3171 C.3     
  32 C32            7.3107     6.6368    -0.4321 C.ar    
  33 C33            7.0343     7.1675    -1.6792 C.ar    
  34 C34            6.1363     6.5369    -2.5222 C.ar    
  35 C35            5.5152     5.3708    -2.1251 C.ar    
  36 C36            8.2896     7.3301     0.4801 C.3     
  37 F37            1.5977     7.3492    -1.9376 F       
  38 H38           -0.9160     1.6573    -0.2604 H       
  39 H39           -0.7750    -0.7923    -0.4049 H       
  40 H40            1.1778     2.9916    -0.1115 H       
  41 H41            3.9022    -1.3955    -0.9692 H       
  42 H42            4.3078    -2.8808     1.3366 H       
  43 H43            5.7485    -2.7691     3.3247 H       
  44 H44            6.7232    -0.6264     4.0350 H       
  45 H45            6.2753     1.4233     2.7506 H       
  46 H46            3.2615     5.8430    -0.6092 H       
  47 H47            2.2273     2.2352    -2.6888 H       
  48 H48            0.6076     3.4932    -4.0454 H       
  49 H49            6.9076     5.0607     0.9528 H       
  50 H50           -1.5886     5.6074    -2.7613 H       
  51 H51           -1.0597     7.1659    -2.5222 H       
  52 H52            0.3623     8.2943    -4.2058 H       
  53 H53            1.7067     7.2454    -4.8332 H       
  54 H54           -1.2213     7.4051    -5.8514 H       
  55 H55            0.2793     7.0639    -6.8172 H       
  56 H56            0.6320     4.9208    -5.6818 H       
  57 H57           -1.1630     4.9950    -5.4102 H       
  58 H58            7.5212     8.0779    -1.9962 H       
  59 H59            5.9243     6.9563    -3.4946 H       
  60 H60            4.8147     4.8793    -2.7840 H       
  61 H61            9.2928     6.9458     0.2957 H       
  62 H62            8.2700     8.4026     0.2862 H       
  63 H63            8.0141     7.1434     1.5180 H       
@<TRIPOS>BOND
   1    1    2 ar
   2    1    6 ar
   3    1   38 1
   4    2    3 ar
   5    2   39 1
   6    3    4 ar
   7    4    5 ar
   8    4    7 1
   9    5    6 ar
  10    5   11 1
  11    6   40 1
  12    7    8 1
  13    7   41 1
  14    8    9 ar
  15    8   12 ar
  16    9   10 1
  17    9   15 ar
  18   10   11 1
  19   10   16 2
  20   11   18 1
  21   12   13 ar
  22   12   42 1
  23   13   14 ar
  24   13   43 1
  25   14   15 ar
  26   14   44 1
  27   15   45 1
  28   16   17 1
  29   17   18 2
  30   17   25 1
  31   18   19 1
  32   19   20 ar
  33   19   21 ar
  34   20   24 ar
  35   20   46 1
  36   21   22 ar
  37   21   47 1
  38   22   23 ar
  39   22   48 1
  40   23   24 ar
  41   23   26 1
  42   24   37 1
  43   25   27 ar
  44   25   35 ar
  45   26   29 1
  46   26   28 1
  47   26   31 1
  48   27   32 ar
  49   27   49 1
  50   28   50 1
  51   28   51 1
  52   29   30 1
  53   29   52 1
  54   29   53 1
  55   30   31 1
  56   30   54 1
  57   30   55 1
  58   31   56 1
  59   31   57 1
  60   32   33 ar
  61   32   36 1
  62   33   34 ar
  63   33   58 1
  64   34   35 ar
  65   34   59 1
  66   35   60 1
  67   36   61 1
  68   36   62 1
  69   36   63 1

#	End of record

