#	Name: ASD00241036
#	Creating user name:	WinNT
#	Creation time:	15. 06. 2019 18:33

#	Modifying user name:	WinNT
#	Modification time:	15. 06. 2019 18:33

#	Program:	/corina/corina34_cracker 3.40 0067  02.08.2006

@<TRIPOS>MOLECULE
ASD00241036
  55   59    0    0    0
SMALL
NO_CHARGES


@<TRIPOS>ATOM
   1 N1            -0.0158     1.3174     0.0093 N.ar    
   2 C2             0.0021    -0.0041     0.0020 C.ar    
   3 N3             1.1237    -0.6954    -0.0120 N.ar    
   4 C4             2.3002    -0.0771    -0.0199 C.ar    
   5 C5             2.3338     1.3275    -0.0131 C.ar    
   6 C6             1.1117     2.0208     0.0023 C.ar    
   7 N7             3.6095    -0.4868    -0.0342 N.pl3   
   8 C8             4.3880     0.6326    -0.0358 C.2     
   9 N9             3.6378     1.6958    -0.0235 N.2     
  10 C10            4.0840    -1.8727    -0.0449 C.3     
  11 O11            5.4135    -1.9325     0.4801 O.3     
  12 C12            6.2966    -2.5243    -0.4833 C.3     
  13 C13            5.6318    -2.2945    -1.8585 C.3     
  14 C14            4.1169    -2.4005    -1.4918 C.3     
  15 C15            7.6641    -1.8397    -0.4367 C.3     
  16 O16            3.9111    -3.8295    -1.4654 O.3     
  17 O17            5.8581    -3.4439    -2.6896 O.3     
  18 N18            1.0829     3.4043     0.0091 N.pl3   
  19 Cl19          -1.5078    -0.8607     0.0118 Cl      
  20 C20            4.7832    -4.3641    -2.4718 C.3     
  21 C21            5.3445    -5.7083    -2.0039 C.3     
  22 C22            4.0045    -4.5618    -3.7739 C.3     
  23 O23            8.2926    -2.1160     0.8166 O.3     
  24 C24            9.4164     0.2386     1.2660 C.ar    
  25 C25            9.2791     0.7067     2.5594 C.ar    
  26 C26            9.0883     2.0564     2.7894 C.ar    
  27 C27            9.0352     2.9380     1.7260 C.ar    
  28 C28            9.1733     2.4700     0.4326 C.ar    
  29 C29            9.3627     1.1202     0.2025 C.ar    
  30 C30            8.8262     4.4092     1.9766 C.3     
  31 S31            9.6668    -1.4807     0.9732 S.o2    
  32 O32           10.2218    -2.0144     2.1675 O.2     
  33 O33           10.3032    -1.5836    -0.2932 O.2     
  34 H34            5.4679     0.6363    -0.0452 H       
  35 H35            3.4216    -2.4934     0.5584 H       
  36 H36            6.4028    -3.5918    -0.2904 H       
  37 H37            5.9073    -1.3473    -2.3224 H       
  38 H38            3.4565    -1.8610    -2.1707 H       
  39 H39            8.2875    -2.2178    -1.2470 H       
  40 H40            7.5355    -0.7632    -0.5492 H       
  41 H41            1.9126     3.9068     0.0033 H       
  42 H42            0.2329     3.8717     0.0198 H       
  43 H43            4.5254    -6.4118    -1.8543 H       
  44 H44            6.0264    -6.0999    -2.7586 H       
  45 H45            5.8814    -5.5709    -1.0653 H       
  46 H46            3.5871    -3.6079    -4.0961 H       
  47 H47            4.6750    -4.9436    -4.5438 H       
  48 H48            3.1967    -5.2749    -3.6095 H       
  49 H49            9.3206     0.0179     3.3902 H       
  50 H50            8.9804     2.4220     3.7999 H       
  51 H51            9.1311     3.1587    -0.3982 H       
  52 H52            9.4699     0.7545    -0.8080 H       
  53 H53            9.7929     4.8981     2.0975 H       
  54 H54            8.2990     4.8506     1.1308 H       
  55 H55            8.2355     4.5431     2.8829 H       
@<TRIPOS>BOND
   1    1    2 ar
   2    1    6 ar
   3    2    3 ar
   4    2   19 1
   5    3    4 ar
   6    4    5 ar
   7    4    7 1
   8    5    6 ar
   9    5    9 1
  10    6   18 1
  11    7    8 1
  12    7   10 1
  13    8    9 2
  14    8   34 1
  15   10   11 1
  16   10   14 1
  17   10   35 1
  18   11   12 1
  19   12   13 1
  20   12   15 1
  21   12   36 1
  22   13   14 1
  23   13   17 1
  24   13   37 1
  25   14   16 1
  26   14   38 1
  27   15   23 1
  28   15   39 1
  29   15   40 1
  30   16   20 1
  31   17   20 1
  32   18   41 1
  33   18   42 1
  34   20   21 1
  35   20   22 1
  36   21   43 1
  37   21   44 1
  38   21   45 1
  39   22   46 1
  40   22   47 1
  41   22   48 1
  42   23   31 1
  43   24   25 ar
  44   24   29 ar
  45   24   31 1
  46   25   26 ar
  47   25   49 1
  48   26   27 ar
  49   26   50 1
  50   27   28 ar
  51   27   30 1
  52   28   29 ar
  53   28   51 1
  54   29   52 1
  55   30   53 1
  56   30   54 1
  57   30   55 1
  58   31   32 2
  59   31   33 2

#	End of record

