#	Name: ASD01812932
#	Creating user name:	WinNT
#	Creation time:	15. 06. 2019 19:29

#	Modifying user name:	WinNT
#	Modification time:	15. 06. 2019 19:29

#	Program:	/corina/corina34_cracker 3.40 0067  02.08.2006

@<TRIPOS>MOLECULE
ASD01812932
  49   52    0    0    0
SMALL
NO_CHARGES


@<TRIPOS>ATOM
   1 N1             0.0027     1.3184    -0.2223 N.ar    
   2 C2             0.0319     0.0057    -0.3459 C.ar    
   3 C3             1.2340    -0.6843    -0.3686 C.ar    
   4 C4             2.4113     0.0205    -0.2597 C.ar    
   5 C5             2.3614     1.4132    -0.1293 C.ar    
   6 C6             1.1073     2.0395    -0.1145 C.ar    
   7 C7             3.8682    -0.3580    -0.2438 C.3     
   8 N8             4.6152     0.8976    -0.0979 N.am    
   9 C9             3.7395     1.9163    -0.0324 C.2     
  10 C10            6.0736     1.0205    -0.0343 C.3     
  11 C11            6.6241     1.1969    -1.4260 C.ar    
  12 O12            1.0259     3.3855     0.0100 O.3     
  13 O13            4.0442     3.0871     0.0890 O.2     
  14 C14            6.7749     2.4652    -1.9632 C.ar    
  15 N15            7.2536     2.6322    -3.1767 N.ar    
  16 C16            7.6104     1.6013    -3.9325 C.ar    
  17 C17            7.4860     0.2979    -3.4568 C.ar    
  18 C18            6.9898     0.0920    -2.1792 C.ar    
  19 C19           -0.2021     3.9617    -0.0802 C.ar    
  20 C20           -1.0089     4.0614     1.0469 C.ar    
  21 C21           -2.2575     4.6481     0.9512 C.ar    
  22 C22           -0.6498     4.4560    -1.2957 C.ar    
  23 F23           -0.5742     3.5855     2.2342 F       
  24 C24           -2.7025     5.1344    -0.2646 C.ar    
  25 C25           -1.8987     5.0414    -1.3852 C.ar    
  26 C26           -4.0638     5.7728    -0.3664 C.3     
  27 O27            8.4730     0.8984    -5.9902 O.2     
  28 C28            8.1449     1.8386    -5.2939 C.2     
  29 N29            8.2671     3.0973    -5.7599 N.am    
  30 C30            8.7956     3.3319    -7.1060 C.3     
  31 F31           -5.0147     4.7959    -0.6805 F       
  32 F32           -4.3926     6.3676     0.8564 F       
  33 F33           -4.0478     6.7476    -1.3698 F       
  34 H34           -0.8959    -0.5406    -0.4305 H       
  35 H35            1.2466    -1.7594    -0.4699 H       
  36 H36            4.0750    -1.0173     0.5993 H       
  37 H37            4.1383    -0.8484    -1.1790 H       
  38 H38            6.3392     1.8853     0.5738 H       
  39 H39            6.4950     0.1196     0.4116 H       
  40 H40            6.4951     3.3283    -1.3775 H       
  41 H41            7.7764    -0.5401    -4.0731 H       
  42 H42            6.8864    -0.9066    -1.7812 H       
  43 H43           -2.8856     4.7263     1.8263 H       
  44 H44           -0.0228     4.3841    -2.1721 H       
  45 H45           -2.2489     5.4224    -2.3332 H       
  46 H46            8.0052     3.8479    -5.2041 H       
  47 H47            8.8203     4.4033    -7.3050 H       
  48 H48            9.8048     2.9261    -7.1759 H       
  49 H49            8.1550     2.8410    -7.8385 H       
@<TRIPOS>BOND
   1    1    2 ar
   2    1    6 ar
   3    2    3 ar
   4    2   34 1
   5    3    4 ar
   6    3   35 1
   7    4    7 1
   8    4    5 ar
   9    5    6 ar
  10    5    9 1
  11    6   12 1
  12    7    8 1
  13    7   36 1
  14    7   37 1
  15    8    9 am
  16    8   10 1
  17    9   13 2
  18   10   11 1
  19   10   38 1
  20   10   39 1
  21   11   14 ar
  22   11   18 ar
  23   12   19 1
  24   14   15 ar
  25   14   40 1
  26   15   16 ar
  27   16   17 ar
  28   16   28 1
  29   17   18 ar
  30   17   41 1
  31   18   42 1
  32   19   20 ar
  33   19   22 ar
  34   20   23 1
  35   20   21 ar
  36   21   24 ar
  37   21   43 1
  38   22   25 ar
  39   22   44 1
  40   24   25 ar
  41   24   26 1
  42   25   45 1
  43   26   31 1
  44   26   32 1
  45   26   33 1
  46   27   28 2
  47   28   29 am
  48   29   30 1
  49   29   46 1
  50   30   47 1
  51   30   48 1
  52   30   49 1

#	End of record

