#	Name: ASD03180106
#	Creating user name:	WinNT
#	Creation time:	15. 06. 2019 20:33

#	Modifying user name:	WinNT
#	Modification time:	15. 06. 2019 20:33

#	Program:	/corina/corina34_cracker 3.40 0067  02.08.2006

@<TRIPOS>MOLECULE
ASD03180106
  42   45    0    0    0
SMALL
NO_CHARGES


@<TRIPOS>ATOM
   1 N1            -0.0169     1.3934     0.0097 N.pl3   
   2 C2            -0.0115    -0.0037    -0.0285 C.ar    
   3 C3             0.9630    -2.0568    -0.7939 C.ar    
   4 C4            -0.0009    -2.7697    -0.1042 C.ar    
   5 C5            -0.9733    -2.1031     0.6184 C.ar    
   6 C6            -0.9815    -0.7225     0.6583 C.ar    
   7 C7             0.9606    -0.6765    -0.7583 C.ar    
   8 C8            -2.0413     0.0031     1.4466 C.3     
   9 N9             1.2942     3.3797    -0.0858 N.2     
  10 C10            2.5316     3.8775    -0.0791 C.2     
  11 C11            1.1804     2.0914     0.0006 C.2     
  12 S12            2.7806     1.3646     0.1052 S.3     
  13 C13            3.5169     2.9629     0.0181 C.2     
  14 C14            2.8024     5.3257    -0.1718 C.2     
  15 C15           -3.1945     0.3874     0.5174 C.3     
  16 O16            4.0085     5.9221    -0.1740 O.3     
  17 N17            3.9127     7.1239    -0.2620 N.2     
  18 C18            2.6608     7.5086    -0.3305 C.2     
  19 C19            1.8771     6.3280    -0.2786 C.2     
  20 C20            2.1631     8.9026    -0.4445 C.ar    
  21 C21            3.0635     9.9647    -0.4894 C.ar    
  22 C22            2.5955    11.2589    -0.5960 C.ar    
  23 C23            1.2353    11.5021    -0.6582 C.ar    
  24 C24            0.3370    10.4513    -0.6135 C.ar    
  25 C25            0.7944     9.1529    -0.5128 C.ar    
  26 H26           -0.8586     1.8746     0.0386 H       
  27 H27            1.7210    -2.5806    -1.3574 H       
  28 H28            0.0032    -3.8493    -0.1337 H       
  29 H29           -1.7245    -2.6627     1.1559 H       
  30 H30            1.7134    -0.1205    -1.2974 H       
  31 H31           -2.4139    -0.6467     2.2385 H       
  32 H32           -1.6138     0.9040     1.8868 H       
  33 H33            4.5759     3.1736     0.0386 H       
  34 H34           -3.6220    -0.5135     0.0772 H       
  35 H35           -3.9611     0.9122     1.0875 H       
  36 H36           -2.8220     1.0371    -0.2745 H       
  37 H37            0.8013     6.2405    -0.3132 H       
  38 H38            4.1257     9.7759    -0.4406 H       
  39 H39            3.2926    12.0830    -0.6305 H       
  40 H40            0.8733    12.5162    -0.7415 H       
  41 H41           -0.7241    10.6467    -0.6621 H       
  42 H42            0.0924     8.3327    -0.4829 H       
@<TRIPOS>BOND
   1    1    2 1
   2    1   11 1
   3    1   26 1
   4    2    7 ar
   5    2    6 ar
   6    3    4 ar
   7    3    7 ar
   8    3   27 1
   9    4    5 ar
  10    4   28 1
  11    5    6 ar
  12    5   29 1
  13    6    8 1
  14    7   30 1
  15    8   15 1
  16    8   31 1
  17    8   32 1
  18    9   11 2
  19    9   10 1
  20   10   13 2
  21   10   14 1
  22   11   12 1
  23   12   13 1
  24   13   33 1
  25   14   16 1
  26   14   19 2
  27   15   34 1
  28   15   35 1
  29   15   36 1
  30   16   17 1
  31   17   18 2
  32   18   19 1
  33   18   20 1
  34   19   37 1
  35   20   21 ar
  36   20   25 ar
  37   21   22 ar
  38   21   38 1
  39   22   23 ar
  40   22   39 1
  41   23   24 ar
  42   23   40 1
  43   24   25 ar
  44   24   41 1
  45   25   42 1

#	End of record

