#	Name: ASD08070650
#	Creating user name:	WinNT
#	Creation time:	15. 06. 2019 21:15

#	Modifying user name:	WinNT
#	Modification time:	15. 06. 2019 21:15

#	Program:	/corina/corina34_cracker 3.40 0067  02.08.2006

@<TRIPOS>MOLECULE
ASD08070650
  41   41    0    0    0
SMALL
NO_CHARGES


@<TRIPOS>ATOM
   1 C1             0.1296     1.4541     0.4670 C.2     
   2 C2             0.0492    -0.0438     0.3218 C.3     
   3 C3            -0.8786    -0.3942    -0.8432 C.3     
   4 C4            -2.3117     0.0121    -0.4939 C.3     
   5 C5            -3.2175    -0.2215    -1.7046 C.3     
   6 O6             1.1947     2.0149     0.3623 O.2     
   7 O7            -0.9829     2.1657     0.7070 O.3     
   8 C8            -2.8076    -0.8292     0.6839 C.3     
   9 C9             1.7030    -1.8276     0.4642 C.2     
  10 C10            3.0815    -2.3291     0.2999 C.ar    
  11 C11            3.4115    -3.6210     0.7186 C.ar    
  12 C12            4.6995    -4.0851     0.5634 C.ar    
  13 C13            5.6701    -3.2694    -0.0091 C.ar    
  14 C14            5.3450    -1.9847    -0.4263 C.ar    
  15 C15            4.0582    -1.5156    -0.2797 C.ar    
  16 O16            0.8530    -2.5386     0.9643 O.2     
  17 N17            1.3866    -0.5814     0.0598 N.am    
  18 O18            6.9381    -3.7296    -0.1601 O.3     
  19 C19            7.8846    -2.8398    -0.7553 C.3     
  20 Cl20           5.1116    -5.6894     1.0834 Cl      
  21 C21           -0.8306     3.6040     0.8352 C.3     
  22 H22           -0.3429    -0.4774     1.2417 H       
  23 H23           -0.5571     0.1402    -1.7372 H       
  24 H24           -0.8401    -1.4677    -1.0281 H       
  25 H25           -2.3340     1.0673    -0.2216 H       
  26 H26           -3.1951    -1.2767    -1.9769 H       
  27 H27           -4.2385     0.0680    -1.4558 H       
  28 H28           -2.8642     0.3779    -2.5437 H       
  29 H29           -2.2195    -0.5945     1.5711 H       
  30 H30           -3.8572    -0.6051     0.8740 H       
  31 H31           -2.6993    -1.8873     0.4456 H       
  32 H32            2.6583    -4.2543     1.1634 H       
  33 H33            6.1014    -1.3543    -0.8699 H       
  34 H34            3.8056    -0.5183    -0.6085 H       
  35 H35            2.0443    -0.0406    -0.4047 H       
  36 H36            7.5498    -2.5701    -1.7568 H       
  37 H37            7.9703    -1.9400    -0.1461 H       
  38 H38            8.8559    -3.3307    -0.8168 H       
  39 H39           -0.1568     3.8256     1.6629 H       
  40 H40           -0.4172     4.0093    -0.0883 H       
  41 H41           -1.8033     4.0567     1.0274 H       
@<TRIPOS>BOND
   1    1    2 1
   2    1    6 2
   3    1    7 1
   4    2    3 1
   5    2   17 1
   6    2   22 1
   7    3    4 1
   8    3   23 1
   9    3   24 1
  10    4    5 1
  11    4    8 1
  12    4   25 1
  13    5   26 1
  14    5   27 1
  15    5   28 1
  16    7   21 1
  17    8   29 1
  18    8   30 1
  19    8   31 1
  20    9   10 1
  21    9   16 2
  22    9   17 am
  23   10   11 ar
  24   10   15 ar
  25   11   12 ar
  26   11   32 1
  27   12   13 ar
  28   12   20 1
  29   13   14 ar
  30   13   18 1
  31   14   15 ar
  32   14   33 1
  33   15   34 1
  34   17   35 1
  35   18   19 1
  36   19   36 1
  37   19   37 1
  38   19   38 1
  39   21   39 1
  40   21   40 1
  41   21   41 1

#	End of record

