#	Name: ASD01816441
#	Creating user name:	WinNT
#	Creation time:	15. 06. 2019 19:35

#	Modifying user name:	WinNT
#	Modification time:	15. 06. 2019 19:35

#	Program:	/corina/corina34_cracker 3.40 0067  02.08.2006

@<TRIPOS>MOLECULE
ASD01816441
  53   58    0    0    0
SMALL
NO_CHARGES


@<TRIPOS>ATOM
   1 C1            -0.0167     1.3813     0.0096 C.ar    
   2 C2             0.0021    -0.0041     0.0020 C.ar    
   3 C3             1.1983    -0.6909    -0.0131 C.ar    
   4 C4             2.4015     0.0060    -0.0208 C.ar    
   5 C5             2.3790     1.4106    -0.0130 C.ar    
   6 C6             1.1663     2.0916     0.0022 C.ar    
   7 N7             3.6053    -0.6771    -0.0354 N.pl3   
   8 C8             4.7970    -0.0585    -0.0434 C.2     
   9 C9             4.9000     1.3103    -0.0375 C.2     
  10 C10            3.6670     2.1302    -0.0215 C.2     
  11 C11            5.9971     2.2730    -0.0438 C.2     
  12 N12            5.4245     3.4961    -0.0327 N.am    
  13 N13            4.0322     3.3798    -0.0194 N.2     
  14 C14            6.1235     4.7036    -0.0331 C.ar    
  15 O15            7.1912     2.0231    -0.0564 O.2     
  16 C16            3.5779    -2.1419    -0.0420 C.3     
  17 C17            3.5550    -2.6375    -1.4650 C.ar    
  18 C18            4.7426    -2.8867    -2.1280 C.ar    
  19 C19            4.7248    -3.3406    -3.4324 C.ar    
  20 C20            3.5129    -3.5469    -4.0776 C.ar    
  21 C21            2.3222    -3.2962    -3.4092 C.ar    
  22 C22            2.3463    -2.8474    -2.1031 C.ar    
  23 N23            3.4916    -4.0071    -5.4017 N.pl3   
  24 C24            2.3865    -4.2483    -6.1427 C.2     
  25 C25            2.7927    -4.6777    -7.3599 C.2     
  26 C26            4.1917    -4.7000    -7.3641 C.2     
  27 N27            4.6115    -4.2926    -6.1933 N.2     
  28 N28            7.4474     4.6950    -0.0505 N.ar    
  29 C29            8.1465     5.8133    -0.0519 C.ar    
  30 C30            7.5164     7.0426    -0.0352 C.ar    
  31 C31            6.1295     7.0950    -0.0167 C.ar    
  32 C32            5.4237     5.9044    -0.0210 C.ar    
  33 C33            5.4086     8.4182     0.0018 C.3     
  34 H34           -0.9602     1.9068     0.0169 H       
  35 H35           -0.9288    -0.5516     0.0083 H       
  36 H36            1.2004    -1.7709    -0.0185 H       
  37 H37            1.1506     3.1715     0.0077 H       
  38 H38            5.6983    -0.6535    -0.0544 H       
  39 H39            4.4658    -2.5241     0.4616 H       
  40 H40            2.6862    -2.4909     0.4787 H       
  41 H41            5.6849    -2.7260    -1.6255 H       
  42 H42            5.6526    -3.5344    -3.9500 H       
  43 H43            1.3779    -3.4554    -3.9086 H       
  44 H44            1.4204    -2.6522    -1.5826 H       
  45 H45            1.3634    -4.1216    -5.8206 H       
  46 H46            2.1504    -4.9543    -8.1830 H       
  47 H47            4.8175    -4.9978    -8.1924 H       
  48 H48            9.2254     5.7675    -0.0660 H       
  49 H49            8.0969     7.9533    -0.0362 H       
  50 H50            4.3437     5.9084    -0.0110 H       
  51 H51            5.2214     8.7443    -1.0213 H       
  52 H52            4.4601     8.3079     0.5273 H       
  53 H53            6.0230     9.1596     0.5127 H       
@<TRIPOS>BOND
   1    1    2 ar
   2    1    6 ar
   3    1   34 1
   4    2    3 ar
   5    2   35 1
   6    3    4 ar
   7    3   36 1
   8    4    5 ar
   9    4    7 1
  10    5    6 ar
  11    5   10 1
  12    6   37 1
  13    7    8 1
  14    7   16 1
  15    8    9 2
  16    8   38 1
  17    9   10 1
  18    9   11 1
  19   10   13 2
  20   11   12 am
  21   11   15 2
  22   12   13 1
  23   12   14 1
  24   14   32 ar
  25   14   28 ar
  26   16   17 1
  27   16   39 1
  28   16   40 1
  29   17   18 ar
  30   17   22 ar
  31   18   19 ar
  32   18   41 1
  33   19   20 ar
  34   19   42 1
  35   20   21 ar
  36   20   23 1
  37   21   22 ar
  38   21   43 1
  39   22   44 1
  40   23   24 1
  41   23   27 1
  42   24   25 2
  43   24   45 1
  44   25   26 1
  45   25   46 1
  46   26   27 2
  47   26   47 1
  48   28   29 ar
  49   29   30 ar
  50   29   48 1
  51   30   31 ar
  52   30   49 1
  53   31   32 ar
  54   31   33 1
  55   32   50 1
  56   33   51 1
  57   33   52 1
  58   33   53 1

#	End of record

