#	Name: ASD02588022
#	Creating user name:	WinNT
#	Creation time:	15. 06. 2019 20:25

#	Modifying user name:	WinNT
#	Modification time:	15. 06. 2019 20:25

#	Program:	/corina/corina34_cracker 3.40 0067  02.08.2006

@<TRIPOS>MOLECULE
ASD02588022
  52   54    0    0    0
SMALL
NO_CHARGES


@<TRIPOS>ATOM
   1 C1            -0.0165     1.3692     0.0096 C.2     
   2 N2             0.0021    -0.0041     0.0020 N.pl3   
   3 N3            -1.2217    -0.6902     0.0100 N.2     
   4 C4            -2.3523    -0.0178     0.0244 C.2     
   5 N5            -2.3789     1.3203     0.0314 N.2     
   6 C6            -1.2674     2.0316     0.0303 C.2     
   7 C7             1.3035     1.8294    -0.0006 C.2     
   8 C8             2.1390     0.6902    -0.0146 C.2     
   9 C9             1.3027    -0.4331    -0.0127 C.2     
  10 N10           -1.3241     3.4120     0.0381 N.pl3   
  11 C11            1.7284     3.1969     0.0027 C.1     
  12 C12            3.5709     0.6852    -0.0288 C.1     
  13 C13           -3.6324    -0.7630     0.0326 C.2     
  14 O14           -4.6876    -0.1587     0.0460 O.2     
  15 C15           -3.6275    -2.1949     0.0249 C.1     
  16 C16            2.0768     4.3180     0.0054 C.1     
  17 C17            4.7449     0.6810    -0.0403 C.1     
  18 C18           -3.6234    -3.3689     0.0185 C.1     
  19 C19            2.5136     5.7237     0.0088 C.3     
  20 O20            3.9415     5.7788    -0.0046 O.3     
  21 C21            6.2168     0.6758    -0.0548 C.3     
  22 O22            6.6883    -0.6731    -0.0664 O.3     
  23 C23           -3.6183    -4.8409     0.0106 C.3     
  24 O24           -4.9638    -5.3220     0.0208 O.3     
  25 C25            1.7293    -1.7832    -0.0233 C.2     
  26 O26            2.9176    -2.0458    -0.0358 O.2     
  27 O27            0.8181    -2.7790    -0.0195 O.3     
  28 C28            1.3194    -4.1172    -0.0308 C.3     
  29 C29            0.1651    -5.0860    -0.0246 C.ar    
  30 C30           -0.3756    -5.5246    -1.2188 C.ar    
  31 C31           -1.4344    -6.4133    -1.2131 C.ar    
  32 C32           -1.9522    -6.8638    -0.0132 C.ar    
  33 C33           -1.4109    -6.4260     1.1810 C.ar    
  34 C34           -0.3493    -5.5406     1.1753 C.ar    
  35 H35           -2.1834     3.8621     0.0445 H       
  36 H36           -0.5047     3.9312     0.0372 H       
  37 H37            2.1222     6.2279    -0.8748 H       
  38 H38            2.1392     6.2183     0.9050 H       
  39 H39            4.3004     6.6767    -0.0032 H       
  40 H40            6.5732     1.1930    -0.9457 H       
  41 H41            6.5907     1.1838     0.8341 H       
  42 H42            7.6519    -0.7528    -0.0763 H       
  43 H43           -3.1117    -5.1976    -0.8862 H       
  44 H44           -3.0947    -5.2072     0.8936 H       
  45 H45           -5.0368    -6.2862     0.0163 H       
  46 H46            1.9196    -4.2728    -0.9272 H       
  47 H47            1.9364    -4.2814     0.8526 H       
  48 H48            0.0290    -5.1726    -2.1563 H       
  49 H49           -1.8573    -6.7554    -2.1462 H       
  50 H50           -2.7798    -7.5576    -0.0088 H       
  51 H51           -1.8156    -6.7777     2.1185 H       
  52 H52            0.0761    -5.2014     2.1083 H       
@<TRIPOS>BOND
   1    1    2 1
   2    1    7 2
   3    1    6 1
   4    2    3 1
   5    2    9 1
   6    3    4 2
   7    4    5 1
   8    4   13 1
   9    5    6 2
  10    6   10 1
  11    7    8 1
  12    7   11 1
  13    8    9 2
  14    8   12 1
  15    9   25 1
  16   10   35 1
  17   10   36 1
  18   11   16 3
  19   12   17 3
  20   13   14 2
  21   13   15 1
  22   15   18 3
  23   16   19 1
  24   17   21 1
  25   18   23 1
  26   19   20 1
  27   19   37 1
  28   19   38 1
  29   20   39 1
  30   21   22 1
  31   21   40 1
  32   21   41 1
  33   22   42 1
  34   23   24 1
  35   23   43 1
  36   23   44 1
  37   24   45 1
  38   25   26 2
  39   25   27 1
  40   27   28 1
  41   28   29 1
  42   28   46 1
  43   28   47 1
  44   29   30 ar
  45   29   34 ar
  46   30   31 ar
  47   30   48 1
  48   31   32 ar
  49   31   49 1
  50   32   33 ar
  51   32   50 1
  52   33   34 ar
  53   33   51 1
  54   34   52 1

#	End of record

