#	Name: ASD01881608
#	Creating user name:	WinNT
#	Creation time:	15. 06. 2019 19:43

#	Modifying user name:	WinNT
#	Modification time:	15. 06. 2019 19:43

#	Program:	/corina/corina34_cracker 3.40 0067  02.08.2006

@<TRIPOS>MOLECULE
ASD01881608
  47   49    0    0    0
SMALL
NO_CHARGES


@<TRIPOS>ATOM
   1 O1            -0.0164     1.3553     0.0095 O.3     
   2 C2             0.0021    -0.0041     0.0020 C.2     
   3 N3             1.2044    -0.4874    -0.4160 N.pl3   
   4 C4             2.0874     0.6586    -0.6957 C.3     
   5 C5             1.3444     1.8235    -0.0010 C.3     
   6 N6            -0.7787    -1.0267     0.2724 N.2     
   7 C7            -0.1064    -2.1804     0.0208 C.2     
   8 C8             1.1405    -1.8462    -0.4146 C.2     
   9 C9            -0.6311    -3.5460     0.1885 C.2     
  10 O10            0.0722    -4.5039    -0.0712 O.2     
  11 N11           -1.8906    -3.7345     0.6296 N.am    
  12 C12            1.4704     3.1125    -0.8156 C.3     
  13 O13            0.7611     4.1636    -0.1567 O.3     
  14 C14            0.7732     5.3846    -0.7535 C.ar    
  15 C15            0.1050     6.4504    -0.1686 C.ar    
  16 C16            0.1187     7.6905    -0.7771 C.ar    
  17 C17            0.7976     7.8699    -1.9682 C.ar    
  18 C18            1.4639     6.8091    -2.5534 C.ar    
  19 C19            1.4584     5.5685    -1.9456 C.ar    
  20 C20            1.6255     9.1514    -3.9231 C.3     
  21 C21            0.8109     9.2238    -2.6300 C.3     
  22 C22           -0.6232     9.6474    -2.9536 C.3     
  23 C23            1.4440    10.2471    -1.6850 C.3     
  24 F24            1.0466     8.2157    -4.7871 F       
  25 F25            1.6378    10.4083    -4.5374 F       
  26 F26            2.9368     8.7641    -3.6271 F       
  27 C27            2.2374    -2.7982    -0.8166 C.3     
  28 H28            3.0716     0.5070    -0.2525 H       
  29 H29            2.1668     0.8342    -1.7685 H       
  30 H30            1.7129     1.9677     1.0147 H       
  31 H31           -2.4514    -2.9707     0.8366 H       
  32 H32           -2.2362    -4.6341     0.7401 H       
  33 H33            2.5222     3.3844    -0.9051 H       
  34 H34            1.0495     2.9572    -1.8089 H       
  35 H35           -0.4257     6.3107     0.7616 H       
  36 H36           -0.4016     8.5205    -0.3224 H       
  37 H37            1.9929     6.9516    -3.4842 H       
  38 H38            1.9831     4.7414    -2.4006 H       
  39 H39           -1.2035     9.6989    -2.0324 H       
  40 H40           -0.6136    10.6266    -3.4323 H       
  41 H41           -1.0742     8.9183    -3.6268 H       
  42 H42            2.4657     9.9453    -1.4544 H       
  43 H43            1.4536    11.2264    -2.1636 H       
  44 H44            0.8637    10.2987    -0.7638 H       
  45 H45            2.8438    -3.0428     0.0555 H       
  46 H46            1.7973    -3.7100    -1.2204 H       
  47 H47            2.8644    -2.3304    -1.5756 H       
@<TRIPOS>BOND
   1    1    2 1
   2    1    5 1
   3    2    3 1
   4    2    6 2
   5    3    4 1
   6    3    8 1
   7    4    5 1
   8    4   28 1
   9    4   29 1
  10    5   12 1
  11    5   30 1
  12    6    7 1
  13    7    8 2
  14    7    9 1
  15    8   27 1
  16    9   10 2
  17    9   11 am
  18   11   31 1
  19   11   32 1
  20   12   13 1
  21   12   33 1
  22   12   34 1
  23   13   14 1
  24   14   15 ar
  25   14   19 ar
  26   15   16 ar
  27   15   35 1
  28   16   17 ar
  29   16   36 1
  30   17   18 ar
  31   17   21 1
  32   18   19 ar
  33   18   37 1
  34   19   38 1
  35   20   21 1
  36   20   24 1
  37   20   25 1
  38   20   26 1
  39   21   22 1
  40   21   23 1
  41   22   39 1
  42   22   40 1
  43   22   41 1
  44   23   42 1
  45   23   43 1
  46   23   44 1
  47   27   45 1
  48   27   46 1
  49   27   47 1

#	End of record

