#	Name: ASD01814241
#	Creating user name:	WinNT
#	Creation time:	15. 06. 2019 19:32

#	Modifying user name:	WinNT
#	Modification time:	15. 06. 2019 19:32

#	Program:	/corina/corina34_cracker 3.40 0067  02.08.2006

@<TRIPOS>MOLECULE
ASD01814241
  39   42    0    0    0
SMALL
NO_CHARGES


@<TRIPOS>ATOM
   1 C1            -0.0167     1.3820     0.0096 C.ar    
   2 C2             0.0021    -0.0041     0.0020 C.ar    
   3 C3             1.1959    -0.6932    -0.0130 C.ar    
   4 C4             2.4016     0.0019    -0.0208 C.ar    
   5 C5             2.3831     1.4075    -0.0131 C.ar    
   6 C6             1.1665     2.0939     0.0022 C.ar    
   7 N7             3.6010    -0.6771    -0.0354 N.pl3   
   8 C8             4.7870    -0.0549    -0.0424 C.2     
   9 C9             4.8957     1.3208    -0.0361 C.2     
  10 C10            3.6667     2.1313    -0.0214 C.2     
  11 C11            6.2161     1.9660    -0.0437 C.2     
  12 O12            6.3092     3.3109    -0.0374 O.3     
  13 O13            7.2243     1.2870    -0.0558 O.2     
  14 O14            3.7090     3.3491    -0.0157 O.2     
  15 C15            3.5775    -2.1419    -0.0430 C.3     
  16 C16            3.5565    -2.6366    -1.4663 C.ar    
  17 C17            4.7595    -2.8812    -2.1253 C.ar    
  18 C18            4.7784    -3.3287    -3.4116 C.ar    
  19 C19            3.5670    -3.5474    -4.0854 C.ar    
  20 C20            2.3420    -3.2980    -3.4129 C.ar    
  21 C21            2.3613    -2.8431    -2.0870 C.ar    
  22 C22            3.5237    -4.0075    -5.4116 C.ar    
  23 N23            2.3662    -4.1970    -6.0003 N.ar    
  24 C24            1.2076    -3.9719    -5.3956 C.ar    
  25 C25            1.1417    -3.5249    -4.1111 C.ar    
  26 F26            1.1476     3.4448     0.0096 F       
  27 H27           -0.9604     1.9071     0.0169 H       
  28 H28           -0.9295    -0.5505     0.0083 H       
  29 H29            1.1956    -1.7731    -0.0185 H       
  30 H30            5.6884    -0.6497    -0.0531 H       
  31 H31            7.1990     3.6894    -0.0429 H       
  32 H32            4.4662    -2.5222     0.4608 H       
  33 H33            2.6865    -2.4937     0.4772 H       
  34 H34            5.6924    -2.7128    -1.6078 H       
  35 H35            5.7189    -3.5135    -3.9094 H       
  36 H36            1.4361    -2.6500    -1.5644 H       
  37 H37            4.4412    -4.2046    -5.9460 H       
  38 H38            0.2901    -4.1483    -5.9374 H       
  39 H39            0.1872    -3.3488    -3.6374 H       
@<TRIPOS>BOND
   1    1    2 ar
   2    1    6 ar
   3    1   27 1
   4    2    3 ar
   5    2   28 1
   6    3    4 ar
   7    3   29 1
   8    4    5 ar
   9    4    7 1
  10    5    6 ar
  11    5   10 1
  12    6   26 1
  13    7    8 1
  14    7   15 1
  15    8    9 2
  16    8   30 1
  17    9   10 1
  18    9   11 1
  19   10   14 2
  20   11   12 1
  21   11   13 2
  22   12   31 1
  23   15   16 1
  24   15   32 1
  25   15   33 1
  26   16   17 ar
  27   16   21 ar
  28   17   18 ar
  29   17   34 1
  30   18   19 ar
  31   18   35 1
  32   19   20 ar
  33   19   22 ar
  34   20   21 ar
  35   20   25 ar
  36   21   36 1
  37   22   23 ar
  38   22   37 1
  39   23   24 ar
  40   24   25 ar
  41   24   38 1
  42   25   39 1

#	End of record

