#	Name: ASD05730060
#	Creating user name:	WinNT
#	Creation time:	15. 06. 2019 21:02

#	Modifying user name:	WinNT
#	Modification time:	15. 06. 2019 21:02

#	Program:	/corina/corina34_cracker 3.40 0067  02.08.2006

@<TRIPOS>MOLECULE
ASD05730060
  77   81    0    0    0
SMALL
NO_CHARGES


@<TRIPOS>ATOM
   1 N1            -0.0121     1.3947     0.0611 N.pl3   
   2 C2             0.0057    -0.0044     0.0405 C.ar    
   3 C3            -1.0323    -0.7033    -0.5619 C.ar    
   4 C4            -1.0147    -2.0837    -0.5822 C.ar    
   5 C5             0.0409    -2.7733    -0.0002 C.ar    
   6 C6             1.0786    -2.0746     0.6026 C.ar    
   7 C7             1.0642    -0.6940     0.6175 C.ar    
   8 N8             0.0586    -4.1737    -0.0208 N.pl3   
   9 C9             1.2581    -4.8473    -0.1400 C.ar    
  10 N10            1.2601    -6.1682    -0.0441 N.ar    
  11 C11            2.3939    -6.8514    -0.1539 C.ar    
  12 C12            3.5942    -6.1410    -0.3746 C.ar    
  13 C13            3.5390    -4.7419    -0.4687 C.ar    
  14 N14            2.3670    -4.1467    -0.3522 N.ar    
  15 N15            2.4033    -8.2195    -0.0550 N.am    
  16 C16            3.5532    -8.9115    -0.1655 C.2     
  17 C17            4.8188    -8.2110    -0.3947 C.2     
  18 C18            4.8190    -6.8346    -0.4969 C.2     
  19 C19            1.1466    -8.9367     0.1742 C.3     
  20 O20            3.5407   -10.1261    -0.0740 O.2     
  21 C21            6.0836    -8.9708    -0.5160 C.ar    
  22 C22            0.5088    -9.2907    -1.1708 C.3     
  23 N23            6.0689   -10.2946    -0.4161 N.ar    
  24 C24            1.0829     2.1319     0.6965 C.3     
  25 C25            1.1820     3.5310     0.0824 C.3     
  26 C26            2.2870     4.3170     0.7917 C.3     
  27 N27            1.9792     4.4125     2.2243 N.3     
  28 C28            1.9258     3.0830     2.8457 C.3     
  29 C29            0.8099     2.2601     2.1977 C.3     
  30 C30            7.2808    -8.2906    -0.7399 C.ar    
  31 C31            8.4542    -9.0145    -0.8509 C.ar    
  32 C32            8.3941   -10.3968    -0.7344 C.ar    
  33 C33            7.1728   -11.0070    -0.5183 C.ar    
  34 S34            9.8602   -11.3649    -0.8687 S.o2    
  35 C35           10.4848   -11.4784     0.8306 C.3     
  36 C36           11.7719   -12.3054     0.8467 C.3     
  37 N37           12.2778   -12.3973     2.2228 N.3     
  38 C38           11.3577   -13.1660     3.0716 C.3     
  39 C39           13.6274   -12.9766     2.2499 C.3     
  40 O40            9.4028   -12.6332    -1.3175 O.2     
  41 O41           10.7298   -10.5749    -1.6679 O.2     
  42 H42           -0.7474     1.8765    -0.3489 H       
  43 H43           -1.8534    -0.1670    -1.0142 H       
  44 H44           -1.8221    -2.6272    -1.0503 H       
  45 H45            1.8991    -2.6109     1.0558 H       
  46 H46            1.8714    -0.1506     1.0859 H       
  47 H47           -0.7717    -4.6704     0.0487 H       
  48 H48            4.4363    -4.1647    -0.6367 H       
  49 H49            5.7402    -6.2967    -0.6658 H       
  50 H50            1.3466    -9.8508     0.7332 H       
  51 H51            0.4658    -8.3041     0.7438 H       
  52 H52            0.3087    -8.3766    -1.7298 H       
  53 H53            1.1895    -9.9233    -1.7404 H       
  54 H54           -0.4262    -9.8243    -1.0002 H       
  55 H55            2.0203     1.5982     0.5401 H       
  56 H56            1.4186     3.4469    -0.9783 H       
  57 H57            0.2311     4.0498     0.2037 H       
  58 H58            3.2399     3.8049     0.6582 H       
  59 H59            2.3505     5.3186     0.3663 H       
  60 H60            2.6431     5.0066     2.6980 H       
  61 H61            2.8804     2.5767     2.7026 H       
  62 H62            1.7269     3.1883     3.9122 H       
  63 H63           -0.1468     2.7590     2.3523 H       
  64 H64            0.7808     1.2681     2.6484 H       
  65 H65            7.2913    -7.2141    -0.8257 H       
  66 H66            9.3962    -8.5157    -1.0246 H       
  67 H67            7.1233   -12.0820    -0.4270 H       
  68 H68           10.6914   -10.4774     1.2093 H       
  69 H69            9.7366   -11.9583     1.4615 H       
  70 H70           11.5653   -13.3064     0.4679 H       
  71 H71           12.5201   -11.8255     0.2158 H       
  72 H72           11.2500   -14.1739     2.6709 H       
  73 H73           11.7563   -13.2186     4.0848 H       
  74 H74           10.3843   -12.6760     3.0891 H       
  75 H75           14.3040   -12.3489     1.6700 H       
  76 H76           13.9779   -13.0332     3.2805 H       
  77 H77           13.6019   -13.9777     1.8194 H       
@<TRIPOS>BOND
   1    1    2 1
   2    1   24 1
   3    1   42 1
   4    2    3 ar
   5    2    7 ar
   6    3    4 ar
   7    3   43 1
   8    4    5 ar
   9    4   44 1
  10    5    6 ar
  11    5    8 1
  12    6    7 ar
  13    6   45 1
  14    7   46 1
  15    8    9 1
  16    8   47 1
  17    9   10 ar
  18    9   14 ar
  19   10   11 ar
  20   11   12 ar
  21   11   15 1
  22   12   13 ar
  23   12   18 1
  24   13   14 ar
  25   13   48 1
  26   15   16 am
  27   15   19 1
  28   16   17 1
  29   16   20 2
  30   17   18 2
  31   17   21 1
  32   18   49 1
  33   19   22 1
  34   19   50 1
  35   19   51 1
  36   21   23 ar
  37   21   30 ar
  38   22   52 1
  39   22   53 1
  40   22   54 1
  41   23   33 ar
  42   24   25 1
  43   24   29 1
  44   24   55 1
  45   25   26 1
  46   25   56 1
  47   25   57 1
  48   26   27 1
  49   26   58 1
  50   26   59 1
  51   27   28 1
  52   27   60 1
  53   28   29 1
  54   28   61 1
  55   28   62 1
  56   29   63 1
  57   29   64 1
  58   30   31 ar
  59   30   65 1
  60   31   32 ar
  61   31   66 1
  62   32   33 ar
  63   32   34 1
  64   33   67 1
  65   34   35 1
  66   34   40 2
  67   34   41 2
  68   35   36 1
  69   35   68 1
  70   35   69 1
  71   36   37 1
  72   36   70 1
  73   36   71 1
  74   37   38 1
  75   37   39 1
  76   38   72 1
  77   38   73 1
  78   38   74 1
  79   39   75 1
  80   39   76 1
  81   39   77 1

#	End of record

