#	Name: ASD04591120
#	Creating user name:	WinNT
#	Creation time:	15. 06. 2019 20:52

#	Modifying user name:	WinNT
#	Modification time:	15. 06. 2019 20:52

#	Program:	/corina/corina34_cracker 3.40 0067  02.08.2006

@<TRIPOS>MOLECULE
ASD04591120
  60   65    0    0    0
SMALL
NO_CHARGES


@<TRIPOS>ATOM
   1 N1            -0.0351     1.2112    -0.3186 N.ar    
   2 C2             0.0436    -0.1120    -0.3778 C.ar    
   3 N3             1.1994    -0.7545    -0.3320 N.ar    
   4 C4             2.3426    -0.0843    -0.2235 C.ar    
   5 C5             2.2929     1.3228    -0.1587 C.ar    
   6 C6             1.0541     1.9541    -0.2102 C.ar    
   7 N7             3.6568    -0.4754    -0.1549 N.pl3   
   8 C8             4.4849     0.6284    -0.0464 C.ar    
   9 C9             3.6825     1.7834    -0.0439 C.ar    
  10 C10            5.8621     0.7788     0.0525 C.ar    
  11 N11            6.4003     1.9776     0.1463 N.ar    
  12 C12            5.6749     3.0821     0.1515 C.ar    
  13 C13            4.3004     3.0292     0.0578 C.ar    
  14 N14           -1.1253    -0.8465    -0.4911 N.pl3   
  15 C15           -2.3615    -0.2032    -0.4333 C.ar    
  16 C16            4.1179    -1.8655    -0.1910 C.3     
  17 C17            3.6662    -2.6039     1.0812 C.3     
  18 C18            2.7635    -3.7664     0.6191 C.3     
  19 C19            3.2038    -4.0316    -0.8420 C.3     
  20 C20            3.4738    -2.6051    -1.3818 C.3     
  21 N21           -2.4094     1.1180    -0.3786 N.ar    
  22 C22           -3.5561     1.7686    -0.3227 C.ar    
  23 C23           -4.7611     1.0825    -0.3192 C.ar    
  24 C24           -4.7503    -0.3104    -0.3759 C.ar    
  25 C25           -3.5298    -0.9575    -0.4396 C.ar    
  26 N26           -5.9735     1.7798    -0.2589 N.3     
  27 C27           -5.7446     3.2305    -0.2056 C.3     
  28 C28           -7.0912     3.9577    -0.2209 C.3     
  29 N29           -7.8985     3.5125     0.9235 N.3     
  30 C30           -8.1274     2.0618     0.8702 C.3     
  31 C31           -6.7808     1.3346     0.8856 C.3     
  32 C32            6.7484    -0.4400     0.0531 C.3     
  33 H33            0.9831     3.0307    -0.1632 H       
  34 H34            6.1661     4.0406     0.2309 H       
  35 H35            3.7134     3.9358     0.0623 H       
  36 H36           -1.0841    -1.8082    -0.6107 H       
  37 H37            5.2042    -1.8963    -0.2748 H       
  38 H38            4.5333    -2.9937     1.6145 H       
  39 H39            3.1040    -1.9279     1.7255 H       
  40 H40            2.9335    -4.6494     1.2351 H       
  41 H41            1.7146    -3.4719     0.6540 H       
  42 H42            4.1125    -4.6330    -0.8684 H       
  43 H43            2.4042    -4.5128    -1.4051 H       
  44 H44            2.5397    -2.1232    -1.6701 H       
  45 H45            4.1623    -2.6408    -2.2262 H       
  46 H46           -3.5560     2.8477    -0.2790 H       
  47 H47           -5.6735    -0.8709    -0.3746 H       
  48 H48           -3.4842    -2.0356    -0.4851 H       
  49 H49           -5.2067     3.4804     0.7089 H       
  50 H50           -5.1555     3.5377    -1.0698 H       
  51 H51           -6.9247     5.0327    -0.1523 H       
  52 H52           -7.6173     3.7293    -1.1479 H       
  53 H53           -7.4669     3.7786     1.7958 H       
  54 H54           -8.7165     1.7547     1.7344 H       
  55 H55           -8.6653     1.8119    -0.0443 H       
  56 H56           -6.9473     0.2596     0.8169 H       
  57 H57           -6.2547     1.5630     1.8125 H       
  58 H58            6.9197    -0.7651    -0.9731 H       
  59 H59            7.7022    -0.1954     0.5207 H       
  60 H60            6.2645    -1.2409     0.6120 H       
@<TRIPOS>BOND
   1    1    2 ar
   2    1    6 ar
   3    2    3 ar
   4    2   14 1
   5    3    4 ar
   6    4    5 ar
   7    4    7 1
   8    5    6 ar
   9    5    9 1
  10    6   33 1
  11    7    8 1
  12    7   16 1
  13    8    9 ar
  14    8   10 ar
  15    9   13 ar
  16   10   11 ar
  17   10   32 1
  18   11   12 ar
  19   12   13 ar
  20   12   34 1
  21   13   35 1
  22   14   15 1
  23   14   36 1
  24   15   21 ar
  25   15   25 ar
  26   16   17 1
  27   16   20 1
  28   16   37 1
  29   17   18 1
  30   17   38 1
  31   17   39 1
  32   18   19 1
  33   18   40 1
  34   18   41 1
  35   19   20 1
  36   19   42 1
  37   19   43 1
  38   20   44 1
  39   20   45 1
  40   21   22 ar
  41   22   23 ar
  42   22   46 1
  43   23   24 ar
  44   23   26 1
  45   24   25 ar
  46   24   47 1
  47   25   48 1
  48   26   27 1
  49   26   31 1
  50   27   28 1
  51   27   49 1
  52   27   50 1
  53   28   29 1
  54   28   51 1
  55   28   52 1
  56   29   30 1
  57   29   53 1
  58   30   31 1
  59   30   54 1
  60   30   55 1
  61   31   56 1
  62   31   57 1
  63   32   58 1
  64   32   59 1
  65   32   60 1

#	End of record

