#	Name: ASD06590065
#	Creating user name:	WinNT
#	Creation time:	15. 06. 2019 21:06

#	Modifying user name:	WinNT
#	Modification time:	15. 06. 2019 21:06

#	Program:	/corina/corina34_cracker 3.40 0067  02.08.2006

@<TRIPOS>MOLECULE
ASD06590065
 336  340    0    0    0
SMALL
NO_CHARGES


@<TRIPOS>ATOM
   1 C1             0.7112    -0.2004    -9.4856 C.2     
   2 O2             0.6489    -1.4074    -9.5865 O.2     
   3 N3             2.9673    -0.4444   -10.3454 N.am    
   4 C4             1.9728     0.5244    -9.8780 C.3     
   5 C5             1.6624     1.5180   -10.9993 C.3     
   6 O6             1.0389     0.8305   -12.0858 O.3     
   7 C7            -2.7515     0.7277    -8.7704 C.2     
   8 O8            -2.5784     1.8721    -9.1330 O.2     
   9 N9            -0.3499     0.4932    -9.0278 N.am    
  10 C10           -1.5784    -0.2109    -8.6521 C.3     
  11 C11           -1.4628    -0.7032    -7.2081 C.3     
  12 C12           -0.3679    -1.7345    -7.1151 C.2     
  13 C13           -0.5182    -3.0667    -7.1818 C.2     
  14 N14            0.6987    -3.6803    -7.0594 N.pl3   
  15 C15            1.6870    -2.7336    -6.9071 C.ar    
  16 C16            3.0666    -2.8069    -6.7463 C.ar    
  17 C17            3.8028    -1.6494    -6.6170 C.ar    
  18 C18            3.1818    -0.4085    -6.6455 C.ar    
  19 C19            1.8275    -0.3135    -6.8020 C.ar    
  20 C20            1.0629    -1.4730    -6.9412 C.ar    
  21 C21           -6.2377     0.7499    -7.6710 C.2     
  22 O22           -6.0870    -0.2411    -6.9882 O.2     
  23 N23           -3.9930     0.2954    -8.4734 N.am    
  24 C24           -5.1334     1.2078    -8.5885 C.3     
  25 C25           -5.6391     1.2126   -10.0325 C.3     
  26 O26           -6.1540    -0.0793   -10.3611 O.3     
  27 C27           -9.7903     1.4941    -7.2372 C.2     
  28 O28           -9.8330     2.1557    -8.2528 O.2     
  29 N29           -7.3928     1.4415    -7.6092 N.am    
  30 C30           -8.4664     0.9963    -6.7173 C.3     
  31 C31           -8.2273     1.5548    -5.3130 C.3     
  32 C32           -6.9452     0.9517    -4.7358 C.3     
  33 C33           -6.7061     1.5102    -3.3315 C.3     
  34 N34           -5.4785     0.9327    -2.7788 N.pl3   
  35 C35           -5.0578     1.2886    -1.5192 C.2     
  36 N36           -3.9656     0.7748    -1.0274 N.2     
  37 N37           -5.7893     2.1865    -0.7784 N.pl3   
  38 C38          -13.1949     1.7903    -5.9395 C.2     
  39 O39          -12.8526     1.4886    -4.8158 O.2     
  40 N40          -10.9270     1.2042    -6.5736 N.am    
  41 C41          -12.2141     1.6882    -7.0790 C.3     
  42 C42          -12.7502     0.7113    -8.1274 C.3     
  43 C43          -11.8310     0.7017    -9.3216 C.2     
  44 C44          -11.9709     1.4266   -10.4427 C.2     
  45 N45          -10.9441     1.1547   -11.3053 N.pl3   
  46 C46          -10.0968     0.2245   -10.7461 C.ar    
  47 C47           -8.9267    -0.3887   -11.1812 C.ar    
  48 C48           -8.2909    -1.3032   -10.3699 C.ar    
  49 C49           -8.8063    -1.6199    -9.1208 C.ar    
  50 C50           -9.9549    -1.0297    -8.6737 C.ar    
  51 C51          -10.6120    -0.0958    -9.4765 C.ar    
  52 C52          -16.8107     2.2046    -5.5960 C.2     
  53 O53          -16.9968     2.0566    -6.7853 O.2     
  54 N54          -14.4526     2.2170    -6.1691 N.am    
  55 C55          -15.4061     2.3163    -5.0614 C.3     
  56 C56          -15.2335     3.6647    -4.3592 C.3     
  57 C57          -13.7756     3.8311    -3.9259 C.3     
  58 O58          -15.5867     4.7183    -5.2576 O.3     
  59 C59          -20.1315     3.0069    -4.3227 C.2     
  60 O60          -19.8312     3.0913    -3.1507 O.2     
  61 N61          -17.8599     2.2692    -4.7526 N.am    
  62 C62          -19.2259     2.2786    -5.2821 C.3     
  63 C63          -19.7163     0.8395    -5.4536 C.3     
  64 C64          -21.0730     0.8439    -6.1608 C.3     
  65 C65          -20.9059     1.3866    -7.5815 C.3     
  66 C66          -21.6213    -0.5832    -6.2212 C.3     
  67 C67          -23.5945     4.1751    -4.3973 C.2     
  68 O68          -23.7922     3.6931    -5.4925 O.2     
  69 N69          -21.2751     3.5646    -4.7671 N.am    
  70 C70          -22.2027     4.1877    -3.8197 C.3     
  71 C71          -21.7717     5.6324    -3.5592 C.3     
  72 C72          -26.7805     5.8027    -3.6466 C.2     
  73 O73          -26.2757     6.5357    -2.8227 O.2     
  74 N74          -24.6196     4.6995    -3.6968 N.am    
  75 C75          -25.9727     4.6872    -4.2583 C.3     
  76 C76          -26.6406     3.3456    -3.9503 C.3     
  77 C77          -25.8917     2.2250    -4.6744 C.3     
  78 C78          -26.4812     0.8726    -4.2686 C.3     
  79 C79          -26.0342     2.4104    -6.1864 C.3     
  80 C80          -29.6215     6.7065    -2.2994 C.2     
  81 O81          -29.5703     5.5587    -1.9111 O.2     
  82 N82          -28.0639     5.9857    -4.0151 N.am    
  83 C83          -28.8174     7.1321    -3.5008 C.3     
  84 C84          -29.7604     7.6517    -4.5877 C.3     
  85 C85          -28.9513     8.1951    -5.7371 C.2     
  86 O86          -27.7481     8.2632    -5.6500 O.2     
  87 O87          -29.5672     8.6035    -6.8576 O.3     
  88 C88          -32.3673     8.1013    -0.3301 C.2     
  89 O89          -32.5435     9.0087    -1.1153 O.2     
  90 N90          -30.3976     7.6014    -1.6566 N.am    
  91 C91          -31.1793     7.1877    -0.4887 C.3     
  92 C92          -30.3048     7.2661     0.7643 C.3     
  93 C93          -29.1848     6.2634     0.6587 C.ar    
  94 C94          -27.9837     6.6272     0.0789 C.ar    
  95 C95          -26.9564     5.7074    -0.0180 C.ar    
  96 C96          -27.1299     4.4239     0.4652 C.ar    
  97 C97          -28.3306     4.0604     1.0458 C.ar    
  98 C98          -29.3564     4.9815     1.1466 C.ar    
  99 C99          -34.8278     8.8055     2.2801 C.2     
 100 O100         -34.2346     8.1349     3.0981 O.2     
 101 N101         -33.2338     7.9101     0.6843 N.am    
 102 C102         -34.3886     8.7982     0.8385 C.3     
 103 C103         -35.5365     8.2998    -0.0418 C.3     
 104 C104         -35.1349     8.4099    -1.5141 C.3     
 105 C105         -36.2827     7.9115    -2.3944 C.3     
 106 C106         -35.8812     8.0215    -3.8667 C.3     
 107 N107         -36.9833     7.5430    -4.7119 N.3     
 108 C108         -37.7661     9.9319     4.1403 C.2     
 109 O109         -38.3883    10.1650     3.1257 O.2     
 110 N110         -35.8798     9.5573     2.6602 N.am    
 111 C111         -36.3068     9.5644     4.0616 C.3     
 112 C112         -35.4801    10.5888     4.8415 C.3     
 113 C113         -34.0150    10.1488     4.8669 C.3     
 114 C114         -33.1883    11.1732     5.6467 C.3     
 115 N115         -31.7854    10.7519     5.6711 N.pl3   
 116 C116         -30.8479    11.5208     6.3192 C.2     
 117 N117         -31.2073    12.6246     6.9120 N.2     
 118 N118         -29.5314    11.1254     6.3421 N.pl3   
 119 C119         -40.0938    10.9573     6.7659 C.2     
 120 O120         -39.2065    11.0738     7.5844 O.2     
 121 N121         -38.3799    10.0016     5.3382 N.am    
 122 C122         -39.7986    10.3589     5.4147 C.3     
 123 C123         -40.6519     9.1048     5.2148 C.3     
 124 C124         -40.4455     8.5681     3.7970 C.3     
 125 C125         -41.2988     7.3139     3.5972 C.3     
 126 C126         -41.0924     6.7772     2.1794 C.3     
 127 N127         -41.9116     5.5731     1.9875 N.3     
 128 C128         -43.0887    11.7499     8.7063 C.2     
 129 O129         -43.8164    11.1812     7.9202 O.2     
 130 N130         -41.3438    11.3629     7.0647 N.am    
 131 C131         -41.6308    11.9446     8.3783 C.3     
 132 C132         -41.3086    13.4401     8.3553 C.3     
 133 C133         -45.8075    13.1340     9.5784 C.2     
 134 O134         -45.2549    13.9985     8.9403 O.2     
 135 N135         -43.5839    12.2077     9.8732 N.am    
 136 C136         -45.0012    12.0184    10.1920 C.3     
 137 C137         -45.1883    12.0295    11.7105 C.3     
 138 C138         -44.4715    10.8238    12.3215 C.3     
 139 C139         -44.6585    10.8349    13.8399 C.3     
 140 N140         -43.9721     9.6804    14.4250 N.pl3   
 141 C141         -44.0017     9.4795    15.7847 C.2     
 142 N142         -44.6404    10.3163    16.5534 N.2     
 143 N143         -43.3575     8.3961    16.3337 N.pl3   
 144 O144         -47.1395    13.1673     9.7408 O.3     
 145 C145           4.2806    -0.1503   -10.2728 C.2     
 146 O146           4.6391     0.9164    -9.8204 O.2     
 147 C147          22.4015    -4.1911   -12.8211 C.3     
 148 C148          21.3629    -3.1793   -12.3329 C.3     
 149 C149          19.9590    -3.7562   -12.5257 C.3     
 150 C150          18.9203    -2.7444   -12.0375 C.3     
 151 C151          17.5164    -3.3213   -12.2304 C.3     
 152 C152          16.4778    -2.3095   -11.7422 C.3     
 153 C153          15.0739    -2.8864   -11.9350 C.3     
 154 C154          14.0352    -1.8746   -11.4468 C.3     
 155 C155          12.6313    -2.4515   -11.6397 C.3     
 156 C156          11.5927    -1.4397   -11.1515 C.3     
 157 C157          10.1888    -2.0167   -11.3443 C.3     
 158 C158           9.1501    -1.0049   -10.8561 C.3     
 159 C159           7.7462    -1.5818   -11.0490 C.3     
 160 C160           6.7076    -0.5700   -10.5608 C.3     
 161 C161           5.3037    -1.1469   -10.7536 C.3     
 162 H162           2.6807    -1.2975   -10.7072 H       
 163 H163           2.3665     1.0617    -9.0152 H       
 164 H164           0.9907     2.2904   -10.6247 H       
 165 H165           2.5886     1.9779   -11.3439 H       
 166 H166           0.8135     1.4001   -12.8341 H       
 167 H167          -0.3001     1.4586    -8.9471 H       
 168 H168          -1.7264    -1.0628    -9.3157 H       
 169 H169          -1.2266     0.1373    -6.5555 H       
 170 H170          -2.4086    -1.1484    -6.8992 H       
 171 H171          -1.4602    -3.5786    -7.3123 H       
 172 H172           0.8437    -4.6392    -7.0773 H       
 173 H173           3.5590    -3.7678    -6.7225 H       
 174 H174           4.8739    -1.7084    -6.4918 H       
 175 H175           3.7735     0.4891    -6.5427 H       
 176 H176           1.3511     0.6556    -6.8229 H       
 177 H177          -4.1315    -0.6198    -8.1835 H       
 178 H178          -4.8229     2.2146    -8.3090 H       
 179 H179          -6.4290     1.9562   -10.1384 H       
 180 H180          -4.8168     1.4577   -10.7046 H       
 181 H181          -6.4928    -0.1497   -11.2641 H       
 182 H182          -7.5134     2.2341    -8.1553 H       
 183 H183          -8.4778    -0.0929    -6.6780 H       
 184 H184          -8.1273     2.6390    -5.3654 H       
 185 H185          -9.0704     1.2983    -4.6716 H       
 186 H186          -7.0452    -0.1325    -4.6834 H       
 187 H187          -6.1021     1.2082    -5.3772 H       
 188 H188          -6.6061     2.5943    -3.3839 H       
 189 H189          -7.5492     1.2536    -2.6901 H       
 190 H190          -4.9624     0.2991    -3.3015 H       
 191 H191          -3.6688     1.0259    -0.1387 H       
 192 H192          -6.6022     2.5689    -1.1444 H       
 193 H193          -5.4925     2.4377     0.1103 H       
 194 H194         -10.8929     0.6751    -5.7613 H       
 195 H195         -12.0803     2.6703    -7.5324 H       
 196 H196         -12.8001    -0.2899    -7.6993 H       
 197 H197         -13.7471     1.0234    -8.4387 H       
 198 H198         -12.7751     2.1212   -10.6355 H       
 199 H199         -10.8301     1.5573   -12.1804 H       
 200 H200          -8.5180    -0.1491   -12.1517 H       
 201 H201          -7.3826    -1.7785   -10.7097 H       
 202 H202          -8.2956    -2.3389    -8.4973 H       
 203 H203         -10.3503    -1.2815    -7.7007 H       
 204 H204         -14.7264     2.4584    -7.0679 H       
 205 H205         -15.2227     1.5104    -4.3507 H       
 206 H206         -15.8797     3.7030    -3.4822 H       
 207 H207         -13.1293     3.7927    -4.8029 H       
 208 H208         -13.6526     4.7916    -3.4257 H       
 209 H209         -13.5062     3.0274    -3.2407 H       
 210 H210         -15.0511     4.7451    -6.0623 H       
 211 H211         -17.7107     2.3094    -3.7950 H       
 212 H212         -19.2377     2.7840    -6.2477 H       
 213 H213         -18.9970     0.2793    -6.0510 H       
 214 H214         -19.8184     0.3713    -4.4746 H       
 215 H215         -21.7681     1.4772    -5.6094 H       
 216 H216         -21.8807     1.4431    -8.0659 H       
 217 H217         -20.4623     2.3814    -7.5406 H       
 218 H218         -20.2555     0.7219    -8.1501 H       
 219 H219         -21.7404    -0.9698    -5.2090 H       
 220 H220         -22.5879    -0.5800    -6.7250 H       
 221 H221         -20.9263    -1.2164    -6.7725 H       
 222 H222         -21.4841     3.5534    -5.7143 H       
 223 H223         -22.1932     3.6311    -2.8825 H       
 224 H224         -22.4618     6.0960    -2.8543 H       
 225 H225         -20.7649     5.6415    -3.1414 H       
 226 H226         -21.7811     6.1890    -4.4963 H       
 227 H227         -24.4615     5.0849    -2.8208 H       
 228 H228         -25.9193     4.8271    -5.3380 H       
 229 H229         -26.6144     3.1649    -2.8757 H       
 230 H230         -27.6762     3.3689    -4.2897 H       
 231 H231         -24.8368     2.2580    -4.4021 H       
 232 H232         -27.5361     0.8397    -4.5409 H       
 233 H233         -25.9477     0.0743    -4.7845 H       
 234 H234         -26.3796     0.7405    -3.1914 H       
 235 H235         -25.5007     1.6120    -6.7023 H       
 236 H236         -27.0892     2.3774    -6.4587 H       
 237 H237         -25.6143     3.3738    -6.4755 H       
 238 H238         -28.4888     5.3585    -4.6209 H       
 239 H239         -28.1244     7.9226    -3.2127 H       
 240 H240         -30.3917     6.8364    -4.9412 H       
 241 H241         -30.3863     8.4441    -4.1773 H       
 242 H242         -29.0062     8.9444    -7.5676 H       
 243 H243         -30.4385     8.5194    -1.9671 H       
 244 H244         -31.5248     6.1632    -0.6271 H       
 245 H245         -29.8873     8.2690     0.8538 H       
 246 H246         -30.9093     7.0444     1.6438 H       
 247 H247         -27.8482     7.6299    -0.2987 H       
 248 H248         -26.0183     5.9914    -0.4716 H       
 249 H249         -26.3275     3.7051     0.3889 H       
 250 H250         -28.4663     3.0576     1.4230 H       
 251 H251         -30.2932     4.6986     1.6035 H       
 252 H252         -33.0928     7.1844     1.3123 H       
 253 H253         -34.1125     9.8088     0.5377 H       
 254 H254         -35.7534     7.2591     0.1988 H       
 255 H255         -36.4233     8.9071     0.1393 H       
 256 H256         -34.9180     9.4506    -1.7547 H       
 257 H257         -34.2480     7.8026    -1.6952 H       
 258 H258         -36.4997     6.8707    -2.1538 H       
 259 H259         -37.1696     8.5187    -2.2133 H       
 260 H260         -35.6642     9.0623    -4.1073 H       
 261 H261         -34.9943     7.4143    -4.0477 H       
 262 H262         -36.7424     7.6055    -5.6897 H       
 263 H263         -37.2464     6.6010    -4.4639 H       
 264 H264         -36.3543    10.0937     2.0060 H       
 265 H265         -36.1578     8.5740     4.4918 H       
 266 H266         -35.5587    11.5627     4.3583 H       
 267 H267         -35.8564    10.6582     5.8621 H       
 268 H268         -33.9364     9.1749     5.3501 H       
 269 H269         -33.6386    10.0794     3.8463 H       
 270 H270         -33.2668    12.1471     5.1635 H       
 271 H271         -33.5646    11.2426     6.6674 H       
 272 H272         -31.5180     9.9304     5.2300 H       
 273 H273         -30.5458    13.1671     7.3692 H       
 274 H274         -29.2639    10.3040     5.9010 H       
 275 H275         -28.8699    11.6679     6.7994 H       
 276 H276         -37.8823     9.8152     6.1497 H       
 277 H277         -40.0328    11.0854     4.6366 H       
 278 H278         -40.3555     8.3447     5.9378 H       
 279 H279         -41.7031     9.3537     5.3597 H       
 280 H280         -40.7418     9.3281     3.0741 H       
 281 H281         -39.3942     8.3192     3.6522 H       
 282 H282         -41.0024     6.5539     4.3201 H       
 283 H283         -42.3500     7.5628     3.7420 H       
 284 H284         -41.3887     7.5373     1.4564 H       
 285 H285         -40.0411     6.5283     2.0345 H       
 286 H286         -41.7928     5.1992     1.0579 H       
 287 H287         -41.7007     4.8770     2.6869 H       
 288 H288         -42.0535    11.2697     6.4101 H       
 289 H289         -41.0194    11.4528     9.1349 H       
 290 H290         -41.9200    13.9319     7.5987 H       
 291 H291         -41.5221    13.8729     9.3326 H       
 292 H292         -40.2540    13.5810     8.1181 H       
 293 H293         -43.0019    12.6625    10.5019 H       
 294 H294         -45.3393    11.0628     9.7912 H       
 295 H295         -44.7693    12.9480    12.1215 H       
 296 H296         -46.2513    11.9779    11.9460 H       
 297 H297         -44.8905     9.9053    11.9105 H       
 298 H298         -43.4085    10.8754    12.0859 H       
 299 H299         -44.2395    11.7533    14.2510 H       
 300 H300         -45.7215    10.7833    14.0755 H       
 301 H301         -43.4968     9.0577    13.8529 H       
 302 H302         -44.6612    10.1746    17.5127 H       
 303 H303         -42.8822     7.7734    15.7617 H       
 304 H304         -43.3784     8.2544    17.2931 H       
 305 H305         -47.6138    13.9023     9.3287 H       
 306 H306          23.4017    -3.7801   -12.6837 H       
 307 H307          22.3063    -5.1141   -12.2492 H       
 308 H308          22.2365    -4.3998   -13.8781 H       
 309 H309          21.5278    -2.9705   -11.2759 H       
 310 H310          21.4580    -2.2562   -12.9048 H       
 311 H311          19.7940    -3.9650   -13.5828 H       
 312 H312          19.8638    -4.6792   -11.9539 H       
 313 H313          19.0853    -2.5356   -10.9805 H       
 314 H314          19.0155    -1.8213   -12.6094 H       
 315 H315          17.3514    -3.5301   -13.2874 H       
 316 H316          17.4212    -4.2444   -11.6585 H       
 317 H317          16.6427    -2.1007   -10.6852 H       
 318 H318          16.5730    -1.3864   -12.3140 H       
 319 H319          14.9089    -3.0952   -12.9920 H       
 320 H320          14.9787    -3.8095   -11.3632 H       
 321 H321          14.2002    -1.6658   -10.3898 H       
 322 H322          14.1304    -0.9516   -12.0187 H       
 323 H323          12.4663    -2.6603   -12.6967 H       
 324 H324          12.5361    -3.3746   -11.0678 H       
 325 H325          11.7576    -1.2310   -10.0945 H       
 326 H326          11.6879    -0.5167   -11.7233 H       
 327 H327          10.0238    -2.2254   -12.4013 H       
 328 H328          10.0936    -2.9397   -10.7725 H       
 329 H329           9.3151    -0.7961    -9.7991 H       
 330 H330           9.2453    -0.0818   -11.4280 H       
 331 H331           7.5812    -1.7906   -12.1060 H       
 332 H332           7.6510    -2.5048   -10.4771 H       
 333 H333           6.8726    -0.3612    -9.5037 H       
 334 H334           6.8028     0.3531   -11.1326 H       
 335 H335           5.2085    -2.0699   -10.1818 H       
 336 H336           5.1387    -1.3557   -11.8106 H       
@<TRIPOS>BOND
   1    1    2 2
   2    1    4 1
   3    1    9 am
   4    3  145 am
   5    3    4 1
   6    3  162 1
   7    4    5 1
   8    4  163 1
   9    5    6 1
  10    5  164 1
  11    5  165 1
  12    6  166 1
  13    7    8 2
  14    7   10 1
  15    7   23 am
  16    9   10 1
  17    9  167 1
  18   10   11 1
  19   10  168 1
  20   11   12 1
  21   11  169 1
  22   11  170 1
  23   12   13 2
  24   12   20 1
  25   13   14 1
  26   13  171 1
  27   14   15 1
  28   14  172 1
  29   15   16 ar
  30   15   20 ar
  31   16   17 ar
  32   16  173 1
  33   17   18 ar
  34   17  174 1
  35   18   19 ar
  36   18  175 1
  37   19   20 ar
  38   19  176 1
  39   21   22 2
  40   21   24 1
  41   21   29 am
  42   23   24 1
  43   23  177 1
  44   24   25 1
  45   24  178 1
  46   25   26 1
  47   25  179 1
  48   25  180 1
  49   26  181 1
  50   27   28 2
  51   27   30 1
  52   27   40 am
  53   29   30 1
  54   29  182 1
  55   30   31 1
  56   30  183 1
  57   31   32 1
  58   31  184 1
  59   31  185 1
  60   32   33 1
  61   32  186 1
  62   32  187 1
  63   33   34 1
  64   33  188 1
  65   33  189 1
  66   34   35 1
  67   34  190 1
  68   35   36 2
  69   35   37 1
  70   36  191 1
  71   37  192 1
  72   37  193 1
  73   38   39 2
  74   38   41 1
  75   38   54 am
  76   40   41 1
  77   40  194 1
  78   41   42 1
  79   41  195 1
  80   42   43 1
  81   42  196 1
  82   42  197 1
  83   43   44 2
  84   43   51 1
  85   44   45 1
  86   44  198 1
  87   45   46 1
  88   45  199 1
  89   46   47 ar
  90   46   51 ar
  91   47   48 ar
  92   47  200 1
  93   48   49 ar
  94   48  201 1
  95   49   50 ar
  96   49  202 1
  97   50   51 ar
  98   50  203 1
  99   52   53 2
 100   52   55 1
 101   52   61 am
 102   54   55 1
 103   54  204 1
 104   55   56 1
 105   55  205 1
 106   56   57 1
 107   56   58 1
 108   56  206 1
 109   57  207 1
 110   57  208 1
 111   57  209 1
 112   58  210 1
 113   59   60 2
 114   59   62 1
 115   59   69 am
 116   61   62 1
 117   61  211 1
 118   62   63 1
 119   62  212 1
 120   63   64 1
 121   63  213 1
 122   63  214 1
 123   64   65 1
 124   64   66 1
 125   64  215 1
 126   65  216 1
 127   65  217 1
 128   65  218 1
 129   66  219 1
 130   66  220 1
 131   66  221 1
 132   67   68 2
 133   67   70 1
 134   67   74 am
 135   69   70 1
 136   69  222 1
 137   70   71 1
 138   70  223 1
 139   71  224 1
 140   71  225 1
 141   71  226 1
 142   72   73 2
 143   72   75 1
 144   72   82 am
 145   74   75 1
 146   74  227 1
 147   75   76 1
 148   75  228 1
 149   76   77 1
 150   76  229 1
 151   76  230 1
 152   77   78 1
 153   77   79 1
 154   77  231 1
 155   78  232 1
 156   78  233 1
 157   78  234 1
 158   79  235 1
 159   79  236 1
 160   79  237 1
 161   80   81 2
 162   80   83 1
 163   80   90 am
 164   82   83 1
 165   82  238 1
 166   83   84 1
 167   83  239 1
 168   84   85 1
 169   84  240 1
 170   84  241 1
 171   85   86 2
 172   85   87 1
 173   87  242 1
 174   88   89 2
 175   88   91 1
 176   88  101 am
 177   90   91 1
 178   90  243 1
 179   91   92 1
 180   91  244 1
 181   92   93 1
 182   92  245 1
 183   92  246 1
 184   93   94 ar
 185   93   98 ar
 186   94   95 ar
 187   94  247 1
 188   95   96 ar
 189   95  248 1
 190   96   97 ar
 191   96  249 1
 192   97   98 ar
 193   97  250 1
 194   98  251 1
 195   99  100 2
 196   99  102 1
 197   99  110 am
 198  101  102 1
 199  101  252 1
 200  102  103 1
 201  102  253 1
 202  103  104 1
 203  103  254 1
 204  103  255 1
 205  104  105 1
 206  104  256 1
 207  104  257 1
 208  105  106 1
 209  105  258 1
 210  105  259 1
 211  106  107 1
 212  106  260 1
 213  106  261 1
 214  107  262 1
 215  107  263 1
 216  108  109 2
 217  108  111 1
 218  108  121 am
 219  110  111 1
 220  110  264 1
 221  111  112 1
 222  111  265 1
 223  112  113 1
 224  112  266 1
 225  112  267 1
 226  113  114 1
 227  113  268 1
 228  113  269 1
 229  114  115 1
 230  114  270 1
 231  114  271 1
 232  115  116 1
 233  115  272 1
 234  116  117 2
 235  116  118 1
 236  117  273 1
 237  118  274 1
 238  118  275 1
 239  119  120 2
 240  119  122 1
 241  119  130 am
 242  121  122 1
 243  121  276 1
 244  122  123 1
 245  122  277 1
 246  123  124 1
 247  123  278 1
 248  123  279 1
 249  124  125 1
 250  124  280 1
 251  124  281 1
 252  125  126 1
 253  125  282 1
 254  125  283 1
 255  126  127 1
 256  126  284 1
 257  126  285 1
 258  127  286 1
 259  127  287 1
 260  128  129 2
 261  128  131 1
 262  128  135 am
 263  130  131 1
 264  130  288 1
 265  131  132 1
 266  131  289 1
 267  132  290 1
 268  132  291 1
 269  132  292 1
 270  133  134 2
 271  133  136 1
 272  133  144 1
 273  135  136 1
 274  135  293 1
 275  136  137 1
 276  136  294 1
 277  137  138 1
 278  137  295 1
 279  137  296 1
 280  138  139 1
 281  138  297 1
 282  138  298 1
 283  139  140 1
 284  139  299 1
 285  139  300 1
 286  140  141 1
 287  140  301 1
 288  141  142 2
 289  141  143 1
 290  142  302 1
 291  143  303 1
 292  143  304 1
 293  144  305 1
 294  145  146 2
 295  145  161 1
 296  147  148 1
 297  147  306 1
 298  147  307 1
 299  147  308 1
 300  148  149 1
 301  148  309 1
 302  148  310 1
 303  149  150 1
 304  149  311 1
 305  149  312 1
 306  150  151 1
 307  150  313 1
 308  150  314 1
 309  151  152 1
 310  151  315 1
 311  151  316 1
 312  152  153 1
 313  152  317 1
 314  152  318 1
 315  153  154 1
 316  153  319 1
 317  153  320 1
 318  154  155 1
 319  154  321 1
 320  154  322 1
 321  155  156 1
 322  155  323 1
 323  155  324 1
 324  156  157 1
 325  156  325 1
 326  156  326 1
 327  157  158 1
 328  157  327 1
 329  157  328 1
 330  158  159 1
 331  158  329 1
 332  158  330 1
 333  159  160 1
 334  159  331 1
 335  159  332 1
 336  160  161 1
 337  160  333 1
 338  160  334 1
 339  161  335 1
 340  161  336 1

#	End of record

