#	Name: ASD01230131
#	Creating user name:	WinNT
#	Creation time:	15. 06. 2019 19:11

#	Modifying user name:	WinNT
#	Modification time:	15. 06. 2019 19:11

#	Program:	/corina/corina34_cracker 3.40 0067  02.08.2006

@<TRIPOS>MOLECULE
ASD01230131
  58   61    0    0    0
SMALL
NO_CHARGES


@<TRIPOS>ATOM
   1 P1             0.3580     1.4475    -5.0388 P.3     
   2 O2            -0.5945     0.6708    -5.8633 O.2     
   3 O3             1.3237     0.4373    -4.2394 O.3     
   4 O4             1.2440     2.3955    -5.9920 O.3     
   5 N5            -0.4944     2.3959    -3.9404 N.3     
   6 O6            -3.1677     2.3645    -1.9313 O.3     
   7 C7            -2.7298     1.8632    -3.0951 C.2     
   8 C8            -1.2505     1.5597    -2.9985 C.3     
   9 C9            -0.8692     1.9099    -1.5429 C.3     
  10 C10           -2.2516     1.9989    -0.8571 C.3     
  11 O11           -3.4140     1.6805    -4.0741 O.2     
  12 C12            0.6795    -0.6275    -3.6935 C.ar    
  13 C13            0.1521    -1.6151    -4.5126 C.ar    
  14 C14           -0.5024    -2.6965    -3.9552 C.ar    
  15 C15           -0.6320    -2.7950    -2.5822 C.ar    
  16 C16           -0.1077    -1.8117    -1.7637 C.ar    
  17 C17            0.5531    -0.7315    -2.3158 C.ar    
  18 C18            0.6743     3.2548    -6.9814 C.3     
  19 O19            2.6026     3.0957    -8.4720 O.3     
  20 C20            1.7909     4.0109    -7.7042 C.3     
  21 C21            1.1951     4.9811    -8.7483 C.3     
  22 C22            2.1868     4.9151    -9.9312 C.3     
  23 C23            3.2646     3.9128    -9.4619 C.3     
  24 C24            1.4865     4.3990   -11.1898 C.3     
  25 O25            1.1326     6.3077    -8.2207 O.3     
  26 F26            2.7527     6.1726   -10.1673 F       
  27 C27            4.7490     3.4983   -11.3442 C.2     
  28 N28            5.1810     2.7676   -12.3705 N.2     
  29 C29            4.6023     1.6122   -12.6705 C.2     
  30 C30            3.5183     1.1534   -11.8942 C.2     
  31 C31            3.0907     1.9076   -10.8540 C.2     
  32 N32            3.7169     3.0875   -10.5846 N.am    
  33 O33            5.3011     4.5548   -11.0855 O.2     
  34 N34            5.0568     0.8662   -13.7332 N.pl3   
  35 H35            0.1235     3.0249    -3.4499 H       
  36 H36           -1.0662     0.5035    -3.1953 H       
  37 H37           -0.2656     1.1186    -1.0985 H       
  38 H38           -0.3507     2.8676    -1.4971 H       
  39 H39           -2.2446     2.7679    -0.0847 H       
  40 H40           -2.5287     1.0341    -0.4324 H       
  41 H41            0.2528    -1.5385    -5.5852 H       
  42 H42           -0.9135    -3.4655    -4.5925 H       
  43 H43           -1.1441    -3.6412    -2.1483 H       
  44 H44           -0.2109    -1.8905    -0.6915 H       
  45 H45            0.9667     0.0338    -1.6758 H       
  46 H46            0.1141     2.6585    -7.7016 H       
  47 H47            0.0045     3.9681    -6.5011 H       
  48 H48            2.4068     4.5553    -6.9883 H       
  49 H49            0.2058     4.6461    -9.0601 H       
  50 H50            4.1064     4.4421    -9.0156 H       
  51 H51            0.6835     5.0828   -11.4651 H       
  52 H52            2.2060     4.3361   -12.0061 H       
  53 H53            1.0709     3.4103   -10.9948 H       
  54 H54            0.5704     6.3939    -7.4386 H       
  55 H55            3.0363     0.2151   -12.1258 H       
  56 H56            2.2622     1.5778   -10.2448 H       
  57 H57            5.8025     1.1846   -14.2656 H       
  58 H58            4.6316     0.0218   -13.9501 H       
@<TRIPOS>BOND
   1    1    2 2
   2    1    3 1
   3    1    4 1
   4    1    5 1
   5    3   12 1
   6    4   18 1
   7    5    8 1
   8    5   35 1
   9    6    7 1
  10    6   10 1
  11    7    8 1
  12    7   11 2
  13    8    9 1
  14    8   36 1
  15    9   10 1
  16    9   37 1
  17    9   38 1
  18   10   39 1
  19   10   40 1
  20   12   13 ar
  21   12   17 ar
  22   13   14 ar
  23   13   41 1
  24   14   15 ar
  25   14   42 1
  26   15   16 ar
  27   15   43 1
  28   16   17 ar
  29   16   44 1
  30   17   45 1
  31   18   20 1
  32   18   46 1
  33   18   47 1
  34   19   20 1
  35   19   23 1
  36   20   21 1
  37   20   48 1
  38   21   22 1
  39   21   25 1
  40   21   49 1
  41   22   24 1
  42   22   26 1
  43   22   23 1
  44   23   32 1
  45   23   50 1
  46   24   51 1
  47   24   52 1
  48   24   53 1
  49   25   54 1
  50   27   28 1
  51   27   32 am
  52   27   33 2
  53   28   29 2
  54   29   30 1
  55   29   34 1
  56   30   31 2
  57   30   55 1
  58   31   32 1
  59   31   56 1
  60   34   57 1
  61   34   58 1

#	End of record

