#	Name: ASD02508493
#	Creating user name:	WinNT
#	Creation time:	15. 06. 2019 20:24

#	Modifying user name:	WinNT
#	Modification time:	15. 06. 2019 20:24

#	Program:	/corina/corina34_cracker 3.40 0067  02.08.2006

@<TRIPOS>MOLECULE
ASD02508493
  31   33    0    0    0
SMALL
NO_CHARGES


@<TRIPOS>ATOM
   1 N1            -0.2432     1.3589    -0.1595 N.2     
   2 C2            -0.1430     0.0226    -0.1082 C.2     
   3 C3             1.1603    -0.3051    -0.2001 C.2     
   4 N4             1.8584     0.8695    -0.3094 N.pl3   
   5 C5             0.9490     1.8776    -0.2800 C.2     
   6 C6             3.2465     1.0044    -0.4285 C.2     
   7 S7             1.8379    -1.9315    -0.1825 S.o2    
   8 N8             1.7701    -2.5076    -1.7336 N.am    
   9 C9             0.5342    -2.6808    -2.3609 C.ar    
  10 C10           -0.5147    -3.2829    -1.6776 C.ar    
  11 O11            3.2161    -1.7887     0.1326 O.2     
  12 O12            0.9447    -2.7301     0.5815 O.2     
  13 C13            0.3498    -2.2462    -3.6672 C.ar    
  14 C14           -0.8736    -2.4184    -4.2850 C.ar    
  15 C15           -1.9147    -3.0222    -3.6048 C.ar    
  16 C16           -1.7363    -3.4523    -2.3011 C.ar    
  17 Cl17          -3.0465    -4.2100    -1.4508 Cl      
  18 C18            3.8796     1.6295    -1.4311 C.2     
  19 C19            5.2601     1.6342    -1.3318 C.2     
  20 C20            5.7495     1.0172    -0.2556 C.2     
  21 S21            4.4281     0.3862     0.7184 S.3     
  22 H22           -0.9651    -0.6708    -0.0096 H       
  23 H23            1.1741     2.9318    -0.3459 H       
  24 H24            2.5887    -2.7247    -2.2066 H       
  25 H25           -0.3756    -3.6185    -0.6605 H       
  26 H26            1.1622    -1.7738    -4.1993 H       
  27 H27           -1.0172    -2.0805    -5.3007 H       
  28 H28           -2.8704    -3.1548    -4.0900 H       
  29 H29            3.3535     2.0930    -2.2526 H       
  30 H30            5.8936     2.1023    -2.0707 H       
  31 H31            6.7984     0.9233    -0.0160 H       
@<TRIPOS>BOND
   1    1    2 1
   2    1    5 2
   3    2    3 2
   4    2   22 1
   5    3    4 1
   6    3    7 1
   7    4    5 1
   8    4    6 1
   9    5   23 1
  10    6   18 2
  11    6   21 1
  12    7    8 am
  13    7   11 2
  14    7   12 2
  15    8    9 1
  16    8   24 1
  17    9   13 ar
  18    9   10 ar
  19   10   16 ar
  20   10   25 1
  21   13   14 ar
  22   13   26 1
  23   14   15 ar
  24   14   27 1
  25   15   16 ar
  26   15   28 1
  27   16   17 1
  28   18   19 1
  29   18   29 1
  30   19   20 2
  31   19   30 1
  32   20   21 1
  33   20   31 1

#	End of record

