#	Name: ASD01140447
#	Creating user name:	WinNT
#	Creation time:	15. 06. 2019 19:00

#	Modifying user name:	WinNT
#	Modification time:	15. 06. 2019 19:00

#	Program:	/corina/corina34_cracker 3.40 0067  02.08.2006

@<TRIPOS>MOLECULE
ASD01140447
  48   51    0    0    0
SMALL
NO_CHARGES


@<TRIPOS>ATOM
   1 C1            -0.0178     1.4608     0.0101 C.3     
   2 C2            -2.7824     0.2700     4.7923 C.2     
   3 C3            -1.4819     0.1331     4.2737 C.2     
   4 N4            -0.4317     0.3761     5.0204 N.2     
   5 N5            -0.5843     0.7769     6.3489 N.pl3   
   6 C6            -1.8401     0.9201     6.8858 C.2     
   7 C7            -2.9656     0.6642     6.0813 C.2     
   8 C8             0.2886     1.0937     7.3473 C.2     
   9 N9            -0.4281     1.4053     8.4114 N.2     
  10 N10           -1.6830     1.3045     8.1440 N.2     
  11 O11           -1.3121    -0.2559     2.9848 O.3     
  12 C12            0.0322    -0.3772     2.5155 C.3     
  13 C13            0.0233    -0.8155     1.0736 C.2     
  14 N14            0.0021    -0.0041     0.0020 N.pl3   
  15 N15            0.0019    -0.8397    -1.1268 N.2     
  16 C16            0.0224    -2.0700    -0.6858 C.2     
  17 N17            0.0405    -2.0519     0.6463 N.2     
  18 H18            0.0274    -2.9573    -1.3015 H       
  19 C19            1.7634     1.0882     7.2556 C.ar    
  20 C20            2.5358     1.4369     8.3643 C.ar    
  21 C21            3.9146     1.4293     8.2718 C.ar    
  22 C22            4.5302     1.0765     7.0818 C.ar    
  23 C23            3.7704     0.7302     5.9789 C.ar    
  24 C24            2.3912     0.7281     6.0594 C.ar    
  25 F25            4.6639     1.7671     9.3441 F       
  26 F26            1.6506     0.3892     4.9815 F       
  27 C27           -3.9751    -0.0146     3.9163 C.3     
  28 C28           -5.2602     0.2079     4.7162 C.3     
  29 H29           -5.3000     1.2417     5.0596 H       
  30 H30           -6.1229     0.0021     4.0826 H       
  31 H31           -5.2732    -0.4614     5.5764 H       
  32 C32           -3.9568     0.9249     2.7088 C.3     
  33 H33           -3.0413     0.7663     2.1389 H       
  34 H34           -4.8195     0.7190     2.0752 H       
  35 H35           -3.9967     1.9586     3.0522 H       
  36 C36           -3.9193    -1.4657     3.4343 C.3     
  37 H37           -3.9323    -2.1350     4.2945 H       
  38 H38           -4.7819    -1.6715     2.8007 H       
  39 H39           -3.0037    -1.6242     2.8644 H       
  40 H40            1.0048     1.8381     0.0023 H       
  41 H41           -0.5450     1.8219    -0.8730 H       
  42 H42           -0.5280     1.8123     0.9069 H       
  43 H43           -3.9619     0.7709     6.4844 H       
  44 H44            0.5346     0.5865     2.5992 H       
  45 H45            0.5616    -1.1164     3.1166 H       
  46 H46            2.0570     1.7125     9.2923 H       
  47 H47            5.6081     1.0722     7.0149 H       
  48 H48            4.2565     0.4566     5.0541 H       
@<TRIPOS>BOND
   1    1   14 1
   2    1   40 1
   3    1   41 1
   4    1   42 1
   5    2    3 1
   6    2   27 1
   7    2    7 2
   8    3    4 2
   9    3   11 1
  10    4    5 1
  11    5    6 1
  12    5    8 1
  13    6    7 1
  14    6   10 2
  15    7   43 1
  16    8    9 2
  17    8   19 1
  18    9   10 1
  19   11   12 1
  20   12   13 1
  21   12   44 1
  22   12   45 1
  23   13   14 1
  24   13   17 2
  25   14   15 1
  26   15   16 2
  27   16   17 1
  28   16   18 1
  29   19   20 ar
  30   19   24 ar
  31   20   21 ar
  32   20   46 1
  33   21   22 ar
  34   21   25 1
  35   22   23 ar
  36   22   47 1
  37   23   24 ar
  38   23   48 1
  39   24   26 1
  40   27   28 1
  41   27   32 1
  42   27   36 1
  43   28   29 1
  44   28   30 1
  45   28   31 1
  46   32   33 1
  47   32   34 1
  48   32   35 1
  49   36   37 1
  50   36   38 1
  51   36   39 1

#	End of record

