#	Name: ASD01811490
#	Creating user name:	WinNT
#	Creation time:	15. 06. 2019 19:26

#	Modifying user name:	WinNT
#	Modification time:	15. 06. 2019 19:26

#	Program:	/corina/corina34_cracker 3.40 0067  02.08.2006

@<TRIPOS>MOLECULE
ASD01811490
  70   75    0    0    0
SMALL
NO_CHARGES


@<TRIPOS>ATOM
   1 C1            -7.6538     2.4754    -4.1280 C.1     
   2 C2            -6.6438     3.2275    -3.4461 C.ar    
   3 C3            -5.4798     2.5969    -3.0018 C.ar    
   4 C4            -4.5110     3.3274    -2.3455 C.ar    
   5 C5            -4.6909     4.6817    -2.1267 C.ar    
   6 C6            -5.8420     5.3128    -2.5638 C.ar    
   7 C7            -6.8159     4.5958    -3.2274 C.ar    
   8 N8            -8.4549     1.8789    -4.6690 N.1     
   9 N9            -2.5315     7.8385    -0.3122 N.am    
  10 C10           -2.0124     7.3679    -1.6036 C.3     
  11 C11           -3.1164     6.5875    -2.3240 C.3     
  12 C12           -3.6283     5.4730    -1.4085 C.3     
  13 C13           -4.2208     6.0863    -0.1377 C.3     
  14 C14           -3.1293     6.8610     0.6075 C.3     
  15 C15           -2.4558     9.1413     0.0247 C.2     
  16 C16           -3.0587     9.6141     1.2893 C.ar    
  17 C17           -3.9985    10.6475     1.2734 C.ar    
  18 C18           -4.5619    11.0903     2.4533 C.ar    
  19 C19           -4.2014    10.5155     3.6563 C.ar    
  20 C20           -3.2637     9.4816     3.6863 C.ar    
  21 C21           -2.6951     9.0262     2.4989 C.ar    
  22 O22           -1.8918     9.9275    -0.7110 O.2     
  23 C23           -3.1013     8.3492     8.5635 C.3     
  24 C24           -2.8239     8.3938     7.0808 C.2     
  25 C25           -1.8740     7.6367     6.4808 C.2     
  26 C26           -0.9869     6.6718     7.2254 C.3     
  27 C27           -1.0802     7.0055     8.7212 C.3     
  28 N28           -2.4923     7.1255     9.1114 N.3     
  29 C29           -2.8788     8.8672     4.9758 C.2     
  30 N30           -3.4190     9.1329     6.1475 N.2     
  31 N31           -1.9023     7.9267     5.1537 N.pl3   
  32 O32           -3.7830     6.1699    12.0452 O.3     
  33 C33           -4.0883     7.1745    11.0694 C.3     
  34 C34           -2.6412     7.0717    10.5718 C.3     
  35 C35           -2.7914     5.6574    11.1457 C.3     
  36 C36           -4.8213    11.0057     4.9394 C.3     
  37 C37           -4.3978    11.2806    -0.0346 C.3     
  38 H38           -5.3385     1.5397    -3.1714 H       
  39 H39           -3.6103     2.8410    -2.0014 H       
  40 H40           -5.9762     6.3701    -2.3894 H       
  41 H41           -7.7118     5.0905    -3.5723 H       
  42 H42           -1.7134     8.2225    -2.2106 H       
  43 H43           -1.1540     6.7171    -1.4371 H       
  44 H44           -3.9368     7.2615    -2.5705 H       
  45 H45           -2.7158     6.1514    -3.2391 H       
  46 H46           -2.8022     4.8137    -1.1423 H       
  47 H47           -5.0308     6.7650    -0.4047 H       
  48 H48           -4.6062     5.2934     0.5033 H       
  49 H49           -2.3620     6.1689     0.9543 H       
  50 H50           -3.5672     7.3811     1.4594 H       
  51 H51           -5.2875    11.8900     2.4357 H       
  52 H52           -1.9725     8.2237     2.5163 H       
  53 H53           -2.6650     9.2242     9.0453 H       
  54 H54           -4.1775     8.3328     8.7356 H       
  55 H55           -1.3264     5.6504     7.0533 H       
  56 H56            0.0433     6.7810     6.8865 H       
  57 H57           -0.6099     6.2109     9.3004 H       
  58 H58           -0.5681     7.9479     8.9156 H       
  59 H59           -1.3381     7.5413     4.4652 H       
  60 H60           -4.8234     6.8523    10.3319 H       
  61 H61           -4.3277     8.1439    11.5065 H       
  62 H62           -1.9325     7.7051    11.1052 H       
  63 H63           -1.8945     5.2975    11.6499 H       
  64 H64           -3.1878     4.9390    10.4282 H       
  65 H65           -5.6665    10.3691     5.2010 H       
  66 H66           -4.0797    10.9712     5.7375 H       
  67 H67           -5.1660    12.0313     4.8077 H       
  68 H68           -5.1887    10.6903    -0.4974 H       
  69 H69           -4.7589    12.2929     0.1470 H       
  70 H70           -3.5348    11.3164    -0.6994 H       
@<TRIPOS>BOND
   1    1    2 1
   2    1    8 3
   3    2    3 ar
   4    2    7 ar
   5    3    4 ar
   6    3   38 1
   7    4    5 ar
   8    4   39 1
   9    5    6 ar
  10    5   12 1
  11    6    7 ar
  12    6   40 1
  13    7   41 1
  14    9   10 1
  15    9   14 1
  16    9   15 am
  17   10   11 1
  18   10   42 1
  19   10   43 1
  20   11   12 1
  21   11   44 1
  22   11   45 1
  23   12   13 1
  24   12   46 1
  25   13   14 1
  26   13   47 1
  27   13   48 1
  28   14   49 1
  29   14   50 1
  30   15   16 1
  31   15   22 2
  32   16   17 ar
  33   16   21 ar
  34   17   18 ar
  35   17   37 1
  36   18   19 ar
  37   18   51 1
  38   19   20 ar
  39   19   36 1
  40   20   21 ar
  41   20   29 1
  42   21   52 1
  43   23   24 1
  44   23   28 1
  45   23   53 1
  46   23   54 1
  47   24   25 2
  48   24   30 1
  49   25   26 1
  50   25   31 1
  51   26   27 1
  52   26   55 1
  53   26   56 1
  54   27   28 1
  55   27   57 1
  56   27   58 1
  57   28   34 1
  58   29   30 2
  59   29   31 1
  60   31   59 1
  61   32   33 1
  62   32   35 1
  63   33   34 1
  64   33   60 1
  65   33   61 1
  66   34   35 1
  67   34   62 1
  68   35   63 1
  69   35   64 1
  70   36   65 1
  71   36   66 1
  72   36   67 1
  73   37   68 1
  74   37   69 1
  75   37   70 1

#	End of record

