#	Name: ASD00960054
#	Creating user name:	WinNT
#	Creation time:	15. 06. 2019 18:53

#	Modifying user name:	WinNT
#	Modification time:	15. 06. 2019 18:53

#	Program:	/corina/corina34_cracker 3.40 0067  02.08.2006

@<TRIPOS>MOLECULE
ASD00960054
  39   41    0    0    0
SMALL
NO_CHARGES


@<TRIPOS>ATOM
   1 C1            -0.1520     1.5339    -0.2246 C.3     
   2 C2            -0.1285    -0.0111    -0.2212 C.3     
   3 C3            -0.6716    -0.3917     1.1740 C.3     
   4 O4            -1.4616     0.7452     1.5852 O.3     
   5 C5            -0.7066     1.9039     1.1690 C.3     
   6 C6            -1.6196     3.1277     1.0712 C.3     
   7 F7             1.1404     2.0435    -0.3890 F       
   8 C8            -1.5337    -1.6243     1.0830 C.2     
   9 C9            -1.0799    -2.8970     1.1136 C.2     
  10 N10           -2.8851    -1.6270     0.9638 N.pl3   
  11 C11           -3.3233    -2.9263     0.9093 C.2     
  12 C12           -2.1979    -3.7549     1.0022 C.2     
  13 N13           -3.8384    -0.6005     0.8925 N.2     
  14 C14           -5.1067    -0.8923     0.7774 C.2     
  15 N15           -5.5424    -2.1473     0.7237 N.2     
  16 C16           -4.7071    -3.1714     0.7836 C.2     
  17 O17           -2.0871     3.4786     2.3751 O.3     
  18 N18           -5.1845    -4.4665     0.7258 N.pl3   
  19 C19           -2.1825    -5.2205     0.9871 C.2     
  20 S20           -1.9664    -6.0590    -0.4898 S.2     
  21 N21           -2.3384    -5.9079     2.1358 N.am    
  22 C22           -1.0388    -0.5635    -1.3198 C.3     
  23 O23            1.2065    -0.4918    -0.3901 O.3     
  24 *24            1.8038    -0.1098    -1.6089 Du      
  25 H25           -0.8104     1.9041    -1.0105 H       
  26 H26            0.1513    -0.5537     1.8703 H       
  27 H27            0.1110     2.0939     1.8645 H       
  28 H28           -1.0627     3.9635     0.6477 H       
  29 H29           -2.4703     2.8960     0.4303 H       
  30 H30           -0.0485    -3.2035     1.2060 H       
  31 H31           -5.8250    -0.0875     0.7244 H       
  32 H32           -2.6728     4.2479     2.3891 H       
  33 H33           -6.1403    -4.6318     0.7331 H       
  34 H34           -4.5639    -5.2104     0.6778 H       
  35 H35           -2.4608    -5.4329     2.9725 H       
  36 H36           -2.3282    -6.8778     2.1257 H       
  37 H37           -0.6795    -0.2275    -2.2925 H       
  38 H38           -1.0296    -1.6529    -1.2856 H       
  39 H39           -2.0559    -0.2037    -1.1640 H       
@<TRIPOS>BOND
   1    1    2 1
   2    1    7 1
   3    1    5 1
   4    1   25 1
   5    2   22 1
   6    2   23 1
   7    2    3 1
   8    3    4 1
   9    3    8 1
  10    3   26 1
  11    4    5 1
  12    5    6 1
  13    5   27 1
  14    6   17 1
  15    6   28 1
  16    6   29 1
  17    8    9 2
  18    8   10 1
  19    9   12 1
  20    9   30 1
  21   10   11 1
  22   10   13 1
  23   11   12 2
  24   11   16 1
  25   12   19 1
  26   13   14 2
  27   14   15 1
  28   14   31 1
  29   15   16 2
  30   16   18 1
  31   17   32 1
  32   18   33 1
  33   18   34 1
  34   19   20 2
  35   19   21 am
  36   21   35 1
  37   21   36 1
  38   22   37 1
  39   22   38 1
  40   22   39 1
  41   23   24 1

#	End of record

