#	Name: ASD01910412
#	Creating user name:	WinNT
#	Creation time:	15. 06. 2019 19:55

#	Modifying user name:	WinNT
#	Modification time:	15. 06. 2019 19:55

#	Program:	/corina/corina34_cracker 3.40 0067  02.08.2006

@<TRIPOS>MOLECULE
ASD01910412
  44   46    0    0    0
SMALL
NO_CHARGES


@<TRIPOS>ATOM
   1 C1             0.2015     1.6433     0.8955 C.ar    
   2 C2            -0.8688     2.2979     0.3096 C.ar    
   3 C3            -2.0528     1.6232     0.0844 C.ar    
   4 C4            -2.1693     0.2878     0.4459 C.ar    
   5 C5            -1.0949    -0.3668     1.0333 C.ar    
   6 C6             0.0891     0.3100     1.2520 C.ar    
   7 F7             1.3589     2.3049     1.1145 F       
   8 N8            -3.3692    -0.3981     0.2189 N.am    
   9 C9            -4.5461     0.2504     0.3227 C.2     
  10 O10           -5.6923    -0.3792     0.0017 O.3     
  11 O11           -4.5729     1.4031     0.7061 O.2     
  12 C12           -7.4864     0.1917     1.5494 C.3     
  13 C13           -6.9222     0.3806     0.1378 C.3     
  14 C14           -7.9450    -0.1154    -0.8868 C.3     
  15 C15           -9.2302     0.7067    -0.7663 C.3     
  16 C16           -9.8207     0.5214     0.6351 C.3     
  17 N17           -8.7931     0.8587     1.6296 N.am    
  18 C18           -9.0441     1.7631     2.5968 C.2     
  19 O19           -8.2143     1.9772     3.4590 O.2     
  20 C20          -10.3277     2.4944     2.6091 C.ar    
  21 C21          -11.5274     1.8074     2.4116 C.ar    
  22 C22          -12.7222     2.4946     2.4240 C.ar    
  23 C23          -12.7343     3.8654     2.6321 C.ar    
  24 C24          -11.5460     4.5524     2.8283 C.ar    
  25 C25          -10.3461     3.8741     2.8240 C.ar    
  26 F26          -13.9081     4.5341     2.6434 F       
  27 H27           -0.7779     3.3368     0.0288 H       
  28 H28           -2.8875     2.1342    -0.3723 H       
  29 H29           -1.1835    -1.4056     1.3152 H       
  30 H30            0.9252    -0.1989     1.7085 H       
  31 H31           -3.3532    -1.3398    -0.0132 H       
  32 H32           -7.6059    -0.8719     1.7558 H       
  33 H33           -6.8055     0.6330     2.2772 H       
  34 H34           -6.7183     1.4375    -0.0341 H       
  35 H35           -7.5361    -0.0048    -1.8911 H       
  36 H36           -8.1670    -1.1659    -0.6990 H       
  37 H37           -9.0046     1.7606    -0.9296 H       
  38 H38           -9.9498     0.3684    -1.5119 H       
  39 H39          -10.6799     1.1804     0.7596 H       
  40 H40          -10.1304    -0.5153     0.7669 H       
  41 H41          -11.5190     0.7397     2.2491 H       
  42 H42          -13.6505     1.9644     2.2711 H       
  43 H43          -11.5610     5.6202     2.9896 H       
  44 H44           -9.4211     4.4101     2.9772 H       
@<TRIPOS>BOND
   1    1    2 ar
   2    1    7 1
   3    1    6 ar
   4    2    3 ar
   5    2   27 1
   6    3    4 ar
   7    3   28 1
   8    4    5 ar
   9    4    8 1
  10    5    6 ar
  11    5   29 1
  12    6   30 1
  13    8    9 am
  14    8   31 1
  15    9   10 1
  16    9   11 2
  17   10   13 1
  18   12   13 1
  19   12   17 1
  20   12   32 1
  21   12   33 1
  22   13   14 1
  23   13   34 1
  24   14   15 1
  25   14   35 1
  26   14   36 1
  27   15   16 1
  28   15   37 1
  29   15   38 1
  30   16   17 1
  31   16   39 1
  32   16   40 1
  33   17   18 am
  34   18   19 2
  35   18   20 1
  36   20   21 ar
  37   20   25 ar
  38   21   22 ar
  39   21   41 1
  40   22   23 ar
  41   22   42 1
  42   23   24 ar
  43   23   26 1
  44   24   25 ar
  45   24   43 1
  46   25   44 1

#	End of record

