#	Name: ASD03331728
#	Creating user name:	WinNT
#	Creation time:	15. 06. 2019 20:39

#	Modifying user name:	WinNT
#	Modification time:	15. 06. 2019 20:39

#	Program:	/corina/corina34_cracker 3.40 0067  02.08.2006

@<TRIPOS>MOLECULE
ASD03331728
  54   56    0    0    0
SMALL
NO_CHARGES


@<TRIPOS>ATOM
   1 C1            -0.5098     2.4944    -1.3111 C.3     
   2 N2            -0.4351     1.0681    -0.9648 N.3     
   3 C3             0.1121     0.2771    -2.0819 C.3     
   4 C4             1.3800     0.9449    -2.5482 C.2     
   5 N5             1.7273     2.2168    -2.2193 N.pl3   
   6 C6             0.9034     3.0878    -1.3763 C.3     
   7 C7             2.3667     0.4495    -3.3362 C.2     
   8 N8             3.3027     1.4157    -3.4781 N.2     
   9 C9             2.9234     2.4806    -2.8076 C.2     
  10 C10            3.6730     3.7524    -2.7094 C.ar    
  11 C11            4.7194     4.0188    -3.5928 C.ar    
  12 C12            5.4143     5.2069    -3.4964 C.ar    
  13 C13            5.0756     6.1329    -2.5260 C.ar    
  14 C14            4.0389     5.8747    -1.6470 C.ar    
  15 C15            3.3326     4.6928    -1.7367 C.ar    
  16 C16            2.4112    -0.8985    -3.9302 C.2     
  17 O17            1.5038    -1.6825    -3.7277 O.2     
  18 N18            3.4575    -1.2624    -4.6978 N.am    
  19 C19            3.5018    -2.6024    -5.2883 C.3     
  20 C20            4.3631    -2.5783    -6.5247 C.2     
  21 N21            4.1422    -3.4630    -7.5171 N.am    
  22 O22            5.2550    -1.7629    -6.6266 O.2     
  23 C23            4.9055    -3.3706    -8.7642 C.3     
  24 C24            4.0905    -3.5867    -4.2757 C.3     
  25 C25            3.1518    -3.7038    -3.0732 C.3     
  26 C26            4.2513    -4.9591    -4.9327 C.3     
  27 C27            5.4571    -3.0816    -3.8086 C.3     
  28 H28           -0.9952     2.6070    -2.2805 H       
  29 H29           -1.0895     3.0214    -0.5532 H       
  30 H30            0.1048     0.9279    -0.1240 H       
  31 H31            0.3320    -0.7354    -1.7434 H       
  32 H32           -0.6092     0.2449    -2.8985 H       
  33 H33            0.8629     4.0873    -1.8093 H       
  34 H34            1.3279     3.1378    -0.3736 H       
  35 H35            4.9853     3.2964    -4.3504 H       
  36 H36            6.2246     5.4143    -4.1797 H       
  37 H37            5.6230     7.0611    -2.4541 H       
  38 H38            3.7795     6.6015    -0.8913 H       
  39 H39            2.5233     4.4926    -1.0502 H       
  40 H40            4.1813    -0.6371    -4.8593 H       
  41 H41            2.4923    -2.9155    -5.5548 H       
  42 H42            3.4778    -4.1610    -7.4058 H       
  43 H43            4.5912    -4.1640    -9.4422 H       
  44 H44            4.7246    -2.4018    -9.2299 H       
  45 H45            5.9686    -3.4771    -8.5482 H       
  46 H46            2.1782    -4.0637    -3.4059 H       
  47 H47            3.5712    -4.4051    -2.3518 H       
  48 H48            3.0373    -2.7261    -2.6051 H       
  49 H49            4.9960    -4.8971    -5.7261 H       
  50 H50            4.5756    -5.6837    -4.1858 H       
  51 H51            3.2967    -5.2743    -5.3541 H       
  52 H52            5.3425    -2.1039    -3.3406 H       
  53 H53            5.8765    -3.7829    -3.0872 H       
  54 H54            6.1258    -2.9982    -4.6653 H       
@<TRIPOS>BOND
   1    1    2 1
   2    1    6 1
   3    1   28 1
   4    1   29 1
   5    2    3 1
   6    2   30 1
   7    3    4 1
   8    3   31 1
   9    3   32 1
  10    4    5 1
  11    4    7 2
  12    5    6 1
  13    5    9 1
  14    6   33 1
  15    6   34 1
  16    7    8 1
  17    7   16 1
  18    8    9 2
  19    9   10 1
  20   10   11 ar
  21   10   15 ar
  22   11   12 ar
  23   11   35 1
  24   12   13 ar
  25   12   36 1
  26   13   14 ar
  27   13   37 1
  28   14   15 ar
  29   14   38 1
  30   15   39 1
  31   16   17 2
  32   16   18 am
  33   18   19 1
  34   18   40 1
  35   19   20 1
  36   19   24 1
  37   19   41 1
  38   20   21 am
  39   20   22 2
  40   21   23 1
  41   21   42 1
  42   23   43 1
  43   23   44 1
  44   23   45 1
  45   24   25 1
  46   24   26 1
  47   24   27 1
  48   25   46 1
  49   25   47 1
  50   25   48 1
  51   26   49 1
  52   26   50 1
  53   26   51 1
  54   27   52 1
  55   27   53 1
  56   27   54 1

#	End of record

