#	Name: ASD04010006
#	Creating user name:	WinNT
#	Creation time:	15. 06. 2019 20:48

#	Modifying user name:	WinNT
#	Modification time:	15. 06. 2019 20:48

#	Program:	/corina/corina34_cracker 3.40 0067  02.08.2006

@<TRIPOS>MOLECULE
ASD04010006
  21   22    0    0    0
SMALL
NO_CHARGES


@<TRIPOS>ATOM
   1 C1            -0.0167     1.3814     0.0096 C.ar    
   2 C2             0.0021    -0.0041     0.0020 C.ar    
   3 C3             1.2084    -0.6809    -0.0127 C.ar    
   4 C4             2.4024     0.0189    -0.0199 C.ar    
   5 C5             2.3998     1.3986    -0.0129 C.ar    
   6 C6             1.1891     2.0923     0.0019 C.ar    
   7 O7            -1.2012     2.0475     0.0189 O.3     
   8 N8             1.6346     4.3866    -0.9961 N.pl3   
   9 C9             1.1801     3.5702     0.0100 C.2     
  10 C10            0.7183     4.3642     1.0170 C.2     
  11 C11            0.8962     5.6989     0.6139 C.2     
  12 C12            1.4563     5.6854    -0.6164 C.2     
  13 Br13           1.9163     7.2086    -1.6382 Br      
  14 Br14           0.4345     7.2369     1.6125 Br      
  15 Br15          -0.0254     3.7782     2.6539 Br      
  16 Br16          -1.6231    -0.9707     0.0123 Br      
  17 H17            1.2186    -1.7608    -0.0182 H       
  18 H18            3.3399    -0.5172    -0.0306 H       
  19 H19            3.3337     1.9410    -0.0182 H       
  20 H20           -1.5398     2.2355     0.9049 H       
  21 H21            2.0215     4.0899    -1.8346 H       
@<TRIPOS>BOND
   1    1    2 ar
   2    1    6 ar
   3    1    7 1
   4    2    3 ar
   5    2   16 1
   6    3    4 ar
   7    3   17 1
   8    4    5 ar
   9    4   18 1
  10    5    6 ar
  11    5   19 1
  12    6    9 1
  13    7   20 1
  14    8    9 1
  15    8   12 1
  16    8   21 1
  17    9   10 2
  18   10   11 1
  19   10   15 1
  20   11   12 2
  21   11   14 1
  22   12   13 1

#	End of record

