#	Name: ASD02030284
#	Creating user name:	WinNT
#	Creation time:	15. 06. 2019 20:15

#	Modifying user name:	WinNT
#	Modification time:	15. 06. 2019 20:15

#	Program:	/corina/corina34_cracker 3.40 0067  02.08.2006

@<TRIPOS>MOLECULE
ASD02030284
  55   59    0    0    0
SMALL
NO_CHARGES


@<TRIPOS>ATOM
   1 N1            -0.0144     1.3644     0.1741 N.am    
   2 C2            -0.0642    -0.1018     0.0852 C.3     
   3 C3            -1.1208    -0.6168     1.0703 C.3     
   4 N4            -2.3604     0.1473     0.8714 N.am    
   5 C5            -2.3106     1.6134     0.9602 C.3     
   6 C6            -1.2550     2.1282    -0.0193 C.3     
   7 C7             1.1471     1.9968     0.4338 C.2     
   8 C8             2.3545     1.2147     0.7743 C.2     
   9 N9             3.5730     1.6921     0.9093 N.2     
  10 N10            2.3999    -0.1100     1.0067 N.2     
  11 C11            3.6441    -0.4156     1.2734 C.2     
  12 N12            4.3662     0.7219     1.2087 N.pl3   
  13 C13            5.7458     0.8301     1.4298 C.ar    
  14 O14            1.2018     3.2103     0.3880 O.2     
  15 C15           -3.5219    -0.4852     0.6117 C.2     
  16 C16           -3.5566    -1.9530     0.5252 C.2     
  17 O17           -4.5415     0.1580     0.4488 O.2     
  18 C18            6.3709     2.0656     1.3320 C.ar    
  19 C19            7.7321     2.1690     1.5507 C.ar    
  20 C20            8.4706     1.0421     1.8663 C.ar    
  21 C21            7.8497    -0.1897     1.9638 C.ar    
  22 C22            6.4892    -0.2977     1.7528 C.ar    
  23 C23           -0.9920     3.6125     0.2425 C.3     
  24 Cl24           8.5155     3.7134     1.4288 Cl      
  25 C25           -3.8074    -2.9053     1.6255 C.ar    
  26 C26           -3.3702    -2.7150    -0.5864 C.2     
  27 O27           -3.4766    -4.0112    -0.2719 O.3     
  28 C28           -3.7378    -4.1781     1.0411 C.ar    
  29 C29           -3.9318    -5.3017     1.8357 C.ar    
  30 C30           -4.1889    -5.1569     3.1821 C.ar    
  31 C31           -4.2573    -3.8969     3.7575 C.ar    
  32 C32           -4.0710    -2.7707     2.9847 C.ar    
  33 C33           -3.0870    -2.1792    -1.9662 C.3     
  34 H34           -0.3339    -0.3979    -0.9285 H       
  35 H35            0.9099    -0.5172     0.3434 H       
  36 H36           -1.3092    -1.6743     0.8849 H       
  37 H37           -0.7664    -0.4795     2.0919 H       
  38 H38           -3.2847     2.0288     0.7020 H       
  39 H39           -2.0409     1.9095     1.9739 H       
  40 H40           -1.6070     1.9912    -1.0418 H       
  41 H41            4.0235    -1.3997     1.5062 H       
  42 H42            5.7947     2.9450     1.0850 H       
  43 H43            9.5339     1.1247     2.0365 H       
  44 H44            8.4288    -1.0676     2.2095 H       
  45 H45            6.0052    -1.2601     1.8296 H       
  46 H46           -0.5215     3.7315     1.2184 H       
  47 H47           -0.3313     4.0061    -0.5299 H       
  48 H48           -1.9360     4.1573     0.2253 H       
  49 H49           -3.8815    -6.2879     1.3983 H       
  50 H50           -4.3388    -6.0334     3.7950 H       
  51 H51           -4.4602    -3.7976     4.8136 H       
  52 H52           -4.1243    -1.7896     3.4331 H       
  53 H53           -2.0100    -2.0853    -2.1055 H       
  54 H54           -3.4915    -2.8636    -2.7119 H       
  55 H55           -3.5546    -1.2011    -2.0791 H       
@<TRIPOS>BOND
   1    1    2 1
   2    1    7 am
   3    1    6 1
   4    2    3 1
   5    2   34 1
   6    2   35 1
   7    3    4 1
   8    3   36 1
   9    3   37 1
  10    4    5 1
  11    4   15 am
  12    5    6 1
  13    5   38 1
  14    5   39 1
  15    6   23 1
  16    6   40 1
  17    7    8 1
  18    7   14 2
  19    8    9 2
  20    8   10 1
  21    9   12 1
  22   10   11 2
  23   11   12 1
  24   11   41 1
  25   12   13 1
  26   13   18 ar
  27   13   22 ar
  28   15   16 1
  29   15   17 2
  30   16   26 2
  31   16   25 1
  32   18   19 ar
  33   18   42 1
  34   19   20 ar
  35   19   24 1
  36   20   21 ar
  37   20   43 1
  38   21   22 ar
  39   21   44 1
  40   22   45 1
  41   23   46 1
  42   23   47 1
  43   23   48 1
  44   25   28 ar
  45   25   32 ar
  46   26   27 1
  47   26   33 1
  48   27   28 1
  49   28   29 ar
  50   29   30 ar
  51   29   49 1
  52   30   31 ar
  53   30   50 1
  54   31   32 ar
  55   31   51 1
  56   32   52 1
  57   33   53 1
  58   33   54 1
  59   33   55 1

#	End of record

