#	Name: ASD02508054
#	Creating user name:	WinNT
#	Creation time:	15. 06. 2019 20:23

#	Modifying user name:	WinNT
#	Modification time:	15. 06. 2019 20:23

#	Program:	/corina/corina34_cracker 3.40 0067  02.08.2006

@<TRIPOS>MOLECULE
ASD02508054
  41   43    0    0    0
SMALL
NO_CHARGES


@<TRIPOS>ATOM
   1 C1            -0.0117     1.3914    -0.0076 C.ar    
   2 C2             0.0073     0.0101     0.1091 C.ar    
   3 C3             1.1822     2.1005    -0.1345 C.ar    
   4 C4             2.3899     1.4204    -0.1437 C.ar    
   5 C5             2.4055     0.0387    -0.0268 C.ar    
   6 C6             1.2123    -0.6653     0.0996 C.ar    
   7 N7            -1.0410     2.3357    -0.0364 N.am    
   8 C8            -0.4717     3.5501    -0.1689 C.2     
   9 O9             0.8622     3.4146    -0.2291 O.3     
  10 N10            3.6244    -0.6492    -0.0360 N.am    
  11 S11            4.9610     0.0252     0.6720 S.o2    
  12 C12            4.5822     0.2684     2.3755 C.ar    
  13 C13            4.8538    -0.7308     3.2921 C.ar    
  14 O14           -1.0738     4.6050    -0.2293 O.2     
  15 O15            5.9815    -0.9626     0.6249 O.2     
  16 O16            5.1057     1.3198     0.1043 O.2     
  17 Cl17           1.2377    -2.3949     0.2467 Cl      
  18 C18            4.0195     1.4595     2.7935 C.ar    
  19 C19            3.7212     1.6556     4.1295 C.ar    
  20 C20            3.9859     0.6568     5.0521 C.ar    
  21 C21            4.5570    -0.5410     4.6318 C.ar    
  22 O22            4.8183    -1.5248     5.5337 O.3     
  23 C23            5.4049    -2.7269     5.0308 C.3     
  24 O24            3.6935     0.8482     6.3664 O.3     
  25 C25            3.1145     2.1042     6.7259 C.3     
  26 C26           -2.4760     2.0569     0.0596 C.3     
  27 H27           -0.9186    -0.5371     0.2076 H       
  28 H28            3.3170     1.9655    -0.2421 H       
  29 H29            3.6863    -1.5208    -0.4570 H       
  30 H30            5.2969    -1.6592     2.9635 H       
  31 H31            3.8127     2.2391     2.0752 H       
  32 H32            3.2823     2.5876     4.4536 H       
  33 H33            5.5607    -3.4264     5.8521 H       
  34 H34            4.7393    -3.1750     4.2931 H       
  35 H35            6.3623    -2.4961     4.5635 H       
  36 H36            3.7982     2.9096     6.4577 H       
  37 H37            2.1721     2.2353     6.1941 H       
  38 H38            2.9315     2.1256     7.8002 H       
  39 H39           -2.7804     2.0751     1.1061 H       
  40 H40           -3.0311     2.8145    -0.4935 H       
  41 H41           -2.6841     1.0736    -0.3622 H       
@<TRIPOS>BOND
   1    1    2 ar
   2    1    3 ar
   3    1    7 1
   4    2    6 ar
   5    2   27 1
   6    3    4 ar
   7    3    9 1
   8    4    5 ar
   9    4   28 1
  10    5    6 ar
  11    5   10 1
  12    6   17 1
  13    7    8 am
  14    7   26 1
  15    8    9 1
  16    8   14 2
  17   10   11 am
  18   10   29 1
  19   11   12 1
  20   11   15 2
  21   11   16 2
  22   12   13 ar
  23   12   18 ar
  24   13   21 ar
  25   13   30 1
  26   18   19 ar
  27   18   31 1
  28   19   20 ar
  29   19   32 1
  30   20   21 ar
  31   20   24 1
  32   21   22 1
  33   22   23 1
  34   23   33 1
  35   23   34 1
  36   23   35 1
  37   24   25 1
  38   25   36 1
  39   25   37 1
  40   25   38 1
  41   26   39 1
  42   26   40 1
  43   26   41 1

#	End of record

