#	Name: ASD01913974
#	Creating user name:	WinNT
#	Creation time:	15. 06. 2019 20:02

#	Modifying user name:	WinNT
#	Modification time:	15. 06. 2019 20:02

#	Program:	/corina/corina34_cracker 3.40 0067  02.08.2006

@<TRIPOS>MOLECULE
ASD01913974
  37   40    0    0    0
SMALL
NO_CHARGES


@<TRIPOS>ATOM
   1 O1             0.1817     1.2403    -0.1006 O.3     
   2 N2             0.1390     0.0234    -0.0728 N.2     
   3 C3             1.3443    -0.5117    -0.1019 C.2     
   4 C4             2.2392     0.5594    -0.1548 C.2     
   5 C5             1.4293     1.6784    -0.1541 C.2     
   6 C6             3.7328     0.6646    -0.2018 C.3     
   7 C7             2.0567     3.0086    -0.2120 C.ar    
   8 C8             1.3615     4.1818     0.0371 C.ar    
   9 C9             2.0246     5.3928    -0.0202 C.ar    
  10 C10            3.3750     5.4295    -0.3234 C.ar    
  11 C11            4.0740     4.2658    -0.5797 C.ar    
  12 C12            3.4275     3.0409    -0.5357 C.ar    
  13 O13            4.0960     1.8994    -0.8283 O.3     
  14 C14            1.6807    -1.9560    -0.0819 C.2     
  15 O15            2.8347    -2.3129    -0.2135 O.2     
  16 N16            0.7064    -2.8727     0.0823 N.am    
  17 C17           -0.6652    -2.4414     0.3636 C.3     
  18 C18            1.0046    -4.2353    -0.0159 C.ar    
  19 C19           -0.0182    -5.1747     0.0048 C.ar    
  20 C20            0.2801    -6.5206    -0.0930 C.ar    
  21 C21            1.5965    -6.9320    -0.2109 C.ar    
  22 C22            2.6161    -5.9986    -0.2318 C.ar    
  23 C23            2.3237    -4.6516    -0.1402 C.ar    
  24 Cl24          -0.9971    -7.6962    -0.0672 Cl      
  25 H25            4.1321     0.6391     0.8121 H       
  26 H26            4.1390    -0.1684    -0.7756 H       
  27 H27            0.3083     4.1495     0.2742 H       
  28 H28            1.4891     6.3110     0.1711 H       
  29 H29            3.8880     6.3792    -0.3604 H       
  30 H30            5.1271     4.3109    -0.8149 H       
  31 H31           -1.1736    -2.2130    -0.5731 H       
  32 H32           -1.1980    -3.2392     0.8810 H       
  33 H33           -0.6444    -1.5512     0.9923 H       
  34 H34           -1.0453    -4.8539     0.0976 H       
  35 H35            1.8276    -7.9843    -0.2865 H       
  36 H36            3.6421    -6.3227    -0.3239 H       
  37 H37            3.1207    -3.9231    -0.1611 H       
@<TRIPOS>BOND
   1    1    2 1
   2    1    5 1
   3    2    3 2
   4    3    4 1
   5    3   14 1
   6    4    5 2
   7    4    6 1
   8    5    7 1
   9    6   13 1
  10    6   25 1
  11    6   26 1
  12    7    8 ar
  13    7   12 ar
  14    8    9 ar
  15    8   27 1
  16    9   10 ar
  17    9   28 1
  18   10   11 ar
  19   10   29 1
  20   11   12 ar
  21   11   30 1
  22   12   13 1
  23   14   15 2
  24   14   16 am
  25   16   17 1
  26   16   18 1
  27   17   31 1
  28   17   32 1
  29   17   33 1
  30   18   19 ar
  31   18   23 ar
  32   19   20 ar
  33   19   34 1
  34   20   21 ar
  35   20   24 1
  36   21   22 ar
  37   21   35 1
  38   22   23 ar
  39   22   36 1
  40   23   37 1

#	End of record

