#	Name: ASD01180194
#	Creating user name:	WinNT
#	Creation time:	15. 06. 2019 19:06

#	Modifying user name:	WinNT
#	Modification time:	15. 06. 2019 19:06

#	Program:	/corina/corina34_cracker 3.40 0067  02.08.2006

@<TRIPOS>MOLECULE
ASD01180194
  68   70    0    0    0
SMALL
NO_CHARGES


@<TRIPOS>ATOM
   1 C1             0.6278     1.2641    -0.5725 C.ar    
   2 C2             0.5629    -0.1107    -0.4855 C.ar    
   3 C3             1.7343    -0.8654    -0.5144 C.ar    
   4 C4             2.9682    -0.2278    -0.6312 C.ar    
   5 C5             3.0268     1.1473    -0.7179 C.ar    
   6 C6             1.8582     1.8964    -0.6889 C.ar    
   7 C7             1.6680    -2.3446    -0.4204 C.ar    
   8 C8             2.8385    -3.1003    -0.4492 C.ar    
   9 C9             2.7708    -4.4760    -0.3615 C.ar    
  10 C10            1.5442    -5.1048    -0.2456 C.ar    
  11 C11            0.3792    -4.3596    -0.2170 C.ar    
  12 C12            0.4354    -2.9829    -0.2973 C.ar    
  13 C13            1.4768    -6.6073    -0.1507 C.3     
  14 C14            1.2941    -7.0183     1.3117 C.3     
  15 N15            0.3439    -7.0961    -0.9405 N.pl3   
  16 C16            0.3791    -8.3672    -1.4884 C.ar    
  17 N17           -0.5933    -8.7556    -2.3020 N.ar    
  18 C18           -0.6012    -9.9547    -2.8459 C.ar    
  19 C19            0.4254   -10.8613    -2.5778 C.ar    
  20 C20            1.4675   -10.4766    -1.7201 C.ar    
  21 C21            1.4392    -9.2188    -1.1815 C.ar    
  22 C22            0.4151   -12.2050    -3.1871 C.2     
  23 N23           -0.5907   -12.5646    -4.0090 N.am    
  24 O24            1.3140   -12.9880    -2.9475 O.2     
  25 C25           -0.6009   -13.8988    -4.6139 C.3     
  26 C26           -1.8416   -14.0492    -5.4965 C.3     
  27 C27           -1.8521   -15.4217    -6.1188 C.2     
  28 O28           -2.8538   -15.7797    -6.9374 O.3     
  29 O29           -0.9589   -16.1997    -5.8808 O.2     
  30 C30            2.5441    -6.6385     2.1081 C.3     
  31 C31            2.3102    -6.9267     3.5924 C.3     
  32 C32            3.7350    -7.4601     1.6105 C.3     
  33 O33            1.9190     3.2510    -0.7749 O.3     
  34 C34            0.6786     3.9596    -0.7389 C.3     
  35 C35            0.9463     5.4622    -0.8471 C.3     
  36 H36           -0.2799     1.8491    -0.5547 H       
  37 H37           -0.3945    -0.6020    -0.3946 H       
  38 H38            3.8776    -0.8101    -0.6535 H       
  39 H39            3.9826     1.6419    -0.8082 H       
  40 H40            3.7967    -2.6105    -0.5403 H       
  41 H41            3.6773    -5.0627    -0.3837 H       
  42 H42           -0.5759    -4.8557    -0.1271 H       
  43 H43           -0.4748    -2.4021    -0.2748 H       
  44 H44            2.4011    -7.0375    -0.5363 H       
  45 H45            0.4279    -6.5041     1.7281 H       
  46 H46            1.1398    -8.0957     1.3697 H       
  47 H47           -0.4309    -6.5293    -1.0796 H       
  48 H48           -1.4087   -10.2391    -3.5043 H       
  49 H49            2.2758   -11.1562    -1.4937 H       
  50 H50            2.2261    -8.8921    -0.5178 H       
  51 H51           -1.3077   -11.9399    -4.2001 H       
  52 H52            0.2949   -14.0294    -5.2211 H       
  53 H53           -0.6204   -14.6539    -3.8281 H       
  54 H54           -2.7374   -13.9186    -4.8893 H       
  55 H55           -1.8221   -13.2941    -6.2824 H       
  56 H56           -2.8172   -16.6702    -7.3126 H       
  57 H57            2.7528    -5.5773     1.9725 H       
  58 H58            2.1015    -7.9879     3.7280 H       
  59 H59            3.2007    -6.6562     4.1598 H       
  60 H60            1.4618    -6.3414     3.9469 H       
  61 H61            3.9619    -7.1842     0.5807 H       
  62 H62            4.6024    -7.2604     2.2396 H       
  63 H63            3.4892    -8.5210     1.6567 H       
  64 H64            0.0537     3.6409    -1.5731 H       
  65 H65            0.1667     3.7485     0.2000 H       
  66 H66            0.0001     6.0027    -0.8196 H       
  67 H67            1.5712     5.7809    -0.0128 H       
  68 H68            1.4582     5.6733    -1.7859 H       
@<TRIPOS>BOND
   1    1    2 ar
   2    1    6 ar
   3    1   36 1
   4    2    3 ar
   5    2   37 1
   6    3    4 ar
   7    3    7 1
   8    4    5 ar
   9    4   38 1
  10    5    6 ar
  11    5   39 1
  12    6   33 1
  13    7    8 ar
  14    7   12 ar
  15    8    9 ar
  16    8   40 1
  17    9   10 ar
  18    9   41 1
  19   10   11 ar
  20   10   13 1
  21   11   12 ar
  22   11   42 1
  23   12   43 1
  24   13   14 1
  25   13   15 1
  26   13   44 1
  27   14   30 1
  28   14   45 1
  29   14   46 1
  30   15   16 1
  31   15   47 1
  32   16   17 ar
  33   16   21 ar
  34   17   18 ar
  35   18   19 ar
  36   18   48 1
  37   19   20 ar
  38   19   22 1
  39   20   21 ar
  40   20   49 1
  41   21   50 1
  42   22   23 am
  43   22   24 2
  44   23   25 1
  45   23   51 1
  46   25   26 1
  47   25   52 1
  48   25   53 1
  49   26   27 1
  50   26   54 1
  51   26   55 1
  52   27   28 1
  53   27   29 2
  54   28   56 1
  55   30   31 1
  56   30   32 1
  57   30   57 1
  58   31   58 1
  59   31   59 1
  60   31   60 1
  61   32   61 1
  62   32   62 1
  63   32   63 1
  64   33   34 1
  65   34   35 1
  66   34   64 1
  67   34   65 1
  68   35   66 1
  69   35   67 1
  70   35   68 1

#	End of record

