#	Name: ASD08151292
#	Creating user name:	WinNT
#	Creation time:	15. 06. 2019 21:17

#	Modifying user name:	WinNT
#	Modification time:	15. 06. 2019 21:17

#	Program:	/corina/corina34_cracker 3.40 0067  02.08.2006

@<TRIPOS>MOLECULE
ASD08151292
  54   58    0    0    0
SMALL
NO_CHARGES


@<TRIPOS>ATOM
   1 C1             0.5559     2.3014     1.3857 C.ar    
   2 C2             0.3273     0.9535     1.6278 C.ar    
   3 C3             1.2324    -0.0003     1.2187 C.ar    
   4 C4             2.3948     0.3906     0.5517 C.ar    
   5 C5             2.6240     1.7631     0.3066 C.ar    
   6 C6             1.6957     2.7121     0.7292 C.ar    
   7 N7             3.3130    -0.5154     0.1318 N.2     
   8 C8             4.3942    -0.1515    -0.4882 C.2     
   9 N9             4.6963     1.1457    -0.7658 N.am    
  10 C10            3.8576     2.1422    -0.3976 C.2     
  11 C11            5.8857     1.4527    -1.4387 C.ar    
  12 C12            5.9054     1.5069    -2.8249 C.ar    
  13 C13            7.0845     1.8115    -3.4874 C.ar    
  14 C14            8.2415     2.0614    -2.7633 C.ar    
  15 C15            8.2199     2.0069    -1.3824 C.ar    
  16 C16            5.3640    -1.2203    -0.9219 C.3     
  17 N17            5.3922    -2.2896     0.0792 N.pl3   
  18 O18            4.1149     3.3070    -0.6398 O.2     
  19 C19            7.0458     1.7089    -0.7187 C.ar    
  20 C20            4.9212    -1.7946    -2.2691 C.3     
  21 C21            6.5127    -3.0922     0.2031 C.ar    
  22 C22            6.5572    -4.1223     1.1576 C.ar    
  23 C23            7.7221    -4.9044     1.2359 C.ar    
  24 N24            8.7312    -4.6443     0.4113 N.ar    
  25 C25            8.6447    -3.6685    -0.4681 C.ar    
  26 N26            7.5697    -2.9101    -0.5818 N.ar    
  27 N27            5.6981    -4.5910     2.0944 N.2     
  28 C28            6.2480    -5.5865     2.7271 C.2     
  29 N29            7.4975    -5.8186     2.2340 N.pl3   
  30 C30            1.9359     4.1770     0.4694 C.3     
  31 O31            7.1072     1.8650    -4.8451 O.3     
  32 C32            8.3565     2.1847    -5.4610 C.3     
  33 C33            8.1933     2.1975    -6.9238 C.1     
  34 N34            8.0674     2.2075    -8.0528 N.1     
  35 H35           -0.1680     3.0340     1.7108 H       
  36 H36           -0.5714     0.6492     2.1437 H       
  37 H37            1.0441    -1.0458     1.4133 H       
  38 H38            5.0040     1.3118    -3.3869 H       
  39 H39            9.1601     2.2984    -3.2793 H       
  40 H40            9.1217     2.2018    -0.8211 H       
  41 H41            6.3601    -0.7887    -1.0206 H       
  42 H42            4.6254    -2.4350     0.6552 H       
  43 H43            7.0315     1.6670     0.3604 H       
  44 H44            5.6057    -2.5883    -2.5684 H       
  45 H45            3.9132    -2.1992    -2.1779 H       
  46 H46            4.9293    -1.0053    -3.0208 H       
  47 H47            9.4830    -3.4835    -1.1235 H       
  48 H48            5.7830    -6.1461     3.5252 H       
  49 H49            8.1146    -6.5043     2.5337 H       
  50 H50            1.6095     4.4252    -0.5405 H       
  51 H51            1.3728     4.7707     1.1895 H       
  52 H52            2.9991     4.3945     0.5715 H       
  53 H53            8.6870     3.1671    -5.1236 H       
  54 H54            9.0997     1.4367    -5.1848 H       
@<TRIPOS>BOND
   1    1    2 ar
   2    1    6 ar
   3    1   35 1
   4    2    3 ar
   5    2   36 1
   6    3    4 ar
   7    3   37 1
   8    4    5 ar
   9    4    7 1
  10    5    6 ar
  11    5   10 1
  12    6   30 1
  13    7    8 2
  14    8    9 1
  15    8   16 1
  16    9   10 am
  17    9   11 1
  18   10   18 2
  19   11   12 ar
  20   11   19 ar
  21   12   13 ar
  22   12   38 1
  23   13   14 ar
  24   13   31 1
  25   14   15 ar
  26   14   39 1
  27   15   19 ar
  28   15   40 1
  29   16   17 1
  30   16   20 1
  31   16   41 1
  32   17   21 1
  33   17   42 1
  34   19   43 1
  35   20   44 1
  36   20   45 1
  37   20   46 1
  38   21   22 ar
  39   21   26 ar
  40   22   23 ar
  41   22   27 1
  42   23   24 ar
  43   23   29 1
  44   24   25 ar
  45   25   26 ar
  46   25   47 1
  47   27   28 2
  48   28   29 1
  49   28   48 1
  50   29   49 1
  51   30   50 1
  52   30   51 1
  53   30   52 1
  54   31   32 1
  55   32   33 1
  56   32   53 1
  57   32   54 1
  58   33   34 3

#	End of record

