#	Name: ASD01180243
#	Creating user name:	WinNT
#	Creation time:	15. 06. 2019 19:07

#	Modifying user name:	WinNT
#	Modification time:	15. 06. 2019 19:07

#	Program:	/corina/corina34_cracker 3.40 0067  02.08.2006

@<TRIPOS>MOLECULE
ASD01180243
  60   62    0    0    0
SMALL
NO_CHARGES


@<TRIPOS>ATOM
   1 C1            -0.4145     1.2858     0.9531 C.2     
   2 C2            -0.3291    -0.2133     0.8248 C.3     
   3 C3             1.1353    -0.6295     0.6728 C.3     
   4 O4             0.5926     1.9528     0.9258 O.2     
   5 O5            -1.6098     1.8805     1.0923 O.3     
   6 C6             2.4180    -2.6835     0.4028 C.2     
   7 C7             2.5018    -4.1542     0.2769 C.ar    
   8 C8             3.7427    -4.7753     0.1264 C.ar    
   9 C9             3.8139    -6.1481     0.0099 C.ar    
  10 C10            2.6587    -6.9090     0.0416 C.ar    
  11 C11            1.4255    -6.2996     0.1906 C.ar    
  12 C12            1.3408    -4.9281     0.3139 C.ar    
  13 O13            3.4312    -2.0125     0.3753 O.2     
  14 N14            1.2183    -2.0869     0.5481 N.am    
  15 C15            2.7441    -8.4080    -0.0872 C.3     
  16 C16            2.4094    -8.8164    -1.5232 C.3     
  17 C17            2.6245   -10.3222    -1.6885 C.3     
  18 C18            2.1793   -10.7503    -3.0883 C.3     
  19 N19            1.7903    -9.0323     0.8330 N.pl3   
  20 C20            2.1556    -9.2784     2.1507 C.ar    
  21 C21            3.3852    -8.8277     2.6287 C.ar    
  22 N22            1.3314    -9.9377     2.9554 N.ar    
  23 N23            3.7322    -9.0603     3.8787 N.ar    
  24 C24            2.9087    -9.7257     4.6848 C.ar    
  25 C25            1.6781   -10.1715     4.2083 C.ar    
  26 C26            3.2987    -9.9878     6.0915 C.ar    
  27 C27            4.5274    -9.5384     6.5721 C.ar    
  28 C28            4.8848    -9.7848     7.8821 C.ar    
  29 C29            4.0265   -10.4767     8.7176 C.ar    
  30 C30            2.8060   -10.9255     8.2459 C.ar    
  31 C31            2.4354   -10.6794     6.9394 C.ar    
  32 C32            4.4228   -10.7430    10.1469 C.3     
  33 F33            3.9861    -9.6886    10.9561 F       
  34 F34            3.8351   -11.9368    10.5791 F       
  35 F35            5.8150   -10.8509    10.2325 F       
  36 H36           -0.7485    -0.6788     1.7168 H       
  37 H37           -0.8913    -0.5355    -0.0516 H       
  38 H38            1.5546    -0.1641    -0.2192 H       
  39 H39            1.6975    -0.3073     1.5493 H       
  40 H40           -1.6141     2.8443     1.1709 H       
  41 H41            4.6450    -4.1824     0.1007 H       
  42 H42            4.7734    -6.6299    -0.1066 H       
  43 H43            0.5276    -6.8992     0.2146 H       
  44 H44            0.3780    -4.4540     0.4346 H       
  45 H45            0.4098    -2.6224     0.5700 H       
  46 H46            3.7539    -8.7369     0.1581 H       
  47 H47            1.3688    -8.5724    -1.7371 H       
  48 H48            3.0582    -8.2786    -2.2145 H       
  49 H49            3.6811   -10.5549    -1.5562 H       
  50 H50            2.0383   -10.8571    -0.9413 H       
  51 H51            2.3326   -11.8230    -3.2060 H       
  52 H52            1.1227   -10.5176    -3.2205 H       
  53 H53            2.7655   -10.2153    -3.8355 H       
  54 H54            0.9037    -9.2738     0.5223 H       
  55 H55            4.0538    -8.2880     1.9744 H       
  56 H56            1.0074   -10.7078     4.8632 H       
  57 H57            5.1986    -8.9987     5.9205 H       
  58 H58            5.8367    -9.4370     8.2556 H       
  59 H59            2.1400   -11.4655     8.9025 H       
  60 H60            1.4803   -11.0261     6.5736 H       
@<TRIPOS>BOND
   1    1    2 1
   2    1    4 2
   3    1    5 1
   4    2    3 1
   5    2   36 1
   6    2   37 1
   7    3   14 1
   8    3   38 1
   9    3   39 1
  10    5   40 1
  11    6    7 1
  12    6   13 2
  13    6   14 am
  14    7    8 ar
  15    7   12 ar
  16    8    9 ar
  17    8   41 1
  18    9   10 ar
  19    9   42 1
  20   10   11 ar
  21   10   15 1
  22   11   12 ar
  23   11   43 1
  24   12   44 1
  25   14   45 1
  26   15   16 1
  27   15   19 1
  28   15   46 1
  29   16   17 1
  30   16   47 1
  31   16   48 1
  32   17   18 1
  33   17   49 1
  34   17   50 1
  35   18   51 1
  36   18   52 1
  37   18   53 1
  38   19   20 1
  39   19   54 1
  40   20   21 ar
  41   20   22 ar
  42   21   23 ar
  43   21   55 1
  44   22   25 ar
  45   23   24 ar
  46   24   25 ar
  47   24   26 1
  48   25   56 1
  49   26   27 ar
  50   26   31 ar
  51   27   28 ar
  52   27   57 1
  53   28   29 ar
  54   28   58 1
  55   29   30 ar
  56   29   32 1
  57   30   31 ar
  58   30   59 1
  59   31   60 1
  60   32   33 1
  61   32   34 1
  62   32   35 1

#	End of record

