#	Name: ASD01028024
#	Creating user name:	WinNT
#	Creation time:	15. 06. 2019 18:56

#	Modifying user name:	WinNT
#	Modification time:	15. 06. 2019 18:56

#	Program:	/corina/corina34_cracker 3.40 0067  02.08.2006

@<TRIPOS>MOLECULE
ASD01028024
  54   55    0    0    0
SMALL
NO_CHARGES


@<TRIPOS>ATOM
   1 C1             0.0171     0.1832     1.2745 C.1     
   2 C2            -0.0074     1.5511     0.8514 C.ar    
   3 C3             1.1889     2.2386     0.6274 C.ar    
   4 C4             1.1608     3.5571     0.2197 C.ar    
   5 C5            -0.0580     4.2102     0.0296 C.ar    
   6 C6            -1.2502     3.5427     0.2479 C.ar    
   7 C7            -1.2384     2.2095     0.6531 C.ar    
   8 O8            -0.0738     5.5081    -0.3714 O.3     
   9 C9            -1.3545     6.1172    -0.5473 C.3     
  10 O10            2.3268     4.2234     0.0026 O.3     
  11 C11            3.5345     3.4655     0.0979 C.3     
  12 C12            4.6266     4.1354    -0.7406 C.3     
  13 C13            5.9332     3.3538    -0.5861 C.3     
  14 N14            6.3247     3.3272     0.8289 N.3     
  15 C15            5.3130     2.6464     1.6471 C.3     
  16 C16            3.9879     3.4069     1.5593 C.3     
  17 C17            7.6446     2.7049     0.9983 C.3     
  18 C18            8.1203     2.9131     2.4131 C.2     
  19 N19            9.3150     2.4248     2.8010 N.am    
  20 O20            7.4280     3.5202     3.2024 O.2     
  21 C21            9.7775     2.6272     4.1763 C.3     
  22 N22            0.0365    -0.9019     1.6101 N.1     
  23 N23           -2.4149     1.5467     0.8698 N.2     
  24 C24           -3.4255     1.7332     0.0675 C.2     
  25 N25           -4.6013     1.0707     0.2841 N.pl3   
  26 C26           -4.7260     0.1512     1.4177 C.3     
  27 C27           -5.7369     1.2803    -0.6175 C.3     
  28 H28            2.1349     1.7385     0.7736 H       
  29 H29           -2.1901     4.0536     0.0994 H       
  30 H30           -1.2243     7.1508    -0.8680 H       
  31 H31           -1.9162     5.5699    -1.3043 H       
  32 H32           -1.8998     6.0955     0.3962 H       
  33 H33            3.3604     2.4548    -0.2712 H       
  34 H34            4.3281     4.1417    -1.7889 H       
  35 H35            4.7724     5.1595    -0.3971 H       
  36 H36            5.7905     2.3337    -0.9427 H       
  37 H37            6.7164     3.8364    -1.1707 H       
  38 H38            5.1732     1.6296     1.2800 H       
  39 H39            5.6458     2.6153     2.6846 H       
  40 H40            4.1237     4.4196     1.9390 H       
  41 H41            3.2331     2.8927     2.1541 H       
  42 H42            7.5718     1.6369     0.7930 H       
  43 H43            8.3527     3.1605     0.3061 H       
  44 H44            9.8687     1.9393     2.1697 H       
  45 H45            9.8503     3.6952     4.3817 H       
  46 H46            9.0694     2.1716     4.8685 H       
  47 H47           10.7568     2.1655     4.3020 H       
  48 H48           -3.3336     2.4110    -0.7682 H       
  49 H49           -5.0839     0.6971     2.2907 H       
  50 H50           -5.4337    -0.6393     1.1682 H       
  51 H51           -3.7531    -0.2882     1.6378 H       
  52 H52           -5.4576     1.9922    -1.3942 H       
  53 H53           -6.0158     0.3320    -1.0770 H       
  54 H54           -6.5822     1.6725    -0.0520 H       
@<TRIPOS>BOND
   1    1    2 1
   2    1   22 3
   3    2    3 ar
   4    2    7 ar
   5    3    4 ar
   6    3   28 1
   7    4    5 ar
   8    4   10 1
   9    5    6 ar
  10    5    8 1
  11    6    7 ar
  12    6   29 1
  13    7   23 1
  14    8    9 1
  15    9   30 1
  16    9   31 1
  17    9   32 1
  18   10   11 1
  19   11   12 1
  20   11   16 1
  21   11   33 1
  22   12   13 1
  23   12   34 1
  24   12   35 1
  25   13   14 1
  26   13   36 1
  27   13   37 1
  28   14   15 1
  29   14   17 1
  30   15   16 1
  31   15   38 1
  32   15   39 1
  33   16   40 1
  34   16   41 1
  35   17   18 1
  36   17   42 1
  37   17   43 1
  38   18   19 am
  39   18   20 2
  40   19   21 1
  41   19   44 1
  42   21   45 1
  43   21   46 1
  44   21   47 1
  45   23   24 2
  46   24   25 1
  47   24   48 1
  48   25   26 1
  49   25   27 1
  50   26   49 1
  51   26   50 1
  52   26   51 1
  53   27   52 1
  54   27   53 1
  55   27   54 1

#	End of record

