#	Name: ASD01914931
#	Creating user name:	WinNT
#	Creation time:	15. 06. 2019 20:04

#	Modifying user name:	WinNT
#	Modification time:	15. 06. 2019 20:04

#	Program:	/corina/corina34_cracker 3.40 0067  02.08.2006

@<TRIPOS>MOLECULE
ASD01914931
  49   52    0    0    0
SMALL
NO_CHARGES


@<TRIPOS>ATOM
   1 C1            -0.0158     1.3120     0.0093 C.2     
   2 N2             0.0021    -0.0041     0.0020 N.2     
   3 C3             1.3183     1.7636    -0.0011 C.2     
   4 C4             2.1227     0.6785    -0.0146 C.2     
   5 N5             1.3391    -0.4213    -0.0130 N.pl3   
   6 C6            -1.2277     2.1688     0.0199 C.ar    
   7 C7            -1.1054     3.5534    -0.0788 C.ar    
   8 C8            -2.2345     4.3461    -0.0690 C.ar    
   9 C9            -3.4888     3.7673     0.0393 C.ar    
  10 C10           -3.6149     2.3913     0.1376 C.ar    
  11 C11           -2.4910     1.5906     0.1228 C.ar    
  12 C12            3.6296     0.6927    -0.0293 C.3     
  13 C13            4.1525     0.8152     1.4033 C.3     
  14 C14            1.8063    -1.8097    -0.0245 C.3     
  15 C15            1.9797    -2.2931     1.3923 C.2     
  16 N16            2.4045    -3.5502     1.6282 N.am    
  17 O17            1.7369    -1.5510     2.3203 O.2     
  18 C18            2.7061    -4.4711     0.5202 C.3     
  19 C19            2.1113    -5.8203     0.8708 C.2     
  20 C20            1.6155    -6.1455     2.0796 C.2     
  21 C21            1.5836    -5.1774     3.2542 C.3     
  22 C22            2.5879    -4.0449     3.0011 C.3     
  23 C23           -4.9817     1.7675     0.2551 C.3     
  24 F24           -4.5919     4.5472     0.0494 F       
  25 S25            1.9650    -7.1836    -0.2287 S.3     
  26 C26            1.2278    -8.1620     1.0313 C.2     
  27 C27            1.1335    -7.4505     2.1498 C.2     
  28 H28            1.6408     2.7944     0.0011 H       
  29 H29           -0.1280     4.0053    -0.1625 H       
  30 H30           -2.1406     5.4193    -0.1454 H       
  31 H31           -2.5901     0.5179     0.1995 H       
  32 H32            3.9973    -0.2327    -0.4724 H       
  33 H33            3.9792     1.5412    -0.6175 H       
  34 H34            3.7847     1.7407     1.8464 H       
  35 H35            3.8029    -0.0332     1.9915 H       
  36 H36            5.2424     0.8255     1.3926 H       
  37 H37            1.0740    -2.4353    -0.5348 H       
  38 H38            2.7609    -1.8675    -0.5475 H       
  39 H39            2.2601    -4.0987    -0.4020 H       
  40 H40            3.7855    -4.5630     0.3991 H       
  41 H41            0.5814    -4.7610     3.3558 H       
  42 H42            1.8540    -5.7053     4.1687 H       
  43 H43            3.6028    -4.4228     3.1246 H       
  44 H44            2.4099    -3.2346     3.7080 H       
  45 H45           -5.3682     1.5492    -0.7404 H       
  46 H46           -4.9111     0.8431     0.8282 H       
  47 H47           -5.6543     2.4591     0.7624 H       
  48 H48            0.9012    -9.1848     0.9145 H       
  49 H49            0.7102    -7.8583     3.0559 H       
@<TRIPOS>BOND
   1    1    2 2
   2    1    3 1
   3    1    6 1
   4    2    5 1
   5    3    4 2
   6    3   28 1
   7    4    5 1
   8    4   12 1
   9    5   14 1
  10    6    7 ar
  11    6   11 ar
  12    7    8 ar
  13    7   29 1
  14    8    9 ar
  15    8   30 1
  16    9   10 ar
  17    9   24 1
  18   10   11 ar
  19   10   23 1
  20   11   31 1
  21   12   13 1
  22   12   32 1
  23   12   33 1
  24   13   34 1
  25   13   35 1
  26   13   36 1
  27   14   15 1
  28   14   37 1
  29   14   38 1
  30   15   16 am
  31   15   17 2
  32   16   18 1
  33   16   22 1
  34   18   19 1
  35   18   39 1
  36   18   40 1
  37   19   20 2
  38   19   25 1
  39   20   21 1
  40   20   27 1
  41   21   22 1
  42   21   41 1
  43   21   42 1
  44   22   43 1
  45   22   44 1
  46   23   45 1
  47   23   46 1
  48   23   47 1
  49   25   26 1
  50   26   27 2
  51   26   48 1
  52   27   49 1

#	End of record

