#	Name: ASD02030265
#	Creating user name:	WinNT
#	Creation time:	15. 06. 2019 20:14

#	Modifying user name:	WinNT
#	Modification time:	15. 06. 2019 20:14

#	Program:	/corina/corina34_cracker 3.40 0067  02.08.2006

@<TRIPOS>MOLECULE
ASD02030265
  55   58    0    0    0
SMALL
NO_CHARGES


@<TRIPOS>ATOM
   1 N1            -0.4086     1.9555    -0.5804 N.am    
   2 C2            -0.3622     0.5337    -0.9493 C.3     
   3 C3            -0.7870    -0.3017     0.2648 C.3     
   4 N4            -2.0394     0.2507     0.7999 N.am    
   5 C5            -2.0858     1.6725     1.1688 C.3     
   6 C6            -1.6593     2.5066    -0.0400 C.3     
   7 C7             0.6780     2.7388    -0.7298 C.2     
   8 C8             1.9578     2.1498    -1.1776 C.2     
   9 N9             3.1177     2.7684    -1.2307 N.2     
  10 N10            2.1429     0.8847    -1.5974 N.2     
  11 C11            3.4090     0.7575    -1.9029 C.2     
  12 N12            4.0061     1.9440    -1.6683 N.pl3   
  13 C13            5.3633     2.2316    -1.8669 C.ar    
  14 O14            0.6057     3.9295    -0.4962 O.2     
  15 C15           -3.1259    -0.5325     0.9493 C.2     
  16 C16           -3.0467    -1.9776     0.6324 C.ar    
  17 O17           -4.1707    -0.0535     1.3439 O.2     
  18 C18            5.8539     3.4992    -1.5852 C.ar    
  19 C19            7.1933     3.7797    -1.7822 C.ar    
  20 C20            8.0436     2.7982    -2.2601 C.ar    
  21 C21            7.5566     1.5349    -2.5417 C.ar    
  22 C22            6.2209     1.2473    -2.3405 C.ar    
  23 Cl23           7.8086     5.3644    -1.4305 Cl      
  24 C24           -4.2107    -2.6863     0.3504 C.ar    
  25 C25           -3.5105     2.0504     1.5789 C.3     
  26 C26           -3.5635     3.5397     1.9254 C.3     
  27 N27           -1.8648    -2.5834     0.6148 N.ar    
  28 C28           -1.7514    -3.8681     0.3369 C.ar    
  29 C29           -2.8764    -4.6369     0.0503 C.ar    
  30 C30           -4.1243    -4.0390     0.0546 C.ar    
  31 O31           -0.5243    -4.4468     0.3299 O.3     
  32 C32            0.5912    -3.6060     0.6312 C.3     
  33 H33           -1.0454     0.3483    -1.7781 H       
  34 H34            0.6528     0.2645    -1.2415 H       
  35 H35           -0.9443    -1.3363    -0.0400 H       
  36 H36           -0.0113    -0.2568     1.0292 H       
  37 H37           -1.4025     1.8580     1.9976 H       
  38 H38           -1.5024     3.5409     0.2661 H       
  39 H39           -2.4333     2.4627    -0.8062 H       
  40 H40            3.8894    -0.1363    -2.2727 H       
  41 H41            5.1901     4.2655    -1.2129 H       
  42 H42            9.0895     3.0192    -2.4138 H       
  43 H43            8.2225     0.7711    -2.9153 H       
  44 H44            5.8416     0.2603    -2.5604 H       
  45 H45           -5.1696    -2.1894     0.3621 H       
  46 H46           -4.1927     1.8448     0.7540 H       
  47 H47           -3.8056     1.4642     2.4492 H       
  48 H48           -2.9394     3.7321     2.7981 H       
  49 H49           -3.1965     4.1225     1.0806 H       
  50 H50           -4.5924     3.8254     2.1443 H       
  51 H51           -2.7757    -5.6880    -0.1765 H       
  52 H52           -5.0121    -4.6137    -0.1645 H       
  53 H53            1.5092    -4.1923     0.5915 H       
  54 H54            0.6444    -2.7977    -0.0981 H       
  55 H55            0.4708    -3.1868     1.6302 H       
@<TRIPOS>BOND
   1    1    2 1
   2    1    7 am
   3    1    6 1
   4    2    3 1
   5    2   33 1
   6    2   34 1
   7    3    4 1
   8    3   35 1
   9    3   36 1
  10    4    5 1
  11    4   15 am
  12    5    6 1
  13    5   25 1
  14    5   37 1
  15    6   38 1
  16    6   39 1
  17    7    8 1
  18    7   14 2
  19    8    9 2
  20    8   10 1
  21    9   12 1
  22   10   11 2
  23   11   12 1
  24   11   40 1
  25   12   13 1
  26   13   18 ar
  27   13   22 ar
  28   15   16 1
  29   15   17 2
  30   16   27 ar
  31   16   24 ar
  32   18   19 ar
  33   18   41 1
  34   19   20 ar
  35   19   23 1
  36   20   21 ar
  37   20   42 1
  38   21   22 ar
  39   21   43 1
  40   22   44 1
  41   24   30 ar
  42   24   45 1
  43   25   26 1
  44   25   46 1
  45   25   47 1
  46   26   48 1
  47   26   49 1
  48   26   50 1
  49   27   28 ar
  50   28   29 ar
  51   28   31 1
  52   29   30 ar
  53   29   51 1
  54   30   52 1
  55   31   32 1
  56   32   53 1
  57   32   54 1
  58   32   55 1

#	End of record

