#	Name: ASD01881151
#	Creating user name:	WinNT
#	Creation time:	15. 06. 2019 19:42

#	Modifying user name:	WinNT
#	Modification time:	15. 06. 2019 19:42

#	Program:	/corina/corina34_cracker 3.40 0067  02.08.2006

@<TRIPOS>MOLECULE
ASD01881151
  57   60    0    0    0
SMALL
NO_CHARGES


@<TRIPOS>ATOM
   1 N1            -0.0193     1.3064     0.0293 N.ar    
   2 C2             0.0058    -0.0106     0.0033 C.ar    
   3 N3             1.1384    -0.6837    -0.0310 N.ar    
   4 C4             2.3058    -0.0560    -0.0408 C.ar    
   5 C5             2.3286     1.3248    -0.0145 C.ar    
   6 C6             1.1110     2.0071     0.0216 C.ar    
   7 C7             3.6350     2.0760    -0.0246 C.3     
   8 O8             4.0922     2.2185    -1.3709 O.3     
   9 C9             5.2643     2.8767    -1.5572 C.ar    
  10 C10            5.7669     3.0507    -2.8434 C.ar    
  11 C11            6.9520     3.7167    -3.0316 C.ar    
  12 C12            7.6610     4.2236    -1.9371 C.ar    
  13 C13            7.1519     4.0462    -0.6462 C.ar    
  14 C14            5.9580     3.3807    -0.4644 C.ar    
  15 C15            7.7549     4.0697    -4.2589 C.3     
  16 N16            8.9375     4.7944    -3.7800 N.am    
  17 C17            8.8789     4.8807    -2.4400 C.2     
  18 O18            9.7130     5.4245    -1.7422 O.2     
  19 C19           -1.2967    -0.7685     0.0137 C.3     
  20 C20            3.5926    -0.8394    -0.0796 C.3     
  21 Cl21           8.0185     4.6679     0.7236 Cl      
  22 N22            1.0807     3.3919     0.0484 N.3     
  23 C23            0.4941     3.9054    -1.1199 C.3     
  24 C24            0.6290     5.4417    -1.1913 C.3     
  25 C25           -0.3555     6.0689    -0.2378 C.3     
  26 O26            0.2023     6.2988     1.0722 O.3     
  27 C27            1.0371     5.2509     1.5982 C.3     
  28 C28            0.4761     3.8836     1.3019 C.3     
  29 C29            9.6595     6.7696    -5.0285 C.3     
  30 C30           10.0060     5.3354    -4.6237 C.3     
  31 H31            3.4903     3.0623     0.4164 H       
  32 H32            4.3758     1.5243     0.5542 H       
  33 H33            5.2248     2.6617    -3.6927 H       
  34 H34            5.5646     3.2440     0.5321 H       
  35 H35            8.0577     3.1627    -4.7822 H       
  36 H36            7.1676     4.7064    -4.9205 H       
  37 H37           -1.6304    -0.9314    -1.0111 H       
  38 H38           -1.1535    -1.7302     0.5064 H       
  39 H39           -2.0482    -0.1921     0.5533 H       
  40 H40            3.8837    -1.0087    -1.1163 H       
  41 H41            4.3753    -0.2779     0.4305 H       
  42 H42            3.4494    -1.7981     0.4189 H       
  43 H43            0.9835     3.4639    -1.9881 H       
  44 H44           -0.5629     3.6394    -1.1345 H       
  45 H45            1.6419     5.7319    -0.9122 H       
  46 H46            0.4188     5.7792    -2.2062 H       
  47 H47           -0.6866     7.0217    -0.6509 H       
  48 H48           -1.2193     5.4110    -0.1414 H       
  49 H49            2.0294     5.3311     1.1542 H       
  50 H50            1.1222     5.3732     2.6780 H       
  51 H51           -0.6058     3.9488     1.1859 H       
  52 H52            0.7196     3.2030     2.1178 H       
  53 H53            8.7212     6.7739    -5.5832 H       
  54 H54            9.5559     7.3845    -4.1345 H       
  55 H55           10.4545     7.1721    -5.6562 H       
  56 H56           10.9443     5.3311    -4.0690 H       
  57 H57           10.1096     4.7205    -5.5177 H       
@<TRIPOS>BOND
   1    1    2 ar
   2    1    6 ar
   3    2    3 ar
   4    2   19 1
   5    3    4 ar
   6    4    5 ar
   7    4   20 1
   8    5    6 ar
   9    5    7 1
  10    6   22 1
  11    7    8 1
  12    7   31 1
  13    7   32 1
  14    8    9 1
  15    9   10 ar
  16    9   14 ar
  17   10   11 ar
  18   10   33 1
  19   11   12 ar
  20   11   15 1
  21   12   13 ar
  22   12   17 1
  23   13   14 ar
  24   13   21 1
  25   14   34 1
  26   15   16 1
  27   15   35 1
  28   15   36 1
  29   16   17 am
  30   16   30 1
  31   17   18 2
  32   19   37 1
  33   19   38 1
  34   19   39 1
  35   20   40 1
  36   20   41 1
  37   20   42 1
  38   22   23 1
  39   22   28 1
  40   23   24 1
  41   23   43 1
  42   23   44 1
  43   24   25 1
  44   24   45 1
  45   24   46 1
  46   25   26 1
  47   25   47 1
  48   25   48 1
  49   26   27 1
  50   27   28 1
  51   27   49 1
  52   27   50 1
  53   28   51 1
  54   28   52 1
  55   29   30 1
  56   29   53 1
  57   29   54 1
  58   29   55 1
  59   30   56 1
  60   30   57 1

#	End of record

