#	Name: ASD01910579
#	Creating user name:	WinNT
#	Creation time:	15. 06. 2019 19:56

#	Modifying user name:	WinNT
#	Modification time:	15. 06. 2019 19:56

#	Program:	/corina/corina34_cracker 3.40 0067  02.08.2006

@<TRIPOS>MOLECULE
ASD01910579
  44   47    0    0    0
SMALL
NO_CHARGES


@<TRIPOS>ATOM
   1 O1             0.1343     0.6475    -0.2424 O.3     
   2 C2             0.2875    -0.6870    -0.2044 C.2     
   3 N3             1.5916    -0.9162    -0.1531 N.2     
   4 C4             2.1691     0.2942    -0.1625 C.2     
   5 N5             1.2218     1.1839    -0.2174 N.2     
   6 C6            -0.7813    -1.6942    -0.2168 C.2     
   7 C7            -2.1246    -1.4437    -0.2699 C.2     
   8 C8            -2.7790    -2.6816    -0.2626 C.2     
   9 C9            -1.8338    -3.6485    -0.2059 C.2     
  10 N10           -0.6103    -3.0580    -0.1830 N.pl3   
  11 C11            3.9743     1.4080     1.1257 C.3     
  12 C12            3.6493     0.5733    -0.1170 C.3     
  13 C13            4.0615     1.3493    -1.3700 C.3     
  14 C14            5.5702     1.6047    -1.3407 C.3     
  15 C15            5.9170     2.4511    -0.1118 C.3     
  16 N16            5.3950     1.7807     1.0868 N.am    
  17 C17            6.2042     1.5121     2.1307 C.2     
  18 C18            5.6407     0.9567     3.3783 C.ar    
  19 O19            7.3977     1.7269     2.0456 O.2     
  20 C20            6.3101    -0.0530     4.0702 C.ar    
  21 N21            5.8090    -0.5490     5.1825 N.ar    
  22 C22            4.6657    -0.1174     5.6853 C.ar    
  23 C23            3.9408     0.8845     5.0561 C.ar    
  24 C24            4.4282     1.4398     3.8887 C.ar    
  25 F25            4.1952    -0.6604     6.8294 F       
  26 C26           -4.2696    -2.8984    -0.3096 C.3     
  27 F27           -4.6847    -2.9977    -1.6419 F       
  28 F28           -4.5906    -4.0795     0.3681 F       
  29 F29           -4.9173    -1.8194     0.3015 F       
  30 H30           -2.5936    -0.4717    -0.3098 H       
  31 H31           -2.0207    -4.7121    -0.1865 H       
  32 H32            0.2412    -3.5210    -0.1431 H       
  33 H33            3.3604     2.3087     1.1317 H       
  34 H34            3.7749     0.8213     2.0224 H       
  35 H35            4.1965    -0.3685    -0.0759 H       
  36 H36            3.8088     0.7680    -2.2567 H       
  37 H37            3.5325     2.3019    -1.3976 H       
  38 H38            6.0993     0.6532    -1.2881 H       
  39 H39            5.8667     2.1369    -2.2445 H       
  40 H40            6.9993     2.5527    -0.0316 H       
  41 H41            5.4614     3.4368    -0.2067 H       
  42 H42            7.2474    -0.4315     3.6901 H       
  43 H43            3.0076     1.2292     5.4764 H       
  44 H44            3.8848     2.2213     3.3784 H       
@<TRIPOS>BOND
   1    1    2 1
   2    1    5 1
   3    2    3 2
   4    2    6 1
   5    3    4 1
   6    4    5 2
   7    4   12 1
   8    6    7 2
   9    6   10 1
  10    7    8 1
  11    7   30 1
  12    8    9 2
  13    8   26 1
  14    9   10 1
  15    9   31 1
  16   10   32 1
  17   11   12 1
  18   11   16 1
  19   11   33 1
  20   11   34 1
  21   12   13 1
  22   12   35 1
  23   13   14 1
  24   13   36 1
  25   13   37 1
  26   14   15 1
  27   14   38 1
  28   14   39 1
  29   15   16 1
  30   15   40 1
  31   15   41 1
  32   16   17 am
  33   17   18 1
  34   17   19 2
  35   18   20 ar
  36   18   24 ar
  37   20   21 ar
  38   20   42 1
  39   21   22 ar
  40   22   23 ar
  41   22   25 1
  42   23   24 ar
  43   23   43 1
  44   24   44 1
  45   26   27 1
  46   26   28 1
  47   26   29 1

#	End of record

