#	Name: ASD01028368
#	Creating user name:	WinNT
#	Creation time:	15. 06. 2019 18:57

#	Modifying user name:	WinNT
#	Modification time:	15. 06. 2019 18:57

#	Program:	/corina/corina34_cracker 3.40 0067  02.08.2006

@<TRIPOS>MOLECULE
ASD01028368
  46   50    0    0    0
SMALL
NO_CHARGES


@<TRIPOS>ATOM
   1 C1            -0.0171     1.4105     0.0098 C.ar    
   2 C2             0.0021    -0.0041     0.0020 C.ar    
   3 C3             1.2172     2.1062     0.0017 C.ar    
   4 C4             2.3840     1.3600    -0.0135 C.ar    
   5 C5             2.3156    -0.0268    -0.0203 C.ar    
   6 N6             1.1664    -0.6615    -0.0123 N.ar    
   7 N7             1.2559     3.4929     0.0084 N.pl3   
   8 C8             2.5445     4.1898    -0.0001 C.3     
   9 C9             2.3106     5.6785     0.0096 C.2     
  10 N10            2.1971     6.4604     1.1051 N.pl3   
  11 C11            1.9933     7.7374     0.6405 C.2     
  12 N12            1.9932     7.6687    -0.6809 N.2     
  13 N13            2.1864     6.4485    -1.0429 N.2     
  14 N14            2.2466     6.2142     2.4787 N.2     
  15 C15            2.0988     7.2003     3.3393 C.2     
  16 C16            1.8873     8.5239     2.8911 C.2     
  17 C17            1.8356     8.7920     1.5607 C.2     
  18 C18            2.1542     6.9198     4.7883 C.2     
  19 S19            1.9687     8.1179     6.0626 S.3     
  20 C20           -1.2223    -0.6977     0.0101 C.ar    
  21 C21           -2.3811     0.0331     0.0251 C.ar    
  22 C22           -2.3227     1.4307     0.0320 C.ar    
  23 N23           -1.1775     2.0678     0.0299 N.ar    
  24 O24           -3.5841    -0.5981     0.0329 O.3     
  25 C25           -4.7501     0.2280     0.0486 C.3     
  26 C26            2.3491     5.7043     5.3394 C.2     
  27 C27            2.3619     5.6918     6.7178 C.2     
  28 C28            2.1774     6.8827     7.2969 C.2     
  29 C29            2.5662     4.4284     7.5135 C.3     
  30 H30            3.3437     1.8552    -0.0203 H       
  31 H31            3.2319    -0.5984    -0.0326 H       
  32 H32            0.4298     4.0012     0.0188 H       
  33 H33            3.1169     3.9062     0.8831 H       
  34 H34            3.1002     3.9152    -0.8968 H       
  35 H35            1.7670     9.3231     3.6075 H       
  36 H36            1.6746     9.8016     1.2126 H       
  37 H37           -1.2479    -1.7774     0.0042 H       
  38 H38           -3.2420     1.9974     0.0439 H       
  39 H39           -5.6406    -0.4006     0.0534 H       
  40 H40           -4.7411     0.8522     0.9420 H       
  41 H41           -4.7579     0.8623    -0.8378 H       
  42 H42            2.4840     4.8111     4.7475 H       
  43 H43            2.1585     7.0593     8.3622 H       
  44 H44            3.6307     4.2829     7.6973 H       
  45 H45            2.0409     4.5094     8.4651 H       
  46 H46            2.1748     3.5791     6.9536 H       
@<TRIPOS>BOND
   1    1    2 ar
   2    1    3 ar
   3    1   23 ar
   4    2   20 ar
   5    2    6 ar
   6    3    4 ar
   7    3    7 1
   8    4    5 ar
   9    4   30 1
  10    5    6 ar
  11    5   31 1
  12    7    8 1
  13    7   32 1
  14    8    9 1
  15    8   33 1
  16    8   34 1
  17    9   10 1
  18    9   13 2
  19   10   11 1
  20   10   14 1
  21   11   12 2
  22   11   17 1
  23   12   13 1
  24   14   15 2
  25   15   16 1
  26   15   18 1
  27   16   17 2
  28   16   35 1
  29   17   36 1
  30   18   26 2
  31   18   19 1
  32   19   28 1
  33   20   21 ar
  34   20   37 1
  35   21   22 ar
  36   21   24 1
  37   22   23 ar
  38   22   38 1
  39   24   25 1
  40   25   39 1
  41   25   40 1
  42   25   41 1
  43   26   27 1
  44   26   42 1
  45   27   28 2
  46   27   29 1
  47   28   43 1
  48   29   44 1
  49   29   45 1
  50   29   46 1

#	End of record

