#	Name: ASD03091351
#	Creating user name:	WinNT
#	Creation time:	15. 06. 2019 20:30

#	Modifying user name:	WinNT
#	Modification time:	15. 06. 2019 20:30

#	Program:	/corina/corina34_cracker 3.40 0067  02.08.2006

@<TRIPOS>MOLECULE
ASD03091351
  48   50    0    0    0
SMALL
NO_CHARGES


@<TRIPOS>ATOM
   1 C1            -0.0167     1.3827     0.0096 C.ar    
   2 C2             0.0021    -0.0041     0.0020 C.ar    
   3 C3             1.2057    -0.6801    -0.0131 C.ar    
   4 C4             2.4027     0.0195    -0.0208 C.ar    
   5 C5             2.4020     1.3984    -0.0134 C.ar    
   6 C6             1.1905     2.0941     0.0019 C.ar    
   7 O7            -1.1992     2.0479     0.0189 O.3     
   8 C8            -2.3889     1.2563     0.0202 C.3     
   9 C9             1.1823     3.5694     0.0095 C.2     
  10 N10            2.3457     4.2498     0.0020 N.am    
  11 O11            0.1260     4.1714     0.0224 O.2     
  12 C12            2.3376     5.7147     0.0095 C.3     
  13 C13            3.3251     6.4219     0.9399 C.3     
  14 C14            3.5581     6.4309    -0.5722 C.3     
  15 C15            4.6937     5.5624    -1.1172 C.3     
  16 C16            3.3174     7.7460    -1.3163 C.3     
  17 C17            2.8760     7.7090     1.5824 C.ar    
  18 C18            3.6497     8.2977     2.5651 C.ar    
  19 C19            3.2378     9.4783     3.1545 C.ar    
  20 C20            2.0523    10.0705     2.7609 C.ar    
  21 C21            1.2790     9.4822     1.7775 C.ar    
  22 C22            1.6931     8.3039     1.1851 C.ar    
  23 S23            1.5267    11.5747     3.5129 S.o2    
  24 O24            0.1169    11.6359     3.3453 O.2     
  25 O25            2.1615    11.6316     4.7830 O.2     
  26 N26            2.1584    12.8169     2.6184 N.am    
  27 Cl27           3.9085    -0.8442    -0.0392 Cl      
  28 H28           -0.9263    -0.5559     0.0083 H       
  29 H29            1.2149    -1.7600    -0.0186 H       
  30 H30            3.3365     1.9397    -0.0190 H       
  31 H31           -2.4109     0.6320    -0.8731 H       
  32 H32           -2.4025     0.6224     0.9068 H       
  33 H33           -3.2607     1.9105     0.0279 H       
  34 H34            3.1884     3.7695    -0.0083 H       
  35 H35            1.3630     6.1802    -0.1376 H       
  36 H36            3.9807     5.7972     1.5465 H       
  37 H37            4.7429     5.6668    -2.2010 H       
  38 H38            5.6386     5.8822    -0.6780 H       
  39 H39            4.5085     4.5193    -0.8607 H       
  40 H40            2.2804     8.0543    -1.1830 H       
  41 H41            3.9792     8.5151    -0.9181 H       
  42 H42            3.5211     7.6053    -2.3778 H       
  43 H43            4.5759     7.8351     2.8726 H       
  44 H44            3.8420     9.9379     3.9227 H       
  45 H45            0.3527     9.9447     1.4703 H       
  46 H46            1.0908     7.8463     0.4143 H       
  47 H47            2.7050    12.6252     1.8404 H       
  48 H48            1.9817    13.7362     2.8724 H       
@<TRIPOS>BOND
   1    1    2 ar
   2    1    6 ar
   3    1    7 1
   4    2    3 ar
   5    2   28 1
   6    3    4 ar
   7    3   29 1
   8    4    5 ar
   9    4   27 1
  10    5    6 ar
  11    5   30 1
  12    6    9 1
  13    7    8 1
  14    8   31 1
  15    8   32 1
  16    8   33 1
  17    9   10 am
  18    9   11 2
  19   10   12 1
  20   10   34 1
  21   12   13 1
  22   12   14 1
  23   12   35 1
  24   13   14 1
  25   13   17 1
  26   13   36 1
  27   14   15 1
  28   14   16 1
  29   15   37 1
  30   15   38 1
  31   15   39 1
  32   16   40 1
  33   16   41 1
  34   16   42 1
  35   17   18 ar
  36   17   22 ar
  37   18   19 ar
  38   18   43 1
  39   19   20 ar
  40   19   44 1
  41   20   21 ar
  42   20   23 1
  43   21   22 ar
  44   21   45 1
  45   22   46 1
  46   23   24 2
  47   23   25 2
  48   23   26 am
  49   26   47 1
  50   26   48 1

#	End of record

