#	Name: ASD06170027
#	Creating user name:	WinNT
#	Creation time:	15. 06. 2019 21:05

#	Modifying user name:	WinNT
#	Modification time:	15. 06. 2019 21:05

#	Program:	/corina/corina34_cracker 3.40 0067  02.08.2006

@<TRIPOS>MOLECULE
ASD06170027
  65   70    0    0    0
SMALL
NO_CHARGES


@<TRIPOS>ATOM
   1 N1             0.6837     0.2619     1.2417 N.pl3   
   2 N2             0.1907    -0.3823     0.1033 N.am    
   3 C3             1.1600    -0.4195    -0.8329 C.2     
   4 C4             2.3386     0.2401    -0.2548 C.2     
   5 C5             1.9770     0.6388     1.0315 C.2     
   6 C6             3.6386     0.4393    -0.9024 C.2     
   7 O7             4.5054     1.0840    -0.3417 O.2     
   8 N8             3.8740    -0.0916    -2.1187 N.am    
   9 C9             2.8429     1.3459     1.9968 C.ar    
  10 C10            2.4596     2.5907     2.5012 C.ar    
  11 N11            3.9890     0.7965     2.3935 N.ar    
  12 N12            3.2375     3.2180     3.3643 N.ar    
  13 C13            4.3763     2.6695     3.7502 C.ar    
  14 C14            4.7583     1.4308     3.2552 C.ar    
  15 C15           -1.0988    -0.9042    -0.0408 C.ar    
  16 C16           -1.7677    -0.7822    -1.2519 C.ar    
  17 C17           -3.0408    -1.2991    -1.3911 C.ar    
  18 C18           -3.6498    -1.9371    -0.3261 C.ar    
  19 C19           -2.9867    -2.0602     0.8811 C.ar    
  20 C20           -1.7112    -1.5506     1.0251 C.ar    
  21 O21            1.0751    -0.9073    -1.9447 O.2     
  22 C22           -0.0758     0.5011     2.4714 C.3     
  23 C23            5.1590    -0.0326    -2.6715 C.ar    
  24 C24            6.0019     1.0261    -2.3586 C.ar    
  25 C25            7.2702     1.0835    -2.9049 C.ar    
  26 C26            7.7010     0.0818    -3.7667 C.ar    
  27 C27            6.8586    -0.9743    -4.0787 C.ar    
  28 C28            5.5930    -1.0353    -3.5281 C.ar    
  29 O29            8.9489     0.1378    -4.3044 O.3     
  30 N30           12.1424    -0.6551    -1.8182 N.ar    
  31 C31           10.9135    -0.7987    -1.3804 C.ar    
  32 C32            9.8135    -0.5410    -2.1883 C.ar    
  33 C33           10.0036    -0.1206    -3.4932 C.ar    
  34 C34           11.3312     0.0307    -3.9540 C.ar    
  35 C35           11.6029     0.4532    -5.2635 C.ar    
  36 C36           12.8921     0.5898    -5.6774 C.ar    
  37 C37           13.9542     0.3131    -4.8118 C.ar    
  38 C38           13.7202    -0.1039    -3.5210 C.ar    
  39 C39           12.3996    -0.2521    -3.0683 C.ar    
  40 O40           15.2320     0.4568    -5.2496 O.3     
  41 C41           15.4103     0.8921    -6.5990 C.3     
  42 F42            8.0907     2.1130    -2.6015 F       
  43 H43            3.1531    -0.5144    -2.6111 H       
  44 H44            1.5292     3.0393     2.1858 H       
  45 H45            5.0102     3.1856     4.4559 H       
  46 H46            5.6880     0.9853     3.5771 H       
  47 H47           -1.2928    -0.2834    -2.0839 H       
  48 H48           -3.5614    -1.2046    -2.3326 H       
  49 H49           -4.6458    -2.3398    -0.4373 H       
  50 H50           -3.4651    -2.5590     1.7110 H       
  51 H51           -1.1920    -1.6509     1.9669 H       
  52 H52           -1.1079     0.1809     2.3290 H       
  53 H53            0.3704    -0.0640     3.2897 H       
  54 H54           -0.0549     1.5644     2.7103 H       
  55 H55            5.6663     1.8043    -1.6891 H       
  56 H56            7.1936    -1.7520    -4.7490 H       
  57 H57            4.9393    -1.8608    -3.7679 H       
  58 H58           10.7531    -1.1263    -0.3639 H       
  59 H59            8.8139    -0.6689    -1.8001 H       
  60 H60           10.7908     0.6694    -5.9419 H       
  61 H61           13.0970     0.9154    -6.6866 H       
  62 H62           14.5478    -0.3152    -2.8600 H       
  63 H63           14.9477     0.1744    -7.2764 H       
  64 H64           14.9441     1.8685    -6.7304 H       
  65 H65           16.4753     0.9654    -6.8194 H       
@<TRIPOS>BOND
   1    1    2 1
   2    1    5 1
   3    1   22 1
   4    2    3 am
   5    2   15 1
   6    3    4 1
   7    3   21 2
   8    4    5 2
   9    4    6 1
  10    5    9 1
  11    6    7 2
  12    6    8 am
  13    8   23 1
  14    8   43 1
  15    9   10 ar
  16    9   11 ar
  17   10   12 ar
  18   10   44 1
  19   11   14 ar
  20   12   13 ar
  21   13   14 ar
  22   13   45 1
  23   14   46 1
  24   15   16 ar
  25   15   20 ar
  26   16   17 ar
  27   16   47 1
  28   17   18 ar
  29   17   48 1
  30   18   19 ar
  31   18   49 1
  32   19   20 ar
  33   19   50 1
  34   20   51 1
  35   22   52 1
  36   22   53 1
  37   22   54 1
  38   23   24 ar
  39   23   28 ar
  40   24   25 ar
  41   24   55 1
  42   25   26 ar
  43   25   42 1
  44   26   27 ar
  45   26   29 1
  46   27   28 ar
  47   27   56 1
  48   28   57 1
  49   29   33 1
  50   30   31 ar
  51   30   39 ar
  52   31   32 ar
  53   31   58 1
  54   32   33 ar
  55   32   59 1
  56   33   34 ar
  57   34   35 ar
  58   34   39 ar
  59   35   36 ar
  60   35   60 1
  61   36   37 ar
  62   36   61 1
  63   37   38 ar
  64   37   40 1
  65   38   39 ar
  66   38   62 1
  67   40   41 1
  68   41   63 1
  69   41   64 1
  70   41   65 1

#	End of record

