#	Name: ASD01880981
#	Creating user name:	WinNT
#	Creation time:	15. 06. 2019 19:41

#	Modifying user name:	WinNT
#	Modification time:	15. 06. 2019 19:41

#	Program:	/corina/corina34_cracker 3.40 0067  02.08.2006

@<TRIPOS>MOLECULE
ASD01880981
  38   40    0    0    0
SMALL
NO_CHARGES


@<TRIPOS>ATOM
   1 N1            -0.0160     1.3131     0.0156 N.ar    
   2 C2             0.0023    -0.0045     0.0045 C.ar    
   3 N3             1.1324    -0.6827    -0.0158 N.ar    
   4 C4             2.2990    -0.0560    -0.0262 C.ar    
   5 C5             2.3193     1.3320    -0.0155 C.ar    
   6 C6             1.1109     2.0079     0.0062 C.ar    
   7 C7             3.6247     2.0849    -0.0264 C.3     
   8 O8             4.0810     2.2279    -1.3730 O.3     
   9 C9             5.2522     2.8875    -1.5599 C.ar    
  10 C10            5.7538     3.0621    -2.8465 C.ar    
  11 C11            6.9380     3.7296    -3.0354 C.ar    
  12 C12            7.6469     4.2375    -1.9413 C.ar    
  13 C13            7.1388     4.0596    -0.6501 C.ar    
  14 C14            5.9458     3.3926    -0.4676 C.ar    
  15 C15            7.7398     4.0834    -4.2631 C.3     
  16 N16            8.9217     4.8098    -3.7850 N.am    
  17 C17            8.8637     4.8961    -2.4450 C.2     
  18 O18            9.6974     5.4411    -1.7476 O.2     
  19 Cl19           3.7823    -0.9578    -0.0524 Cl      
  20 Cl20           8.0053     4.6826     0.7191 Cl      
  21 C21            1.0790     3.5145     0.0185 C.3     
  22 F22            1.8131     4.0054    -1.0665 F       
  23 F23           -0.2458     3.9537    -0.0779 F       
  24 F24            1.6400     3.9831     1.2114 F       
  25 C25            9.6405     6.7857    -5.0341 C.3     
  26 C26            9.9891     5.3520    -4.6293 C.3     
  27 H27           -0.9337    -0.5432     0.0127 H       
  28 H28            3.4790     3.0710     0.4145 H       
  29 H29            4.3665     1.5343     0.5521 H       
  30 H30            5.2119     2.6722    -3.6954 H       
  31 H31            5.5531     3.2555     0.5292 H       
  32 H32            8.0435     3.1768    -4.7865 H       
  33 H33            7.1513     4.7193    -4.9245 H       
  34 H34            8.7019     6.7888    -5.5883 H       
  35 H35            9.5366     7.4006    -4.1401 H       
  36 H36           10.4346     7.1892    -5.6623 H       
  37 H37           10.9277     5.3490    -4.0751 H       
  38 H38           10.0930     4.7371    -5.5233 H       
@<TRIPOS>BOND
   1    1    2 ar
   2    1    6 ar
   3    2    3 ar
   4    2   27 1
   5    3    4 ar
   6    4    5 ar
   7    4   19 1
   8    5    6 ar
   9    5    7 1
  10    6   21 1
  11    7    8 1
  12    7   28 1
  13    7   29 1
  14    8    9 1
  15    9   10 ar
  16    9   14 ar
  17   10   11 ar
  18   10   30 1
  19   11   12 ar
  20   11   15 1
  21   12   13 ar
  22   12   17 1
  23   13   14 ar
  24   13   20 1
  25   14   31 1
  26   15   16 1
  27   15   32 1
  28   15   33 1
  29   16   17 am
  30   16   26 1
  31   17   18 2
  32   21   22 1
  33   21   23 1
  34   21   24 1
  35   25   26 1
  36   25   34 1
  37   25   35 1
  38   25   36 1
  39   26   37 1
  40   26   38 1

#	End of record

