#	Name: ASD02039127
#	Creating user name:	WinNT
#	Creation time:	15. 06. 2019 20:17

#	Modifying user name:	WinNT
#	Modification time:	15. 06. 2019 20:17

#	Program:	/corina/corina34_cracker 3.40 0067  02.08.2006

@<TRIPOS>MOLECULE
ASD02039127
  33   35    0    0    0
SMALL
NO_CHARGES


@<TRIPOS>ATOM
   1 N1             0.0234     1.2845    -0.3604 N.2     
   2 N2             0.0398    -0.0019    -0.3615 N.2     
   3 C3             1.2243     1.7332    -0.0874 C.2     
   4 O4             2.0203     0.6621     0.0885 O.3     
   5 C5             1.2410    -0.4221    -0.0917 C.2     
   6 N6             1.6034     3.0607     0.0028 N.pl3   
   7 C7             0.6404     4.0705    -0.0881 C.ar    
   8 C8             1.6810    -1.8604     0.0024 C.3     
   9 C9             2.1408    -2.3346    -1.3521 C.ar    
  10 C10           -0.6623     3.8292     0.3297 C.ar    
  11 C11            0.9860     5.3181    -0.5909 C.ar    
  12 C12            0.0333     6.3144    -0.6794 C.ar    
  13 C13           -1.2648     6.0708    -0.2678 C.ar    
  14 Cl14          -2.4595     7.3252    -0.3810 Cl      
  15 C15            3.4665    -2.1944    -1.7198 C.ar    
  16 C16            1.2389    -2.9141    -2.2231 C.ar    
  17 C17            1.6629    -3.3505    -3.4701 C.ar    
  18 C18            2.9920    -3.2036    -3.8387 C.ar    
  19 C19            3.8913    -2.6281    -2.9618 C.ar    
  20 C20           -1.6117     4.8292     0.2391 C.ar    
  21 Cl21          -3.2417     4.5270     0.7542 Cl      
  22 O22            0.7775    -3.9214    -4.3287 O.3     
  23 H23            2.5371     3.2910     0.1291 H       
  24 H24            2.5021    -1.9433     0.7144 H       
  25 H25            0.8455    -2.4747     0.3381 H       
  26 H26           -0.9328     2.8610     0.7245 H       
  27 H27            1.9993     5.5094    -0.9122 H       
  28 H28            0.3022     7.2847    -1.0700 H       
  29 H29            4.1710    -1.7451    -1.0356 H       
  30 H30            0.2046    -3.0277    -1.9337 H       
  31 H31            3.3245    -3.5428    -4.8087 H       
  32 H32            4.9263    -2.5134    -3.2484 H       
  33 H33            0.3388    -3.2920    -4.9173 H       
@<TRIPOS>BOND
   1    1    2 1
   2    1    3 2
   3    2    5 2
   4    3    4 1
   5    3    6 1
   6    4    5 1
   7    5    8 1
   8    6    7 1
   9    6   23 1
  10    7   10 ar
  11    7   11 ar
  12    8    9 1
  13    8   24 1
  14    8   25 1
  15    9   15 ar
  16    9   16 ar
  17   10   20 ar
  18   10   26 1
  19   11   12 ar
  20   11   27 1
  21   12   13 ar
  22   12   28 1
  23   13   20 ar
  24   13   14 1
  25   15   19 ar
  26   15   29 1
  27   16   17 ar
  28   16   30 1
  29   17   18 ar
  30   17   22 1
  31   18   19 ar
  32   18   31 1
  33   19   32 1
  34   20   21 1
  35   22   33 1

#	End of record

