#	Name: ASD01814463
#	Creating user name:	WinNT
#	Creation time:	15. 06. 2019 19:32

#	Modifying user name:	WinNT
#	Modification time:	15. 06. 2019 19:32

#	Program:	/corina/corina34_cracker 3.40 0067  02.08.2006

@<TRIPOS>MOLECULE
ASD01814463
  50   55    0    0    0
SMALL
NO_CHARGES


@<TRIPOS>ATOM
   1 C1            -0.0167     1.3819     0.0096 C.ar    
   2 C2             0.0021    -0.0041     0.0020 C.ar    
   3 C3             1.1970    -0.6936    -0.0131 C.ar    
   4 C4             2.3990     0.0034    -0.0209 C.ar    
   5 C5             2.3751     1.4118    -0.0131 C.ar    
   6 C6             1.1661     2.0940     0.0022 C.ar    
   7 N7             3.6102    -0.6577    -0.0356 N.pl3   
   8 N8             4.7455    -0.0611    -0.0428 N.2     
   9 C9             4.8827     1.2395    -0.0372 C.2     
  10 C10            3.6768     2.1037    -0.0219 C.2     
  11 C11            6.0121     2.1720    -0.0430 C.2     
  12 N12            5.4770     3.4117    -0.0317 N.am    
  13 N13            4.0818     3.3389    -0.0193 N.2     
  14 C14            3.5985    -2.1226    -0.0428 C.3     
  15 C15            3.5812    -2.6178    -1.4660 C.ar    
  16 C16            4.7714    -2.8575    -2.1389 C.ar    
  17 C17            4.7125    -3.3120    -3.4443 C.ar    
  18 C18            3.4663    -3.5127    -4.0360 C.ar    
  19 N19            2.3512    -3.2710    -3.3577 N.ar    
  20 C20            2.3799    -2.8431    -2.1116 C.ar    
  21 O21            7.1978     1.8862    -0.0553 O.2     
  22 C22            6.2158     4.6019    -0.0326 C.ar    
  23 C23            3.3859    -3.9992    -5.4335 C.2     
  24 C24            6.0132     5.5563     0.9540 C.ar    
  25 N25            6.7062     6.6785     0.9577 N.ar    
  26 C26            7.6120     6.9388     0.0333 C.ar    
  27 C27            7.8697     6.0339    -0.9843 C.ar    
  28 C28            7.1686     4.8411    -1.0211 C.ar    
  29 C29            2.2158    -4.2157    -6.0697 C.2     
  30 S30            2.5822    -4.7834    -7.6967 S.3     
  31 C31            4.2567    -4.6771    -7.3711 C.2     
  32 N32            4.4572    -4.2550    -6.1715 N.2     
  33 C33            4.9902     5.3083     2.0325 C.3     
  34 F34            8.2965     8.1027     0.0796 F       
  35 H35           -0.9605     1.9069     0.0170 H       
  36 H36           -0.9294    -0.5505     0.0084 H       
  37 H37            1.1981    -1.7735    -0.0186 H       
  38 H38            1.1510     3.1739     0.0077 H       
  39 H39            4.4904    -2.4956     0.4608 H       
  40 H40            2.7106    -2.4815     0.4776 H       
  41 H41            5.7224    -2.6924    -1.6542 H       
  42 H42            5.6192    -3.5083    -3.9973 H       
  43 H43            1.4523    -2.6573    -1.5907 H       
  44 H44            8.6122     6.2547    -1.7369 H       
  45 H45            7.3490     4.1174    -1.8021 H       
  46 H46            1.2297    -4.0676    -5.6550 H       
  47 H47            5.0374    -4.9258    -8.0746 H       
  48 H48            5.4640     4.8013     2.8731 H       
  49 H49            4.5778     6.2599     2.3678 H       
  50 H50            4.1890     4.6843     1.6366 H       
@<TRIPOS>BOND
   1    1    2 ar
   2    1    6 ar
   3    1   35 1
   4    2    3 ar
   5    2   36 1
   6    3    4 ar
   7    3   37 1
   8    4    5 ar
   9    4    7 1
  10    5    6 ar
  11    5   10 1
  12    6   38 1
  13    7    8 1
  14    7   14 1
  15    8    9 2
  16    9   10 1
  17    9   11 1
  18   10   13 2
  19   11   12 am
  20   11   21 2
  21   12   13 1
  22   12   22 1
  23   14   15 1
  24   14   39 1
  25   14   40 1
  26   15   16 ar
  27   15   20 ar
  28   16   17 ar
  29   16   41 1
  30   17   18 ar
  31   17   42 1
  32   18   19 ar
  33   18   23 1
  34   19   20 ar
  35   20   43 1
  36   22   24 ar
  37   22   28 ar
  38   23   29 2
  39   23   32 1
  40   24   25 ar
  41   24   33 1
  42   25   26 ar
  43   26   27 ar
  44   26   34 1
  45   27   28 ar
  46   27   44 1
  47   28   45 1
  48   29   30 1
  49   29   46 1
  50   30   31 1
  51   31   32 2
  52   31   47 1
  53   33   48 1
  54   33   49 1
  55   33   50 1

#	End of record

