#	Name: ASD01870282
#	Creating user name:	WinNT
#	Creation time:	15. 06. 2019 19:38

#	Modifying user name:	WinNT
#	Modification time:	15. 06. 2019 19:38

#	Program:	/corina/corina34_cracker 3.40 0067  02.08.2006

@<TRIPOS>MOLECULE
ASD01870282
  38   40    0    0    0
SMALL
NO_CHARGES


@<TRIPOS>ATOM
   1 C1             0.2035     1.5129     1.6638 C.ar    
   2 N2             0.2357     0.2088     1.8640 N.ar    
   3 C3             1.3473    -0.4912     1.7382 C.ar    
   4 C4             2.5331     0.1199     1.3890 C.ar    
   5 C5             2.5450     1.5010     1.1673 C.ar    
   6 C6             1.3439     2.2034     1.3113 C.ar    
   7 C7             3.7957     2.2008     0.7906 C.2     
   8 N8             4.9484     1.5622     0.6415 N.2     
   9 C9             3.8397     3.5280     0.5706 C.2     
  10 S10            5.4949     3.9619     0.1497 S.3     
  11 C11            5.9783     2.2761     0.3097 C.2     
  12 N12            7.2623     1.7873     0.1096 N.am    
  13 C13            7.5353     0.3572     0.2723 C.3     
  14 C14            8.2575     2.6285    -0.2345 C.2     
  15 C15            9.6408     2.1275    -0.3479 C.ar    
  16 O16            8.0155     3.8001    -0.4514 O.2     
  17 C17            9.8808     0.8314    -0.8124 C.ar    
  18 C18           10.7148     2.9499     0.0033 C.ar    
  19 C19           12.0042     2.4788    -0.1044 C.ar    
  20 C20           12.2383     1.1872    -0.5618 C.ar    
  21 C21           11.1731     0.3679    -0.9173 C.ar    
  22 O22           13.5106     0.7268    -0.6670 O.3     
  23 C23           13.6795    -0.6096    -1.1439 C.3     
  24 H24           -0.7295     2.0458     1.7733 H       
  25 H25            1.3282    -1.5571     1.9115 H       
  26 H26            3.4393    -0.4591     1.2886 H       
  27 H27            1.3103     3.2705     1.1487 H       
  28 H28            3.0046     4.2093     0.6401 H       
  29 H29            7.4188    -0.1465    -0.6873 H       
  30 H30            8.5549     0.2207     0.6329 H       
  31 H31            6.8354    -0.0667     0.9925 H       
  32 H32            9.0537     0.1941    -1.0884 H       
  33 H33           10.5338     3.9536     0.3585 H       
  34 H34           12.8347     3.1137     0.1665 H       
  35 H35           11.3594    -0.6336    -1.2758 H       
  36 H36           13.1721    -1.3020    -0.4721 H       
  37 H37           13.2535    -0.6953    -2.1435 H       
  38 H38           14.7419    -0.8510    -1.1798 H       
@<TRIPOS>BOND
   1    1    2 ar
   2    1    6 ar
   3    1   24 1
   4    2    3 ar
   5    3    4 ar
   6    3   25 1
   7    4    5 ar
   8    4   26 1
   9    5    6 ar
  10    5    7 1
  11    6   27 1
  12    7    9 2
  13    7    8 1
  14    8   11 2
  15    9   10 1
  16    9   28 1
  17   10   11 1
  18   11   12 1
  19   12   13 1
  20   12   14 am
  21   13   29 1
  22   13   30 1
  23   13   31 1
  24   14   15 1
  25   14   16 2
  26   15   18 ar
  27   15   17 ar
  28   17   21 ar
  29   17   32 1
  30   18   19 ar
  31   18   33 1
  32   19   20 ar
  33   19   34 1
  34   20   21 ar
  35   20   22 1
  36   21   35 1
  37   22   23 1
  38   23   36 1
  39   23   37 1
  40   23   38 1

#	End of record

