#	Name: ASD00131003
#	Creating user name:	WinNT
#	Creation time:	15. 06. 2019 18:31

#	Modifying user name:	WinNT
#	Modification time:	15. 06. 2019 18:31

#	Program:	/corina/corina34_cracker 3.40 0067  02.08.2006

@<TRIPOS>MOLECULE
ASD00131003
  67   70    0    0    0
SMALL
NO_CHARGES


@<TRIPOS>ATOM
   1 N1             1.4521     1.3619    -1.2614 N.am    
   2 C2             1.4636     0.0182    -1.2671 C.2     
   3 C3             1.2732    -0.7393    -0.0309 C.2     
   4 C4             1.0779    -0.0462     1.1661 C.2     
   5 C5             1.0730     1.4198     1.1270 C.ar    
   6 C6             0.8812     2.1629     2.2976 C.ar    
   7 C7             0.8790     3.5276     2.2433 C.ar    
   8 C8             1.0659     4.1846     1.0349 C.ar    
   9 C9             1.2566     3.4732    -0.1295 C.ar    
  10 C10            1.2622     2.0810    -0.0993 C.ar    
  11 C11            1.2864    -2.2073    -0.0477 C.2     
  12 O12            2.3411    -2.8050    -0.1518 O.2     
  13 N13            0.1304    -2.8928     0.0524 N.am    
  14 O14            1.6346    -0.5768    -2.3162 O.2     
  15 C15            1.6525     2.0822    -2.5213 C.3     
  16 C16            0.2987     2.3218    -3.1927 C.3     
  17 C17           -0.5442     3.2558    -2.3220 C.3     
  18 C18            0.5162     2.9620    -4.5651 C.3     
  19 O19            0.8981    -0.7083     2.3279 O.3     
  20 N20           -1.1881    -6.7627    -0.9664 N.3     
  21 C21           -1.1094    -6.4497     0.4662 C.3     
  22 C22           -1.0811    -4.9316     0.6572 C.3     
  23 C23            0.1304    -4.3520    -0.0783 C.3     
  24 C24            0.0490    -4.7332    -1.5590 C.3     
  25 C25           -0.0120    -6.2571    -1.6858 C.3     
  26 C26           -1.3565    -8.2061    -1.1815 C.3     
  27 C27           -2.1399   -10.2300    -4.3606 C.3     
  28 C28           -1.7358    -9.9777    -2.9057 C.3     
  29 C29           -1.6829    -8.4678    -2.6532 C.3     
  30 C30           -3.0458    -7.8564    -2.9923 C.3     
  31 C31           -3.3993    -8.1907    -4.4439 C.3     
  32 O32           -3.4010    -9.6092    -4.6178 O.3     
  33 H33            0.7348     1.6584     3.2413 H       
  34 H34            0.7305     4.0997     3.1471 H       
  35 H35            1.0615     5.2643     1.0072 H       
  36 H36            1.4007     3.9945    -1.0643 H       
  37 H37           -0.7017    -2.4201     0.2108 H       
  38 H38            2.1327     3.0398    -2.3199 H       
  39 H39            2.2858     1.4899    -3.1817 H       
  40 H40           -0.2203     1.3709    -3.3135 H       
  41 H41           -0.0252     4.2067    -2.2012 H       
  42 H42           -1.5087     3.4265    -2.8003 H       
  43 H43           -0.6992     2.7997    -1.3442 H       
  44 H44            1.1167     2.2966    -5.1854 H       
  45 H45           -0.4482     3.1327    -5.0434 H       
  46 H46            1.0352     3.9129    -4.4443 H       
  47 H47            0.8414    -1.6686     2.2287 H       
  48 H48           -1.9788    -6.8639     0.9767 H       
  49 H49           -0.2016    -6.8853     0.8837 H       
  50 H50           -1.9949    -4.4968     0.2523 H       
  51 H51           -1.0069    -4.6998     1.7197 H       
  52 H52            1.0461    -4.7563     0.3531 H       
  53 H53           -0.8470    -4.2953    -1.9988 H       
  54 H54            0.9307    -4.3597    -2.0799 H       
  55 H55            0.8906    -6.6936    -1.2582 H       
  56 H56           -0.0844    -6.5313    -2.7383 H       
  57 H57           -0.4342    -8.7229    -0.9164 H       
  58 H58           -2.1712    -8.5738    -0.5577 H       
  59 H59           -1.3854    -9.8097    -5.0255 H       
  60 H60           -2.2208   -11.3030    -4.5345 H       
  61 H61           -2.4689   -10.4329    -2.2398 H       
  62 H62           -0.7538   -10.4127    -2.7197 H       
  63 H63           -0.9140    -8.0195    -3.2825 H       
  64 H64           -3.8054    -8.2688    -2.3282 H       
  65 H65           -3.0007    -6.7745    -2.8683 H       
  66 H66           -4.3875    -7.7947    -4.6778 H       
  67 H67           -2.6613    -7.7437    -5.1100 H       
@<TRIPOS>BOND
   1    1    2 am
   2    1   10 1
   3    1   15 1
   4    2    3 1
   5    2   14 2
   6    3    4 2
   7    3   11 1
   8    4    5 1
   9    4   19 1
  10    5    6 ar
  11    5   10 ar
  12    6    7 ar
  13    6   33 1
  14    7    8 ar
  15    7   34 1
  16    8    9 ar
  17    8   35 1
  18    9   10 ar
  19    9   36 1
  20   11   12 2
  21   11   13 am
  22   13   23 1
  23   13   37 1
  24   15   16 1
  25   15   38 1
  26   15   39 1
  27   16   17 1
  28   16   18 1
  29   16   40 1
  30   17   41 1
  31   17   42 1
  32   17   43 1
  33   18   44 1
  34   18   45 1
  35   18   46 1
  36   19   47 1
  37   20   21 1
  38   20   25 1
  39   20   26 1
  40   21   22 1
  41   21   48 1
  42   21   49 1
  43   22   23 1
  44   22   50 1
  45   22   51 1
  46   23   24 1
  47   23   52 1
  48   24   25 1
  49   24   53 1
  50   24   54 1
  51   25   55 1
  52   25   56 1
  53   26   29 1
  54   26   57 1
  55   26   58 1
  56   27   28 1
  57   27   32 1
  58   27   59 1
  59   27   60 1
  60   28   29 1
  61   28   61 1
  62   28   62 1
  63   29   30 1
  64   29   63 1
  65   30   31 1
  66   30   64 1
  67   30   65 1
  68   31   32 1
  69   31   66 1
  70   31   67 1

#	End of record

