#	Name: ASD01881373
#	Creating user name:	WinNT
#	Creation time:	15. 06. 2019 19:42

#	Modifying user name:	WinNT
#	Modification time:	15. 06. 2019 19:42

#	Program:	/corina/corina34_cracker 3.40 0067  02.08.2006

@<TRIPOS>MOLECULE
ASD01881373
  58   61    0    0    0
SMALL
NO_CHARGES


@<TRIPOS>ATOM
   1 C1            -0.0082     1.3901     0.0227 C.3     
   2 O2             0.0105    -0.0402    -0.0279 O.3     
   3 C3             1.4454     1.8808     0.0156 C.3     
   4 N4             2.0674     1.4824    -1.2524 N.3     
   5 C5             1.8771     0.1282    -1.5293 C.ar    
   6 C6             0.8618    -0.6091    -0.9258 C.ar    
   7 C7             3.4951     1.8278    -1.2698 C.3     
   8 C8             3.6600     3.3278    -1.0173 C.3     
   9 C9             4.2230     1.0435    -0.1763 C.3     
  10 C10            5.7100     1.4032    -0.1944 C.3     
  11 C11            5.8749     2.9032     0.0581 C.3     
  12 C12            5.1470     3.6876    -1.0354 C.3     
  13 C13            2.7342    -0.4903    -2.4374 C.ar    
  14 C14            2.5814    -1.8243    -2.7434 C.ar    
  15 C15            1.5629    -2.5650    -2.1430 C.ar    
  16 C16            0.7036    -1.9493    -1.2326 C.ar    
  17 C17            1.3945    -3.9986    -2.4710 C.2     
  18 C18            2.3764    -4.9199    -2.1339 C.2     
  19 C19            0.2280    -4.4537    -3.1278 C.2     
  20 C20            0.0910    -5.7642    -3.4193 C.2     
  21 N21            1.0603    -6.6593    -3.0906 N.am    
  22 C22            2.1836    -6.2699    -2.4600 C.2     
  23 C23            0.8756    -8.0741    -3.4229 C.3     
  24 C24            1.4452    -8.3493    -4.8160 C.3     
  25 C25            1.2523    -9.8269    -5.1631 C.3     
  26 C26            1.8219   -10.1021    -6.5562 C.3     
  27 Cl27           3.8224    -4.4081    -1.3210 Cl      
  28 O28            3.0393    -7.0934    -2.1757 O.2     
  29 O29            7.2637     3.2392     0.0412 O.3     
  30 H30           -0.5344     1.7832    -0.8473 H       
  31 H31           -0.5046     1.7205     0.9351 H       
  32 H32            1.4656     2.9667     0.1078 H       
  33 H33            1.9878     1.4301     0.8467 H       
  34 H34            3.9184     1.5743    -2.2418 H       
  35 H35            3.1415     3.8866    -1.7963 H       
  36 H36            3.2367     3.5813    -0.0453 H       
  37 H37            3.7997     1.2969     0.7957 H       
  38 H38            4.1055    -0.0252    -0.3562 H       
  39 H39            6.2285     0.8444     0.5846 H       
  40 H40            6.1333     1.1497    -1.1664 H       
  41 H41            5.4516     3.1567     1.0301 H       
  42 H42            5.5703     3.4341    -2.0073 H       
  43 H43            5.2645     4.7562    -0.8555 H       
  44 H44            3.5233     0.0803    -2.9046 H       
  45 H45            3.2495    -2.2968    -3.4483 H       
  46 H46           -0.0860    -2.5196    -0.7661 H       
  47 H47           -0.5508    -3.7549    -3.3950 H       
  48 H48           -0.8019    -6.1072    -3.9207 H       
  49 H49            1.3955    -8.6905    -2.6895 H       
  50 H50           -0.1875    -8.3143    -3.4111 H       
  51 H51            0.9253    -7.7329    -5.5494 H       
  52 H52            2.5083    -8.1091    -4.8278 H       
  53 H53            1.7722   -10.4433    -4.4297 H       
  54 H54            0.1892   -10.0671    -5.1513 H       
  55 H55            1.3020    -9.4857    -7.2896 H       
  56 H56            2.8850    -9.8619    -6.5680 H       
  57 H57            1.6845   -11.1547    -6.8035 H       
  58 H58            7.4435     4.1768     0.1949 H       
@<TRIPOS>BOND
   1    1    2 1
   2    1    3 1
   3    1   30 1
   4    1   31 1
   5    2    6 1
   6    3    4 1
   7    3   32 1
   8    3   33 1
   9    4    5 1
  10    4    7 1
  11    5    6 ar
  12    5   13 ar
  13    6   16 ar
  14    7    8 1
  15    7    9 1
  16    7   34 1
  17    8   12 1
  18    8   35 1
  19    8   36 1
  20    9   10 1
  21    9   37 1
  22    9   38 1
  23   10   11 1
  24   10   39 1
  25   10   40 1
  26   11   12 1
  27   11   29 1
  28   11   41 1
  29   12   42 1
  30   12   43 1
  31   13   14 ar
  32   13   44 1
  33   14   15 ar
  34   14   45 1
  35   15   16 ar
  36   15   17 1
  37   16   46 1
  38   17   18 2
  39   17   19 1
  40   18   27 1
  41   18   22 1
  42   19   20 2
  43   19   47 1
  44   20   21 1
  45   20   48 1
  46   21   22 am
  47   21   23 1
  48   22   28 2
  49   23   24 1
  50   23   49 1
  51   23   50 1
  52   24   25 1
  53   24   51 1
  54   24   52 1
  55   25   26 1
  56   25   53 1
  57   25   54 1
  58   26   55 1
  59   26   56 1
  60   26   57 1
  61   29   58 1

#	End of record

