#	Name: ASD01911721
#	Creating user name:	WinNT
#	Creation time:	15. 06. 2019 19:58

#	Modifying user name:	WinNT
#	Modification time:	15. 06. 2019 19:58

#	Program:	/corina/corina34_cracker 3.40 0067  02.08.2006

@<TRIPOS>MOLECULE
ASD01911721
  38   40    0    0    0
SMALL
NO_CHARGES


@<TRIPOS>ATOM
   1 N1             0.0318     1.1533    -0.6880 N.am    
   2 C2             0.0021    -0.0041     0.0020 C.2     
   3 C3            -1.2503    -0.7541     0.1205 C.2     
   4 C4            -1.3856    -2.1132     0.0310 C.2     
   5 S5            -2.8466    -0.0656     0.4110 S.3     
   6 C6            -3.5477    -1.6809     0.3771 C.2     
   7 N7            -2.6009    -2.5624     0.1690 N.2     
   8 C8            -4.9361    -1.9840     0.5537 C.1     
   9 C9            -6.0743    -2.2325     0.6986 C.1     
  10 C10           -7.4627    -2.5357     0.8752 C.ar    
  11 C11           -7.9048    -3.8616     0.8280 C.ar    
  12 C12           -9.2426    -4.1458     0.9988 C.ar    
  13 C13          -10.1519    -3.1239     1.2167 C.ar    
  14 C14           -9.7286    -1.8094     1.2658 C.ar    
  15 C15           -8.3870    -1.5047     1.1025 C.ar    
  16 O16            1.0161    -0.4260     0.5268 O.2     
  17 C17           -1.1494     1.6118    -1.4319 C.3     
  18 C18           -1.4875     3.0388    -0.9892 C.3     
  19 C19           -0.2533     3.9275    -1.1597 C.3     
  20 C20            0.8807     3.4035    -0.2757 C.3     
  21 C21            1.2439     1.9834    -0.7057 C.3     
  22 O22           -7.9701    -0.2136     1.1510 O.3     
  23 H23           -0.5440    -2.7675    -0.1423 H       
  24 H24           -7.1993    -4.6614     0.6575 H       
  25 H25           -9.5834    -5.1699     0.9622 H       
  26 H26          -11.1983    -3.3560     1.3488 H       
  27 H27          -10.4442    -1.0185     1.4358 H       
  28 H28           -0.9347     1.6019    -2.5005 H       
  29 H29           -1.9925     0.9541    -1.2204 H       
  30 H30           -2.3021     3.4262    -1.6012 H       
  31 H31           -1.7897     3.0329     0.0581 H       
  32 H32            0.0631     3.9134    -2.2026 H       
  33 H33           -0.4983     4.9490    -0.8685 H       
  34 H34            1.7518     4.0504    -0.3798 H       
  35 H35            0.5562     3.3941     0.7649 H       
  36 H36            1.9812     1.5704    -0.0172 H       
  37 H37            1.6536     2.0009    -1.7156 H       
  38 H38           -7.7268     0.0882     2.0369 H       
@<TRIPOS>BOND
   1    1    2 am
   2    1   17 1
   3    1   21 1
   4    2    3 1
   5    2   16 2
   6    3    4 2
   7    3    5 1
   8    4    7 1
   9    4   23 1
  10    5    6 1
  11    6    7 2
  12    6    8 1
  13    8    9 3
  14    9   10 1
  15   10   11 ar
  16   10   15 ar
  17   11   12 ar
  18   11   24 1
  19   12   13 ar
  20   12   25 1
  21   13   14 ar
  22   13   26 1
  23   14   15 ar
  24   14   27 1
  25   15   22 1
  26   17   18 1
  27   17   28 1
  28   17   29 1
  29   18   19 1
  30   18   30 1
  31   18   31 1
  32   19   20 1
  33   19   32 1
  34   19   33 1
  35   20   21 1
  36   20   34 1
  37   20   35 1
  38   21   36 1
  39   21   37 1
  40   22   38 1

#	End of record

