#	Name: ASD01410416
#	Creating user name:	WinNT
#	Creation time:	15. 06. 2019 19:17

#	Modifying user name:	WinNT
#	Modification time:	15. 06. 2019 19:17

#	Program:	/corina/corina34_cracker 3.40 0067  02.08.2006

@<TRIPOS>MOLECULE
ASD01410416
  42   44    0    0    0
SMALL
NO_CHARGES


@<TRIPOS>ATOM
   1 S1             0.0614     1.7569    -0.6225 S.3     
   2 C2             0.1464     0.0036    -0.8659 C.2     
   3 N3             1.4246    -0.3520    -0.6942 N.am    
   4 C4             2.3246     0.5717    -0.4005 C.2     
   5 C5             1.7957     1.9384    -0.2918 C.2     
   6 S6            -1.1585    -1.0369    -1.2473 S.2     
   7 O7             3.5009     0.3097    -0.2325 O.2     
   8 N8             1.8072    -1.6934    -0.8243 N.am    
   9 S9             2.2788    -2.2807    -2.2991 S.o2    
  10 O10            2.7427    -3.6048    -2.0740 O.2     
  11 O11            1.2329    -1.9676    -3.2087 O.2     
  12 C12            3.6801    -1.3427    -2.8102 C.ar    
  13 C13            4.9529    -1.7589    -2.4672 C.ar    
  14 C14            6.0522    -1.0230    -2.8681 C.ar    
  15 C15            5.8788     0.1289    -3.6124 C.ar    
  16 C16            4.6061     0.5446    -3.9562 C.ar    
  17 C17            3.5070    -0.1937    -3.5589 C.ar    
  18 C18            2.4760     3.0761    -0.0054 C.2     
  19 C19            1.8029     4.3793    -0.1029 C.ar    
  20 C20            2.3152     5.4883     0.5790 C.ar    
  21 C21            1.6778     6.7072     0.4824 C.ar    
  22 C22            0.5343     6.8352    -0.2866 C.ar    
  23 C23            0.0206     5.7427    -0.9641 C.ar    
  24 C24            0.6493     4.5187    -0.8830 C.ar    
  25 C25            2.2276     7.9030     1.2165 C.3     
  26 C26           -0.1558     8.1712    -0.3865 C.3     
  27 H27            1.7959    -2.2782    -0.0504 H       
  28 H28            5.0884    -2.6589    -1.8857 H       
  29 H29            7.0466    -1.3478    -2.5995 H       
  30 H30            6.7377     0.7042    -3.9250 H       
  31 H31            4.4706     1.4447    -4.5374 H       
  32 H32            2.5128     0.1291    -3.8306 H       
  33 H33            3.5123     3.0246     0.2942 H       
  34 H34            3.2073     5.3899     1.1798 H       
  35 H35           -0.8724     5.8509    -1.5618 H       
  36 H36            0.2475     3.6674    -1.4124 H       
  37 H37            2.9365     8.4279     0.5762 H       
  38 H38            1.4105     8.5743     1.4807 H       
  39 H39            2.7333     7.5716     2.1234 H       
  40 H40            0.2540     8.7298    -1.2280 H       
  41 H41           -1.2243     8.0178    -0.5380 H       
  42 H42            0.0037     8.7323     0.5343 H       
@<TRIPOS>BOND
   1    1    2 1
   2    1    5 1
   3    2    3 am
   4    2    6 2
   5    3    4 am
   6    3    8 1
   7    4    5 1
   8    4    7 2
   9    5   18 2
  10    8    9 am
  11    8   27 1
  12    9   10 2
  13    9   11 2
  14    9   12 1
  15   12   13 ar
  16   12   17 ar
  17   13   14 ar
  18   13   28 1
  19   14   15 ar
  20   14   29 1
  21   15   16 ar
  22   15   30 1
  23   16   17 ar
  24   16   31 1
  25   17   32 1
  26   18   19 1
  27   18   33 1
  28   19   20 ar
  29   19   24 ar
  30   20   21 ar
  31   20   34 1
  32   21   22 ar
  33   21   25 1
  34   22   23 ar
  35   22   26 1
  36   23   24 ar
  37   23   35 1
  38   24   36 1
  39   25   37 1
  40   25   38 1
  41   25   39 1
  42   26   40 1
  43   26   41 1
  44   26   42 1

#	End of record

