#	Name: ASD02408174
#	Creating user name:	WinNT
#	Creation time:	15. 06. 2019 20:21

#	Modifying user name:	WinNT
#	Modification time:	15. 06. 2019 20:21

#	Program:	/corina/corina34_cracker 3.40 0067  02.08.2006

@<TRIPOS>MOLECULE
ASD02408174
  57   60    0    0    0
SMALL
NO_CHARGES


@<TRIPOS>ATOM
   1 C1            -0.0167     1.3781     0.0096 C.ar    
   2 C2             0.0021    -0.0041     0.0020 C.ar    
   3 C3             1.2084    -0.6789    -0.0132 C.ar    
   4 C4             2.3960     0.0285    -0.0212 C.ar    
   5 C5             2.3773     1.4107    -0.0145 C.ar    
   6 C6             1.1709     2.0855     0.0021 C.ar    
   7 C7             3.7112    -0.7071    -0.0368 C.3     
   8 O8             4.1142    -0.9338    -1.3889 O.3     
   9 C9             5.2883    -1.5907    -1.5809 C.ar    
  10 C10            6.0370    -2.0085    -0.4904 C.ar    
  11 C11            5.7374    -1.8496    -2.8679 C.ar    
  12 C12            6.9308    -2.5179    -3.0604 C.ar    
  13 C13            7.6779    -2.9287    -1.9716 C.ar    
  14 C14            7.2301    -2.6766    -0.6883 C.ar    
  15 C15            4.9235    -1.4026    -4.0548 C.3     
  16 C16            5.2574     0.0301    -4.3820 C.2     
  17 N17            4.6337     0.6238    -5.4180 N.am    
  18 N18            6.1374     0.6561    -3.6488 N.2     
  19 C19            6.4730     1.9294    -3.8924 C.2     
  20 C20            5.8646     2.6079    -4.9614 C.2     
  21 C21            4.9081     1.9057    -5.7388 C.2     
  22 N22            7.4016     2.5652    -3.1054 N.pl3   
  23 C23            8.0309     1.8503    -1.9922 C.3     
  24 O24            4.3499     2.4464    -6.6779 O.2     
  25 C25            9.3910     2.4803    -1.6854 C.3     
  26 C26           10.0482     1.7337    -0.5228 C.3     
  27 C27            9.1525     1.8263     0.7142 C.3     
  28 C28            7.7924     1.1963     0.4073 C.3     
  29 C29            7.1352     1.9429    -0.7553 C.3     
  30 C30            6.1963     3.9697    -5.2545 C.1     
  31 N31            6.4594     5.0501    -5.4870 N.1     
  32 H32           -0.9592     1.9054     0.0170 H       
  33 H33           -0.9258    -0.5567     0.0083 H       
  34 H34            1.2231    -1.7588    -0.0184 H       
  35 H35            3.3051     1.9634    -0.0205 H       
  36 H36            1.1563     3.1654     0.0069 H       
  37 H37            4.4676    -0.1100     0.4726 H       
  38 H38            3.5986    -1.6635     0.4740 H       
  39 H39            5.6877    -1.8114     0.5124 H       
  40 H40            7.2806    -2.7200    -4.0620 H       
  41 H41            8.6108    -3.4511    -2.1242 H       
  42 H42            7.8153    -2.9985     0.1604 H       
  43 H43            5.1544    -2.0344    -4.9125 H       
  44 H44            3.8624    -1.4836    -3.8190 H       
  45 H45            3.9829     0.1262    -5.9374 H       
  46 H46            7.6409     3.4876    -3.2866 H       
  47 H47            8.1682     0.8037    -2.2639 H       
  48 H48           10.0291     2.4143    -2.5666 H       
  49 H49            9.2537     3.5269    -1.4137 H       
  50 H50           10.1855     0.6870    -0.7944 H       
  51 H51           11.0172     2.1824    -0.3042 H       
  52 H52            9.6207     1.2944     1.5424 H       
  53 H53            9.0152     2.8729     0.9858 H       
  54 H54            7.9297     0.1497     0.1357 H       
  55 H55            7.1543     1.2623     1.2885 H       
  56 H56            6.9979     2.9896    -0.4836 H       
  57 H57            6.1662     1.4941    -0.9739 H       
@<TRIPOS>BOND
   1    1    2 ar
   2    1    6 ar
   3    1   32 1
   4    2    3 ar
   5    2   33 1
   6    3    4 ar
   7    3   34 1
   8    4    5 ar
   9    4    7 1
  10    5    6 ar
  11    5   35 1
  12    6   36 1
  13    7    8 1
  14    7   37 1
  15    7   38 1
  16    8    9 1
  17    9   10 ar
  18    9   11 ar
  19   10   14 ar
  20   10   39 1
  21   11   12 ar
  22   11   15 1
  23   12   13 ar
  24   12   40 1
  25   13   14 ar
  26   13   41 1
  27   14   42 1
  28   15   16 1
  29   15   43 1
  30   15   44 1
  31   16   17 1
  32   16   18 2
  33   17   21 am
  34   17   45 1
  35   18   19 1
  36   19   20 2
  37   19   22 1
  38   20   21 1
  39   20   30 1
  40   21   24 2
  41   22   23 1
  42   22   46 1
  43   23   25 1
  44   23   29 1
  45   23   47 1
  46   25   26 1
  47   25   48 1
  48   25   49 1
  49   26   27 1
  50   26   50 1
  51   26   51 1
  52   27   28 1
  53   27   52 1
  54   27   53 1
  55   28   29 1
  56   28   54 1
  57   28   55 1
  58   29   56 1
  59   29   57 1
  60   30   31 3

#	End of record

