#	Name: ASD01882645
#	Creating user name:	WinNT
#	Creation time:	15. 06. 2019 19:44

#	Modifying user name:	WinNT
#	Modification time:	15. 06. 2019 19:44

#	Program:	/corina/corina34_cracker 3.40 0067  02.08.2006

@<TRIPOS>MOLECULE
ASD01882645
  50   54    0    0    0
SMALL
NO_CHARGES


@<TRIPOS>ATOM
   1 C1            -0.0415     1.3887    -0.2817 C.ar    
   2 C2            -0.0265     0.0025    -0.3327 C.ar    
   3 C3             1.1620    -0.6672    -0.5489 C.ar    
   4 C4             2.3384     0.0445    -0.7143 C.ar    
   5 C5             2.3248     1.4278    -0.6636 C.ar    
   6 C6             1.1372     2.1003    -0.4480 C.ar    
   7 O7            -1.2115     2.0493    -0.0745 O.3     
   8 F8             3.5003    -0.6118    -0.9248 F       
   9 N9            -2.8331    -3.1476     0.0141 N.pl3   
  10 C10           -2.8958    -2.3692    -1.2305 C.3     
  11 C11           -1.5767    -1.6097    -1.4039 C.3     
  12 C12           -1.3063    -0.7724    -0.1518 C.3     
  13 C13           -1.1765    -1.6948     1.0625 C.3     
  14 C14           -2.4910    -2.4552     1.2640 C.3     
  15 C15           -4.4208    -6.3939     0.6787 C.2     
  16 C16           -4.1731    -5.0101     0.6989 C.2     
  17 C17           -3.0987    -4.5149     0.0100 C.2     
  18 C18           -2.2620    -5.3989    -0.7049 C.2     
  19 C19           -2.5179    -6.7219    -0.7102 C.2     
  20 N20           -3.5863    -7.2259    -0.0272 N.pl3   
  21 N21           -5.1400    -8.3885     0.9083 N.2     
  22 N22           -5.3481    -7.1607     1.2320 N.2     
  23 C23           -4.0827    -8.4845     0.1458 C.2     
  24 C24           -3.5145    -9.7541    -0.4341 C.3     
  25 C25           -2.4960   -10.3487     0.5406 C.3     
  26 C26           -1.8893   -11.7079     0.1863 C.3     
  27 C27           -1.0415   -10.4391     0.0744 C.3     
  28 Cl28          -5.2170    -3.9430     1.5850 Cl      
  29 H29            1.1740    -1.7464    -0.5886 H       
  30 H30            3.2430     1.9816    -0.7924 H       
  31 H31            1.1269     3.1795    -0.4088 H       
  32 H32           -1.4129     2.2098     0.8575 H       
  33 H33           -3.0439    -3.0419    -2.0752 H       
  34 H34           -3.7215    -1.6597    -1.1765 H       
  35 H35           -0.7636    -2.3211    -1.5485 H       
  36 H36           -1.6458    -0.9542    -2.2720 H       
  37 H37           -2.1318    -0.0784     0.0063 H       
  38 H38           -0.3672    -2.4054     0.8948 H       
  39 H39           -0.9607    -1.0998     1.9500 H       
  40 H40           -3.2838    -1.7528     1.5213 H       
  41 H41           -2.3721    -3.1847     2.0651 H       
  42 H42           -1.4133    -5.0133    -1.2503 H       
  43 H43           -1.8714    -7.3896    -1.2603 H       
  44 H44           -4.3196   -10.4700    -0.5999 H       
  45 H45           -3.0240    -9.5329    -1.3820 H       
  46 H46           -2.6747   -10.1367     1.5947 H       
  47 H47           -1.6685   -12.3899     1.0074 H       
  48 H48           -2.2157   -12.1784    -0.7411 H       
  49 H49           -0.8103   -10.0750    -0.9266 H       
  50 H50           -0.2630   -10.2864     0.8219 H       
@<TRIPOS>BOND
   1    1    2 ar
   2    1    6 ar
   3    1    7 1
   4    2    3 ar
   5    2   12 1
   6    3    4 ar
   7    3   29 1
   8    4    5 ar
   9    4    8 1
  10    5    6 ar
  11    5   30 1
  12    6   31 1
  13    7   32 1
  14    9   10 1
  15    9   14 1
  16    9   17 1
  17   10   11 1
  18   10   33 1
  19   10   34 1
  20   11   12 1
  21   11   35 1
  22   11   36 1
  23   12   13 1
  24   12   37 1
  25   13   14 1
  26   13   38 1
  27   13   39 1
  28   14   40 1
  29   14   41 1
  30   15   16 1
  31   15   20 1
  32   15   22 2
  33   16   17 2
  34   16   28 1
  35   17   18 1
  36   18   19 2
  37   18   42 1
  38   19   20 1
  39   19   43 1
  40   20   23 1
  41   21   22 1
  42   21   23 2
  43   23   24 1
  44   24   25 1
  45   24   44 1
  46   24   45 1
  47   25   26 1
  48   25   27 1
  49   25   46 1
  50   26   27 1
  51   26   47 1
  52   26   48 1
  53   27   49 1
  54   27   50 1

#	End of record

