#	Name: ASD01882408
#	Creating user name:	WinNT
#	Creation time:	15. 06. 2019 19:44

#	Modifying user name:	WinNT
#	Modification time:	15. 06. 2019 19:44

#	Program:	/corina/corina34_cracker 3.40 0067  02.08.2006

@<TRIPOS>MOLECULE
ASD01882408
  47   50    0    0    0
SMALL
NO_CHARGES


@<TRIPOS>ATOM
   1 C1             1.6022     1.4746    -1.0549 C.2     
   2 C2             1.6523     0.0702    -1.0962 C.2     
   3 C3             1.2298    -0.6444    -0.0076 C.2     
   4 C4             0.7534     0.0388     1.1321 C.2     
   5 C5             0.7141     1.3856     1.1499 C.2     
   6 N6             1.1328     2.1075     0.0703 N.pl3   
   7 N7             1.6951     3.5769    -1.4012 N.2     
   8 N8             1.9337     2.4230    -1.9179 N.2     
   9 C9             1.2087     3.4432    -0.1954 C.2     
  10 C10            0.8076     4.5606     0.7328 C.3     
  11 C11            2.0090     4.9702     1.5870 C.3     
  12 F12            3.0463     5.4048     0.7550 F       
  13 F13            1.6365     6.0076     2.4486 F       
  14 F14            2.4426     3.8728     2.3386 F       
  15 N15            1.2694    -2.0366    -0.0247 N.pl3   
  16 C16            2.5490    -2.7542    -0.1285 C.3     
  17 C17            2.6139    -3.7982     0.9914 C.3     
  18 N18            1.4180    -4.6492     0.9331 N.3     
  19 C19            0.1966    -3.8691     1.1731 C.3     
  20 C20            0.0331    -2.8281     0.0667 C.3     
  21 C21            3.8643    -4.6617     0.8126 C.3     
  22 C22            1.5168    -5.7135     1.8321 C.ar    
  23 C23            1.7708    -5.4681     3.1752 C.ar    
  24 C24            1.8683    -6.5238     4.0639 C.ar    
  25 C25            1.7132    -7.8246     3.6150 C.ar    
  26 C26            1.4603    -8.0717     2.2761 C.ar    
  27 C27            1.3555    -7.0186     1.3851 C.ar    
  28 F28            1.3099    -9.3417     1.8407 F       
  29 F29            2.1154    -6.2856     5.3706 F       
  30 Cl30           2.2418    -0.7473    -2.5097 Cl      
  31 H31            0.4186    -0.5204     1.9933 H       
  32 H32            0.3475     1.8984     2.0268 H       
  33 H33            0.4697     5.4156     0.1472 H       
  34 H34           -0.0007     4.2220     1.3810 H       
  35 H35            2.6126    -3.2513    -1.0965 H       
  36 H36            3.3737    -2.0497    -0.0206 H       
  37 H37            2.6547    -3.2938     1.9569 H       
  38 H38           -0.6658    -4.5357     1.1774 H       
  39 H39            0.2711    -3.3638     2.1360 H       
  40 H40           -0.8048    -2.1725     0.3036 H       
  41 H41           -0.1498    -3.3324    -0.8821 H       
  42 H42            4.7430    -4.0199     0.7492 H       
  43 H43            3.9662    -5.3342     1.6644 H       
  44 H44            3.7743    -5.2461    -0.1030 H       
  45 H45            1.8925    -4.4538     3.5257 H       
  46 H46            1.7900    -8.6476     4.3100 H       
  47 H47            1.1531    -7.2114     0.3419 H       
@<TRIPOS>BOND
   1    1    2 1
   2    1    6 1
   3    1    8 2
   4    2    3 2
   5    2   30 1
   6    3    4 1
   7    3   15 1
   8    4    5 2
   9    4   31 1
  10    5    6 1
  11    5   32 1
  12    6    9 1
  13    7    8 1
  14    7    9 2
  15    9   10 1
  16   10   11 1
  17   10   33 1
  18   10   34 1
  19   11   12 1
  20   11   13 1
  21   11   14 1
  22   15   16 1
  23   15   20 1
  24   16   17 1
  25   16   35 1
  26   16   36 1
  27   17   18 1
  28   17   21 1
  29   17   37 1
  30   18   19 1
  31   18   22 1
  32   19   20 1
  33   19   38 1
  34   19   39 1
  35   20   40 1
  36   20   41 1
  37   21   42 1
  38   21   43 1
  39   21   44 1
  40   22   23 ar
  41   22   27 ar
  42   23   24 ar
  43   23   45 1
  44   24   25 ar
  45   24   29 1
  46   25   26 ar
  47   25   46 1
  48   26   27 ar
  49   26   28 1
  50   27   47 1

#	End of record

