#	Name: ASD02500452
#	Creating user name:	WinNT
#	Creation time:	15. 06. 2019 20:22

#	Modifying user name:	WinNT
#	Modification time:	15. 06. 2019 20:22

#	Program:	/corina/corina34_cracker 3.40 0067  02.08.2006

@<TRIPOS>MOLECULE
ASD02500452
  73   77    0    0    0
SMALL
NO_CHARGES


@<TRIPOS>ATOM
   1 C1             0.6922    -0.0786    -1.1950 C.2     
   2 C2             0.9316    -1.5659    -1.1544 C.3     
   3 C3             0.6981    -2.1582    -2.5456 C.3     
   4 C4             0.9412    -3.6682    -2.5044 C.3     
   5 O5             0.3680     0.4531    -2.2304 O.2     
   6 O6             0.8337     0.6548    -0.0793 O.3     
   7 C7             0.6990     2.0015    -0.2049 C.ar    
   8 C8            -0.5316     2.5487    -0.5378 C.ar    
   9 C9            -0.6659     3.9178    -0.6644 C.ar    
  10 C10            0.4249     4.7425    -0.4601 C.ar    
  11 C11            1.6524     4.1996    -0.1282 C.ar    
  12 C12            1.7906     2.8315     0.0052 C.ar    
  13 C13            0.2757     6.2356    -0.5998 C.3     
  14 N14           -0.0951     6.8142     0.6985 N.3     
  15 C15           -0.0189     8.2808     0.6622 C.3     
  16 C16           -0.5834     8.8508     1.9679 C.3     
  17 N17            0.1186     8.2192     3.0955 N.am    
  18 C18            0.2030     6.7512     3.1284 C.3     
  19 C19            0.7366     6.2639     1.7770 C.3     
  20 C20            0.6696     8.9658     4.0729 C.2     
  21 C21            1.2639     8.3121     5.2543 C.ar    
  22 C22            2.3766     8.8789     5.8829 C.ar    
  23 C23            2.9287     8.2667     6.9847 C.ar    
  24 C24            2.3804     7.0841     7.4735 C.ar    
  25 C25            1.2727     6.5169     6.8495 C.ar    
  26 C26            0.7122     7.1276     5.7511 C.ar    
  27 O27            0.6768    10.1783     3.9810 O.2     
  28 S28            1.9652     5.9148     9.8056 S.o2    
  29 O29            0.9350     5.1594     9.1834 O.2     
  30 O30            2.8288     5.3803    10.7995 O.2     
  31 N31            2.9406     6.4679     8.5870 N.am    
  32 N32            3.2837     8.1755    11.2802 N.ar    
  33 C33            4.0067     9.0803    11.8940 C.ar    
  34 C34            3.4306    10.2059    12.4793 C.ar    
  35 C35            2.0782    10.3877    12.4212 C.ar    
  36 C36            1.3050     9.4141    11.7608 C.ar    
  37 C37           -0.0903     9.5326    11.6612 C.ar    
  38 C38           -0.8030     8.5693    11.0145 C.ar    
  39 C39           -0.1657     7.4670    10.4491 C.ar    
  40 C40            1.1851     7.3199    10.5277 C.ar    
  41 C41            1.9553     8.2931    11.1876 C.ar    
  42 H42            1.9584    -1.7603    -0.8444 H       
  43 H43            0.2444    -2.0253    -0.4439 H       
  44 H44           -0.3287    -1.9638    -2.8556 H       
  45 H45            1.3853    -1.6988    -3.2561 H       
  46 H46            0.2540    -4.1276    -1.7939 H       
  47 H47            0.7748    -4.0902    -3.4956 H       
  48 H48            1.9679    -3.8626    -2.1944 H       
  49 H49           -1.3838     1.9049    -0.6981 H       
  50 H50           -1.6237     4.3443    -0.9235 H       
  51 H51            2.5031     4.8458     0.0305 H       
  52 H52            2.7487     2.4082     0.2684 H       
  53 H53            1.2204     6.6655    -0.9327 H       
  54 H54           -0.5017     6.4562    -1.3313 H       
  55 H55            1.0209     8.5883     0.5507 H       
  56 H56           -0.6015     8.6546    -0.1797 H       
  57 H57           -0.4250     9.9288     1.9955 H       
  58 H58           -1.6495     8.6327     2.0319 H       
  59 H59            0.8814     6.4411     3.9232 H       
  60 H60           -0.7874     6.3313     3.3039 H       
  61 H61            0.7019     5.1750     1.7435 H       
  62 H62            1.7659     6.5995     1.6500 H       
  63 H63            2.8026     9.7961     5.5039 H       
  64 H64            3.7885     8.7039     7.4705 H       
  65 H65            0.8500     5.5990     7.2306 H       
  66 H66           -0.1503     6.6898     5.2705 H       
  67 H67            3.9028     6.3620     8.6500 H       
  68 H68            5.0775     8.9498    11.9478 H       
  69 H69            4.0528    10.9338    12.9788 H       
  70 H70            1.6149    11.2540    12.8697 H       
  71 H71           -0.5956    10.3828    12.0953 H       
  72 H72           -1.8764     8.6612    10.9384 H       
  73 H73           -0.7533     6.7160     9.9419 H       
@<TRIPOS>BOND
   1    1    2 1
   2    1    5 2
   3    1    6 1
   4    2    3 1
   5    2   42 1
   6    2   43 1
   7    3    4 1
   8    3   44 1
   9    3   45 1
  10    4   46 1
  11    4   47 1
  12    4   48 1
  13    6    7 1
  14    7    8 ar
  15    7   12 ar
  16    8    9 ar
  17    8   49 1
  18    9   10 ar
  19    9   50 1
  20   10   11 ar
  21   10   13 1
  22   11   12 ar
  23   11   51 1
  24   12   52 1
  25   13   14 1
  26   13   53 1
  27   13   54 1
  28   14   15 1
  29   14   19 1
  30   15   16 1
  31   15   55 1
  32   15   56 1
  33   16   17 1
  34   16   57 1
  35   16   58 1
  36   17   18 1
  37   17   20 am
  38   18   19 1
  39   18   59 1
  40   18   60 1
  41   19   61 1
  42   19   62 1
  43   20   21 1
  44   20   27 2
  45   21   22 ar
  46   21   26 ar
  47   22   23 ar
  48   22   63 1
  49   23   24 ar
  50   23   64 1
  51   24   25 ar
  52   24   31 1
  53   25   26 ar
  54   25   65 1
  55   26   66 1
  56   28   29 2
  57   28   30 2
  58   28   31 am
  59   28   40 1
  60   31   67 1
  61   32   33 ar
  62   32   41 ar
  63   33   34 ar
  64   33   68 1
  65   34   35 ar
  66   34   69 1
  67   35   36 ar
  68   35   70 1
  69   36   37 ar
  70   36   41 ar
  71   37   38 ar
  72   37   71 1
  73   38   39 ar
  74   38   72 1
  75   39   40 ar
  76   39   73 1
  77   40   41 ar

#	End of record

