#	Name: ASD03091254
#	Creating user name:	WinNT
#	Creation time:	15. 06. 2019 20:30

#	Modifying user name:	WinNT
#	Modification time:	15. 06. 2019 20:30

#	Program:	/corina/corina34_cracker 3.40 0067  02.08.2006

@<TRIPOS>MOLECULE
ASD03091254
  58   62    0    0    0
SMALL
NO_CHARGES


@<TRIPOS>ATOM
   1 C1            -0.0847     1.3816     0.0310 C.2     
   2 C2            -0.0205    -0.1240     0.0205 C.3     
   3 O3             0.9388     2.0322     0.0236 O.2     
   4 N4            -1.2795     2.0051     0.0431 N.am    
   5 C5            -1.3418     3.4688     0.0533 C.3     
   6 C6            -1.2473     3.9933    -1.3809 C.3     
   7 C7            -2.6656     3.9185     0.6746 C.3     
   8 N8             3.3326    -1.0133     1.2319 N.2     
   9 C9             2.0814    -0.6378     1.1743 C.2     
  10 N10            1.3801    -0.5530     0.0018 N.am    
  11 C11            1.9729    -0.8635    -1.1746 C.2     
  12 C12            3.3801    -1.2885    -1.1339 C.ar    
  13 C13            4.0778    -1.6284    -2.2906 C.ar    
  14 C14            5.4021    -2.0214    -2.1939 C.ar    
  15 C15            6.0331    -2.0775    -0.9510 C.ar    
  16 C16            5.3621    -1.7478     0.1913 C.ar    
  17 C17            4.0243    -1.3466     0.1232 C.ar    
  18 C18            1.3919    -0.2891     2.4343 C.ar    
  19 C19            0.1977    -0.9243     2.7790 C.ar    
  20 C20           -0.4408    -0.5941     3.9565 C.ar    
  21 C21            0.0999     0.3646     4.7948 C.ar    
  22 C22            1.2833     0.9980     4.4592 C.ar    
  23 C23            1.9352     0.6728     3.2877 C.ar    
  24 O24            1.3642    -0.7941    -2.2265 O.2     
  25 C25            7.5542    -1.9875    -3.2239 C.3     
  26 N26            6.1108    -2.3644    -3.3485 N.3     
  27 C27            5.5955    -1.6266    -4.5270 C.3     
  28 C28            6.8270    -0.8529    -5.0917 C.3     
  29 N29            7.0789     0.2211    -4.0798 N.3     
  30 C30            7.5212    -0.4740    -2.8469 C.3     
  31 C31            7.9661    -1.8740    -4.7354 C.3     
  32 H32           -0.5083    -0.5147     0.9136 H       
  33 H33           -0.5285    -0.5031    -0.8662 H       
  34 H34           -2.0981     1.4848     0.0450 H       
  35 H35           -0.5124     3.8637     0.6399 H       
  36 H36           -2.0768     3.5984    -1.9676 H       
  37 H37           -1.2937     5.0823    -1.3733 H       
  38 H38           -0.3042     3.6729    -1.8236 H       
  39 H39           -2.7329     3.5449     1.6964 H       
  40 H40           -2.7120     5.0075     0.6822 H       
  41 H41           -3.4951     3.5236     0.0880 H       
  42 H42            3.5906    -1.5862    -3.2535 H       
  43 H43            7.0663    -2.3862    -0.8915 H       
  44 H44            5.8639    -1.7968     1.1463 H       
  45 H45           -0.2257    -1.6724     2.1251 H       
  46 H46           -1.3648    -1.0848     4.2243 H       
  47 H47           -0.4043     0.6200     5.7152 H       
  48 H48            1.6998     1.7458     5.1179 H       
  49 H49            2.8614     1.1645     3.0292 H       
  50 H50            8.1648    -2.6290    -2.5885 H       
  51 H51            5.2123    -2.3238    -5.2722 H       
  52 H52            4.8155    -0.9278    -4.2248 H       
  53 H53            6.7570    -0.5277    -6.1297 H       
  54 H54            7.7842     0.8655    -4.4044 H       
  55 H55            6.8104    -0.3006    -2.0389 H       
  56 H56            8.5155    -0.1344    -2.5569 H       
  57 H57            8.9607    -1.4465    -4.8629 H       
  58 H58            7.8566    -2.8193    -5.2670 H       
@<TRIPOS>BOND
   1    1    2 1
   2    1    3 2
   3    1    4 am
   4    2   10 1
   5    2   32 1
   6    2   33 1
   7    4    5 1
   8    4   34 1
   9    5    6 1
  10    5    7 1
  11    5   35 1
  12    6   36 1
  13    6   37 1
  14    6   38 1
  15    7   39 1
  16    7   40 1
  17    7   41 1
  18    8    9 2
  19    8   17 1
  20    9   10 1
  21    9   18 1
  22   10   11 am
  23   11   12 1
  24   11   24 2
  25   12   13 ar
  26   12   17 ar
  27   13   14 ar
  28   13   42 1
  29   14   15 ar
  30   14   26 1
  31   15   16 ar
  32   15   43 1
  33   16   17 ar
  34   16   44 1
  35   18   19 ar
  36   18   23 ar
  37   19   20 ar
  38   19   45 1
  39   20   21 ar
  40   20   46 1
  41   21   22 ar
  42   21   47 1
  43   22   23 ar
  44   22   48 1
  45   23   49 1
  46   25   26 1
  47   25   30 1
  48   25   31 1
  49   25   50 1
  50   26   27 1
  51   27   28 1
  52   27   51 1
  53   27   52 1
  54   28   29 1
  55   28   31 1
  56   28   53 1
  57   29   30 1
  58   29   54 1
  59   30   55 1
  60   30   56 1
  61   31   57 1
  62   31   58 1

#	End of record

