#	Name: ASD00310194
#	Creating user name:	WinNT
#	Creation time:	15. 06. 2019 18:33

#	Modifying user name:	WinNT
#	Modification time:	15. 06. 2019 18:33

#	Program:	/corina/corina34_cracker 3.40 0067  02.08.2006

@<TRIPOS>MOLECULE
ASD00310194
  28   29    0    0    0
SMALL
NO_CHARGES


@<TRIPOS>ATOM
   1 N1            -0.0180     1.4748     0.0102 N.3     
   2 C2             0.0021    -0.0041     0.0020 C.3     
   3 C3             1.3327    -0.4343    -0.6429 C.3     
   4 C4             2.0698     0.8855    -0.9664 C.3     
   5 C5             1.4054     1.8991    -0.0012 C.3     
   6 O6             1.0871    -1.1719    -1.8419 O.3     
   7 C7            -0.6730     1.9580     1.1373 C.ar    
   8 C8            -0.7962     3.3296     1.3262 C.ar    
   9 C9            -1.4508     3.8010     2.4518 C.ar    
  10 C10           -1.9626     2.8815     3.3550 C.ar    
  11 C11           -1.8046     1.5252     3.1054 C.ar    
  12 N12           -1.1781     1.1066     2.0174 N.ar    
  13 O13           -2.3023     0.6188     3.9840 O.3     
  14 C14           -2.1077    -0.7620     3.6715 C.3     
  15 Br15          -2.8652     3.4688     4.9094 Br      
  16 H16           -0.0550    -0.3818     1.0229 H       
  17 H17           -0.8346    -0.3836    -0.5845 H       
  18 H18            1.9165    -1.0319     0.0571 H       
  19 H19            3.1354     0.7938    -0.7558 H       
  20 H20            1.9042     1.1755    -2.0040 H       
  21 H21            1.5010     2.9150    -0.3846 H       
  22 H22            1.8381     1.8210     0.9962 H       
  23 H23            1.8895    -1.4693    -2.2920 H       
  24 H24           -0.3859     4.0196     0.6038 H       
  25 H25           -1.5600     4.8618     2.6227 H       
  26 H26           -2.5818    -0.9888     2.7166 H       
  27 H27           -1.0403    -0.9729     3.6064 H       
  28 H28           -2.5526    -1.3776     4.4533 H       
@<TRIPOS>BOND
   1    1    2 1
   2    1    5 1
   3    1    7 1
   4    2    3 1
   5    2   16 1
   6    2   17 1
   7    3    4 1
   8    3    6 1
   9    3   18 1
  10    4    5 1
  11    4   19 1
  12    4   20 1
  13    5   21 1
  14    5   22 1
  15    6   23 1
  16    7    8 ar
  17    7   12 ar
  18    8    9 ar
  19    8   24 1
  20    9   10 ar
  21    9   25 1
  22   10   11 ar
  23   10   15 1
  24   11   12 ar
  25   11   13 1
  26   13   14 1
  27   14   26 1
  28   14   27 1
  29   14   28 1

#	End of record

