#	Name: ASD02038908
#	Creating user name:	WinNT
#	Creation time:	15. 06. 2019 20:17

#	Modifying user name:	WinNT
#	Modification time:	15. 06. 2019 20:17

#	Program:	/corina/corina34_cracker 3.40 0067  02.08.2006

@<TRIPOS>MOLECULE
ASD02038908
  37   36    0    0    0
SMALL
NO_CHARGES


@<TRIPOS>ATOM
   1 C1            -0.0143     1.2041     0.0087 C.2     
   2 C2            -1.3295     1.9397     0.0189 C.3     
   3 C3            -1.4165     2.8114     1.2733 C.3     
   4 C4            -2.7997     3.4612     1.3479 C.3     
   5 O5             0.0021    -0.0041     0.0020 O.2     
   6 O6             1.1389     1.8910     0.0013 O.3     
   7 N7            -2.4300     0.9727     0.0189 N.am    
   8 C8            -2.8746     0.4578    -1.1446 C.2     
   9 O9            -2.3626     0.7956    -2.1935 O.2     
  10 O10           -3.8859    -0.4309    -1.1446 O.3     
  11 C11           -4.3128    -0.9438    -2.4343 C.3     
  12 C12           -3.1407    -1.6548    -3.1137 C.3     
  13 C13           -5.4628    -1.9330    -2.2345 C.3     
  14 C14           -4.7847     0.2161    -3.3135 C.3     
  15 O15           -1.2045     1.9881     2.4504 O.3     
  16 C16           -0.6437     2.5813     3.5160 C.2     
  17 O17           -0.3401     3.7497     3.4668 O.2     
  18 C18           -0.3928     1.7899     4.7737 C.3     
  19 H19           -1.4000     2.5704    -0.8673 H       
  20 H20           -0.6524     3.5874     1.2303 H       
  21 H21           -3.5639     2.6851     1.3909 H       
  22 H22           -2.8617     4.0822     2.2415 H       
  23 H23           -2.9589     4.0792     0.4642 H       
  24 H24            1.9569     1.3754    -0.0092 H       
  25 H25           -2.8387     0.7030     0.8562 H       
  26 H26           -2.8046    -2.4810    -2.4873 H       
  27 H27           -3.4612    -2.0397    -4.0818 H       
  28 H28           -2.3214    -0.9500    -3.2560 H       
  29 H29           -6.2978    -1.4264    -1.7504 H       
  30 H30           -5.7832    -2.3179    -3.2026 H       
  31 H31           -5.1266    -2.7592    -1.6081 H       
  32 H32           -3.9654     0.9208    -3.4558 H       
  33 H33           -5.1051    -0.1689    -4.2816 H       
  34 H34           -5.6197     0.7226    -2.8295 H       
  35 H35           -0.7293     0.7631     4.6301 H       
  36 H36            0.6736     1.7945     4.9992 H       
  37 H37           -0.9413     2.2396     5.6014 H       
@<TRIPOS>BOND
   1    1    5 2
   2    1    6 1
   3    1    2 1
   4    2    3 1
   5    2    7 1
   6    2   19 1
   7    3    4 1
   8    3   15 1
   9    3   20 1
  10    4   21 1
  11    4   22 1
  12    4   23 1
  13    6   24 1
  14    7    8 am
  15    7   25 1
  16    8    9 2
  17    8   10 1
  18   10   11 1
  19   11   12 1
  20   11   14 1
  21   11   13 1
  22   12   26 1
  23   12   27 1
  24   12   28 1
  25   13   29 1
  26   13   30 1
  27   13   31 1
  28   14   32 1
  29   14   33 1
  30   14   34 1
  31   15   16 1
  32   16   17 2
  33   16   18 1
  34   18   35 1
  35   18   36 1
  36   18   37 1

#	End of record

