#	Name: ASD03200003
#	Creating user name:	WinNT
#	Creation time:	15. 06. 2019 20:33

#	Modifying user name:	WinNT
#	Modification time:	15. 06. 2019 20:33

#	Program:	/corina/corina34_cracker 3.40 0067  02.08.2006

@<TRIPOS>MOLECULE
ASD03200003
  50   53    0    0    0
SMALL
NO_CHARGES


@<TRIPOS>ATOM
   1 C1             0.9780    -1.0816    -0.1553 C.3     
   2 N2            -0.0060    -0.0047     0.0133 N.3     
   3 C3             0.3366     0.8538     1.1543 C.3     
   4 C4             1.6936     1.5165     0.9064 C.3     
   5 C5             2.7592     0.4327     0.7211 C.3     
   6 C6             2.3541    -0.4767    -0.4423 C.3     
   7 C7            -1.2941    -0.5212     0.1457 C.ar    
   8 C8            -1.9983    -0.3883     1.3399 C.ar    
   9 C9            -3.2714    -0.9134     1.4314 C.ar    
  10 N10           -3.8247    -1.5357     0.4077 N.ar    
  11 C11           -3.1947    -1.6848    -0.7425 C.ar    
  12 C12           -1.9165    -1.1821    -0.9200 C.ar    
  13 N13           -1.2518    -1.3431    -2.1433 N.am    
  14 C14           -1.4390    -2.4628    -2.8696 C.2     
  15 C15           -0.6745    -2.6732    -4.1017 C.2     
  16 O16           -2.2435    -3.2995    -2.5020 O.2     
  17 C17           -0.8908    -3.7450    -4.9399 C.2     
  18 S18            0.2322    -3.6149    -6.2912 S.3     
  19 C19            0.8931    -2.1324    -5.6110 C.2     
  20 N20            0.2841    -1.8403    -4.5073 N.2     
  21 C21            1.9810    -1.3345    -6.2151 C.ar    
  22 C22            2.6384    -1.7963    -7.3560 C.ar    
  23 C23            3.6532    -1.0468    -7.9150 C.ar    
  24 C24            4.0201     0.1601    -7.3470 C.ar    
  25 C25            3.3734     0.6245    -6.2155 C.ar    
  26 C26            2.3518    -0.1121    -5.6497 C.ar    
  27 N27            2.0457     2.3587     2.0574 N.3     
  28 N28           -1.8237    -4.7452    -4.7537 N.pl3   
  29 Cl29           1.5407     0.4719    -4.2303 Cl      
  30 H30            1.0257    -1.6761     0.7571 H       
  31 H31            0.6803    -1.7185    -0.9883 H       
  32 H32           -0.4269     1.6227     1.2725 H       
  33 H33            0.3873     0.2503     2.0606 H       
  34 H34            1.6397     2.1312     0.0079 H       
  35 H35            3.7193     0.8996     0.5013 H       
  36 H36            2.8407    -0.1578     1.6337 H       
  37 H37            3.0872    -1.2758    -0.5519 H       
  38 H38            2.3105     0.1066    -1.3620 H       
  39 H39           -1.5538     0.1186     2.1836 H       
  40 H40           -3.8229    -0.8138     2.3547 H       
  41 H41           -3.6833    -2.2008    -1.5559 H       
  42 H42           -0.6570    -0.6487    -2.4671 H       
  43 H43            2.3538    -2.7386    -7.8004 H       
  44 H44            4.1625    -1.4035    -8.7980 H       
  45 H45            4.8153     0.7423    -7.7886 H       
  46 H46            3.6652     1.5671    -5.7767 H       
  47 H47            2.9730     2.7428     1.9542 H       
  48 H48            1.3641     3.0905     2.1918 H       
  49 H49           -2.4008    -4.7311    -3.9742 H       
  50 H50           -1.9020    -5.4622    -5.4023 H       
@<TRIPOS>BOND
   1    1    2 1
   2    1    6 1
   3    1   30 1
   4    1   31 1
   5    2    3 1
   6    2    7 1
   7    3    4 1
   8    3   32 1
   9    3   33 1
  10    4    5 1
  11    4   27 1
  12    4   34 1
  13    5    6 1
  14    5   35 1
  15    5   36 1
  16    6   37 1
  17    6   38 1
  18    7    8 ar
  19    7   12 ar
  20    8    9 ar
  21    8   39 1
  22    9   10 ar
  23    9   40 1
  24   10   11 ar
  25   11   12 ar
  26   11   41 1
  27   12   13 1
  28   13   14 am
  29   13   42 1
  30   14   15 1
  31   14   16 2
  32   15   17 2
  33   15   20 1
  34   17   18 1
  35   17   28 1
  36   18   19 1
  37   19   20 2
  38   19   21 1
  39   21   22 ar
  40   21   26 ar
  41   22   23 ar
  42   22   43 1
  43   23   24 ar
  44   23   44 1
  45   24   25 ar
  46   24   45 1
  47   25   26 ar
  48   25   46 1
  49   26   29 1
  50   27   47 1
  51   27   48 1
  52   28   49 1
  53   28   50 1

#	End of record

