#	Name: ASD01913247
#	Creating user name:	WinNT
#	Creation time:	15. 06. 2019 20:01

#	Modifying user name:	WinNT
#	Modification time:	15. 06. 2019 20:01

#	Program:	/corina/corina34_cracker 3.40 0067  02.08.2006

@<TRIPOS>MOLECULE
ASD01913247
  46   49    0    0    0
SMALL
NO_CHARGES


@<TRIPOS>ATOM
   1 C1            -0.0781     1.3198    -0.1436 C.ar    
   2 C2            -0.0475    -0.0627    -0.1339 C.ar    
   3 N3             1.0970    -0.7146    -0.1290 N.ar    
   4 C4             2.2626    -0.0749    -0.1335 C.ar    
   5 C5             2.3043     1.3219    -0.1433 C.ar    
   6 C6             1.1158     2.0289    -0.1487 C.ar    
   7 C7             3.4839    -0.8226    -0.1279 C.1     
   8 C8             4.4851    -1.4355    -0.1232 C.1     
   9 C9             5.7064    -2.1832    -0.1176 C.ar    
  10 C10            6.9359    -1.5175    -0.1223 C.ar    
  11 C11            8.1138    -2.2376    -0.1169 C.ar    
  12 C12            8.0868    -3.6181    -0.1068 C.ar    
  13 C13            6.8657    -4.2967    -0.1025 C.ar    
  14 C14            5.6727    -3.5779    -0.1016 C.ar    
  15 C15            6.9755    -0.0111    -0.1338 C.3     
  16 C16            6.8397    -5.7751    -0.0921 C.2     
  17 N17            5.8726    -6.4275     0.5827 N.am    
  18 O18            7.6907    -6.4021    -0.6923 O.2     
  19 C19            4.9083    -5.7075     1.4223 C.3     
  20 C20            4.7329    -6.4356     2.7297 C.ar    
  21 C21            5.2277    -7.7013     2.9461 C.ar    
  22 C22            6.0042    -8.4603     1.9013 C.3     
  23 C23            5.7362    -7.8914     0.5030 C.3     
  24 C24            4.0406    -5.7907     3.7494 C.ar    
  25 C25            3.8633    -6.4474     4.9551 C.ar    
  26 C26            4.3796    -7.7214     5.1014 C.ar    
  27 N27            5.0316    -8.2980     4.1159 N.ar    
  28 H28           -1.0226     1.8436    -0.1517 H       
  29 H29           -0.9752    -0.6157    -0.1300 H       
  30 H30            3.2509     1.8417    -0.1463 H       
  31 H31            1.1162     3.1088    -0.1562 H       
  32 H32            9.0609    -1.7186    -0.1209 H       
  33 H33            9.0123    -4.1748    -0.1026 H       
  34 H34            4.7261    -4.0977    -0.0982 H       
  35 H35            6.9847     0.3599     0.8911 H       
  36 H36            7.8748     0.3248    -0.6499 H       
  37 H37            6.0955     0.3715    -0.6508 H       
  38 H38            5.2763    -4.6997     1.6148 H       
  39 H39            3.9496    -5.6509     0.9069 H       
  40 H40            7.0690    -8.3871     2.1224 H       
  41 H41            5.7055    -9.5084     1.9236 H       
  42 H42            4.7282    -8.1565     0.1842 H       
  43 H43            6.4640    -8.2910    -0.2032 H       
  44 H44            3.6487    -4.7950     3.6032 H       
  45 H45            3.3316    -5.9730     5.7666 H       
  46 H46            4.2466    -8.2481     6.0348 H       
@<TRIPOS>BOND
   1    1    2 ar
   2    1    6 ar
   3    1   28 1
   4    2    3 ar
   5    2   29 1
   6    3    4 ar
   7    4    5 ar
   8    4    7 1
   9    5    6 ar
  10    5   30 1
  11    6   31 1
  12    7    8 3
  13    8    9 1
  14    9   10 ar
  15    9   14 ar
  16   10   11 ar
  17   10   15 1
  18   11   12 ar
  19   11   32 1
  20   12   13 ar
  21   12   33 1
  22   13   14 ar
  23   13   16 1
  24   14   34 1
  25   15   35 1
  26   15   36 1
  27   15   37 1
  28   16   17 am
  29   16   18 2
  30   17   19 1
  31   17   23 1
  32   19   20 1
  33   19   38 1
  34   19   39 1
  35   20   21 ar
  36   20   24 ar
  37   21   22 1
  38   21   27 ar
  39   22   23 1
  40   22   40 1
  41   22   41 1
  42   23   42 1
  43   23   43 1
  44   24   25 ar
  45   24   44 1
  46   25   26 ar
  47   25   45 1
  48   26   27 ar
  49   26   46 1

#	End of record

