#	Name: ASD01912147
#	Creating user name:	WinNT
#	Creation time:	15. 06. 2019 19:59

#	Modifying user name:	WinNT
#	Modification time:	15. 06. 2019 19:59

#	Program:	/corina/corina34_cracker 3.40 0067  02.08.2006

@<TRIPOS>MOLECULE
ASD01912147
  46   50    0    0    0
SMALL
NO_CHARGES


@<TRIPOS>ATOM
   1 C1            -0.0187     1.5267     0.0104 C.3     
   2 C2             0.0021    -0.0041     0.0020 C.3     
   3 C3            -1.4249    -0.5355    -0.0845 C.3     
   4 C4            -2.2561    -0.0778     1.1043 C.3     
   5 N5            -2.0063     1.3376     1.4173 N.am    
   6 C6            -0.7332     2.0017     1.2785 C.3     
   7 C7             1.3940     2.0514    -0.0002 C.2     
   8 O8             2.3340     1.8179     0.9212 O.3     
   9 N9             3.3631     2.3843     0.6190 N.2     
  10 C10            3.2044     3.0330    -0.5083 C.2     
  11 N11            1.9318     2.8164    -0.9166 N.2     
  12 C12            4.2239     3.8444    -1.2054 C.2     
  13 C13            5.5051     4.0532    -0.7894 C.2     
  14 C14            6.1248     4.8774    -1.7416 C.2     
  15 C15            5.2153     5.1481    -2.7049 C.2     
  16 N16            4.0506     4.5163    -2.3890 N.pl3   
  17 Cl17           7.7640     5.4469    -1.6917 Cl      
  18 C18           -1.7648    -0.9437     2.3579 C.3     
  19 C19           -2.4219    -0.1560     3.5374 C.3     
  20 C20           -3.8474     0.1002     3.1854 C.ar    
  21 C21           -4.2419     1.0725     2.3227 C.ar    
  22 C22           -3.1313     1.9883     1.8709 C.2     
  23 O23           -3.2222     3.2001     1.9052 O.2     
  24 C24           -4.8320    -0.7075     3.7544 C.ar    
  25 C25           -6.1557    -0.5236     3.3906 C.ar    
  26 C26           -6.5250     0.4418     2.4658 C.ar    
  27 C27           -5.5524     1.2608     1.9137 C.ar    
  28 F28           -7.1083    -1.3022     3.9488 F       
  29 H29           -0.5502     1.8899    -0.8692 H       
  30 H30            0.5726    -0.3545    -0.8581 H       
  31 H31            0.4690    -0.3657     0.9182 H       
  32 H32           -1.8859    -0.1731    -1.0034 H       
  33 H33           -1.3996    -1.6250    -0.1044 H       
  34 H34           -3.3161    -0.2389     0.9076 H       
  35 H35           -0.1134     1.7781     2.1468 H       
  36 H36           -0.8927     3.0784     1.2205 H       
  37 H37            5.9592     3.6580     0.1073 H       
  38 H38            5.3848     5.7591    -3.5791 H       
  39 H39            3.2333     4.5418    -2.9109 H       
  40 H40           -2.1466    -1.9632     2.3052 H       
  41 H41           -0.6777    -0.9370     2.4382 H       
  42 H42           -2.3690    -0.7488     4.4505 H       
  43 H43           -1.9024     0.7913     3.6821 H       
  44 H44           -4.5646    -1.4694     4.4716 H       
  45 H45           -7.5601     0.5546     2.1790 H       
  46 H46           -5.8075     2.0202     1.1894 H       
@<TRIPOS>BOND
   1    1    2 1
   2    1    7 1
   3    1    6 1
   4    1   29 1
   5    2    3 1
   6    2   30 1
   7    2   31 1
   8    3    4 1
   9    3   32 1
  10    3   33 1
  11    4    5 1
  12    4   18 1
  13    4   34 1
  14    5    6 1
  15    5   22 am
  16    6   35 1
  17    6   36 1
  18    7    8 1
  19    7   11 2
  20    8    9 1
  21    9   10 2
  22   10   11 1
  23   10   12 1
  24   12   13 2
  25   12   16 1
  26   13   14 1
  27   13   37 1
  28   14   15 2
  29   14   17 1
  30   15   16 1
  31   15   38 1
  32   16   39 1
  33   18   19 1
  34   18   40 1
  35   18   41 1
  36   19   20 1
  37   19   42 1
  38   19   43 1
  39   20   21 ar
  40   20   24 ar
  41   21   22 1
  42   21   27 ar
  43   22   23 2
  44   24   25 ar
  45   24   44 1
  46   25   26 ar
  47   25   28 1
  48   26   27 ar
  49   26   45 1
  50   27   46 1

#	End of record

