#	Name: ASD01910586
#	Creating user name:	WinNT
#	Creation time:	15. 06. 2019 19:56

#	Modifying user name:	WinNT
#	Modification time:	15. 06. 2019 19:56

#	Program:	/corina/corina34_cracker 3.40 0067  02.08.2006

@<TRIPOS>MOLECULE
ASD01910586
  44   47    0    0    0
SMALL
NO_CHARGES


@<TRIPOS>ATOM
   1 C1             0.0267     1.3009    -0.0557 C.ar    
   2 C2             0.0595    -0.0810    -0.0645 C.ar    
   3 C3             1.2706    -0.7515    -0.0702 C.ar    
   4 C4             2.4548    -0.0450    -0.0671 C.ar    
   5 C5             2.4318     1.3510    -0.0587 C.ar    
   6 C6             1.2059     2.0231    -0.0530 C.ar    
   7 C7             3.6966     2.1142    -0.0548 C.2     
   8 N8             3.8250     3.4295    -0.0470 N.2     
   9 C9             5.1468     3.6618    -0.0459 C.2     
  10 N10            5.7492     2.5094    -0.0529 N.2     
  11 O11            4.9391     1.6067    -0.0527 O.3     
  12 C12            5.8125     5.0137    -0.0387 C.3     
  13 C13            6.6854     5.1466     1.2113 C.3     
  14 C14            7.3362     6.5315     1.2363 C.3     
  15 C15            8.2301     6.6936     0.0029 C.3     
  16 N16            7.4301     6.4244    -1.1997 N.am    
  17 C17            6.6892     5.1586    -1.2866 C.3     
  18 C18            7.3768     7.3216    -2.2040 C.2     
  19 C19            8.0497     8.6274    -2.0634 C.ar    
  20 O20            6.7742     7.0551    -3.2259 O.2     
  21 C21            9.4093     8.6854    -1.7479 C.ar    
  22 C22           10.0328     9.9072    -1.6182 C.ar    
  23 C23            9.3144    11.0798    -1.8002 C.ar    
  24 C24            7.9657    11.0314    -2.1133 C.ar    
  25 C25            7.3300     9.8127    -2.2514 C.ar    
  26 F26            9.9325    12.2742    -1.6710 F       
  27 F27            1.1735     3.3736    -0.0453 F       
  28 F28            6.0149     9.7654    -2.5572 F       
  29 H29           -0.9218     1.8176    -0.0555 H       
  30 H30           -0.8643    -0.6404    -0.0667 H       
  31 H31            1.2881    -1.8313    -0.0767 H       
  32 H32            3.3983    -0.5705    -0.0708 H       
  33 H33            5.0515     5.7940    -0.0356 H       
  34 H34            6.0681     5.0194     2.1006 H       
  35 H35            7.4612     4.3811     1.1955 H       
  36 H36            6.5611     7.2979     1.2271 H       
  37 H37            7.9391     6.6340     2.1386 H       
  38 H38            8.6176     7.7117    -0.0364 H       
  39 H39            9.0584     5.9870     0.0565 H       
  40 H40            7.3918     4.3268    -1.3381 H       
  41 H41            6.0600     5.1638    -2.1766 H       
  42 H42            9.9708     7.7739    -1.6054 H       
  43 H43           11.0839     9.9521    -1.3739 H       
  44 H44            7.4115    11.9477    -2.2535 H       
@<TRIPOS>BOND
   1    1    2 ar
   2    1    6 ar
   3    1   29 1
   4    2    3 ar
   5    2   30 1
   6    3    4 ar
   7    3   31 1
   8    4    5 ar
   9    4   32 1
  10    5    6 ar
  11    5    7 1
  12    6   27 1
  13    7    8 2
  14    7   11 1
  15    8    9 1
  16    9   10 2
  17    9   12 1
  18   10   11 1
  19   12   13 1
  20   12   17 1
  21   12   33 1
  22   13   14 1
  23   13   34 1
  24   13   35 1
  25   14   15 1
  26   14   36 1
  27   14   37 1
  28   15   16 1
  29   15   38 1
  30   15   39 1
  31   16   17 1
  32   16   18 am
  33   17   40 1
  34   17   41 1
  35   18   19 1
  36   18   20 2
  37   19   21 ar
  38   19   25 ar
  39   21   22 ar
  40   21   42 1
  41   22   23 ar
  42   22   43 1
  43   23   24 ar
  44   23   26 1
  45   24   25 ar
  46   24   44 1
  47   25   28 1

#	End of record

