#	Name: ASD02039327
#	Creating user name:	WinNT
#	Creation time:	15. 06. 2019 20:18

#	Modifying user name:	WinNT
#	Modification time:	15. 06. 2019 20:18

#	Program:	/corina/corina34_cracker 3.40 0067  02.08.2006

@<TRIPOS>MOLECULE
ASD02039327
  52   54    0    0    0
SMALL
NO_CHARGES


@<TRIPOS>ATOM
   1 C1             0.1360     1.1854    -0.3156 C.ar    
   2 C2             0.5182    -0.0927     0.0509 C.ar    
   3 C3            -0.3854    -1.1370    -0.0165 C.ar    
   4 C4            -2.0713     0.3819    -0.8114 C.ar    
   5 C5            -1.1526     1.4277    -0.7459 C.ar    
   6 C6            -3.4568     0.6360    -1.2734 C.ar    
   7 C7             1.1279     2.3174    -0.2388 C.3     
   8 N8             1.9438     2.3352    -1.4554 N.am    
   9 C9             1.4499     3.0091    -2.6588 C.3     
  10 C10            3.1488     1.7315    -1.4676 C.2     
  11 C11            3.6007     0.9652    -0.2933 C.2     
  12 C12            4.7336     0.2098    -0.2105 C.2     
  13 N13            2.9686     0.8870     0.9056 N.2     
  14 C14            3.6616     0.1208     1.6976 C.2     
  15 N15            4.7644    -0.3170     1.0361 N.pl3   
  16 O16            3.8630     1.8193    -2.4481 O.2     
  17 C17            5.8007    -1.2014     1.5750 C.3     
  18 N18           -4.3162    -0.3727    -1.3286 N.ar    
  19 C19           -1.6778    -0.9087    -0.4518 C.ar    
  20 C20            2.4327     4.1083    -3.0674 C.3     
  21 C21            1.3199     1.9931    -3.7953 C.3     
  22 F22           -2.5605    -1.9293    -0.5181 F       
  23 N23           -3.8093     1.8676    -1.6166 N.ar    
  24 C24           -5.0367     2.1279    -2.0326 C.ar    
  25 C25           -5.9591     1.0950    -2.1077 C.ar    
  26 C26           -5.5589    -0.1799    -1.7359 C.ar    
  27 C27           -7.3677     1.3534    -2.5768 C.3     
  28 C28           -7.4398     1.1783    -4.0950 C.3     
  29 H29            1.5269    -0.2755     0.3908 H       
  30 H30           -0.0813    -2.1327     0.2709 H       
  31 H31           -1.4512     2.4280    -1.0228 H       
  32 H32            0.5936     3.2629    -0.1457 H       
  33 H33            1.7725     2.1774     0.6290 H       
  34 H34            0.4751     3.4513    -2.4534 H       
  35 H35            5.4656     0.0604    -0.9904 H       
  36 H36            3.4032    -0.1246     2.7171 H       
  37 H37            5.5326    -2.2389     1.3755 H       
  38 H38            6.7549    -0.9748     1.0994 H       
  39 H39            5.8855    -1.0484     2.6508 H       
  40 H40            3.4234     3.6761    -3.2079 H       
  41 H41            2.0999     4.5651    -3.9994 H       
  42 H42            2.4748     4.8669    -2.2858 H       
  43 H43            0.5857     1.2349    -3.5226 H       
  44 H44            0.9961     2.5026    -4.7029 H       
  45 H45            2.2851     1.5179    -3.9701 H       
  46 H46           -5.3179     3.1330    -2.3104 H       
  47 H47           -6.2529    -1.0060    -1.7832 H       
  48 H48           -8.0457     0.6475    -2.0971 H       
  49 H49           -7.6571     2.3709    -2.3143 H       
  50 H50           -7.1503     0.1608    -4.3576 H       
  51 H51           -8.4586     1.3653    -4.4344 H       
  52 H52           -6.7617     1.8842    -4.5748 H       
@<TRIPOS>BOND
   1    1    2 ar
   2    1    7 1
   3    1    5 ar
   4    2    3 ar
   5    2   29 1
   6    3   19 ar
   7    3   30 1
   8    4    5 ar
   9    4    6 1
  10    4   19 ar
  11    5   31 1
  12    6   18 ar
  13    6   23 ar
  14    7    8 1
  15    7   32 1
  16    7   33 1
  17    8    9 1
  18    8   10 am
  19    9   21 1
  20    9   20 1
  21    9   34 1
  22   10   11 1
  23   10   16 2
  24   11   12 2
  25   11   13 1
  26   12   15 1
  27   12   35 1
  28   13   14 2
  29   14   15 1
  30   14   36 1
  31   15   17 1
  32   17   37 1
  33   17   38 1
  34   17   39 1
  35   18   26 ar
  36   19   22 1
  37   20   40 1
  38   20   41 1
  39   20   42 1
  40   21   43 1
  41   21   44 1
  42   21   45 1
  43   23   24 ar
  44   24   25 ar
  45   24   46 1
  46   25   26 ar
  47   25   27 1
  48   26   47 1
  49   27   28 1
  50   27   48 1
  51   27   49 1
  52   28   50 1
  53   28   51 1
  54   28   52 1

#	End of record

