#	Name: ASD00170555
#	Creating user name:	WinNT
#	Creation time:	15. 06. 2019 18:32

#	Modifying user name:	WinNT
#	Modification time:	15. 06. 2019 18:32

#	Program:	/corina/corina34_cracker 3.40 0067  02.08.2006

@<TRIPOS>MOLECULE
ASD00170555
  53   56    0    0    0
SMALL
NO_CHARGES


@<TRIPOS>ATOM
   1 C1             0.7808     1.7464     0.0142 C.ar    
   2 N2             0.6340     0.3543    -0.0193 N.3     
   3 C3            -0.1371    -0.1219     1.1376 C.3     
   4 C4            -0.3429    -1.6342     1.0225 C.3     
   5 N5             0.9653    -2.3002     0.9549 N.3     
   6 C6             1.7364    -1.8240    -0.2019 C.3     
   7 C7             1.9422    -0.3118    -0.0869 C.3     
   8 C8             0.8113    -3.7607     0.9198 C.3     
   9 C9             2.1400    -4.3985     0.6053 C.2     
  10 C10            2.4736    -4.8306    -0.6008 C.2     
  11 S11            4.0900    -5.5126    -0.5972 S.3     
  12 C12            4.3010    -5.2006     1.0651 C.2     
  13 C13            3.1828    -4.5950     1.5903 C.2     
  14 C14            3.0574    -4.2013     2.9932 C.2     
  15 O15            3.3683    -3.0762     3.3399 O.2     
  16 C16            2.5529    -5.1699     3.9910 C.ar    
  17 C17            2.5342    -4.8350     5.3456 C.ar    
  18 C18            2.0619    -5.7428     6.2711 C.ar    
  19 C19            1.6081    -6.9829     5.8589 C.ar    
  20 C20            1.6244    -7.3215     4.5171 C.ar    
  21 C21            2.0882    -6.4207     3.5811 C.ar    
  22 N22            5.4383    -5.5081     1.7837 N.pl3   
  23 C23            2.0494     2.3122     0.0624 C.ar    
  24 C24            2.1903     3.6880     0.0954 C.ar    
  25 C25            1.0712     4.4999     0.0810 C.ar    
  26 C26           -0.1926     3.9407     0.0331 C.ar    
  27 C27           -0.3415     2.5660    -0.0064 C.ar    
  28 F28            3.1434     1.5197     0.0774 F       
  29 F29           -1.5766     2.0206    -0.0536 F       
  30 C30            2.0409    -5.3828     7.7344 C.3     
  31 F31            0.8183    -4.7799     8.0488 F       
  32 F32            2.2005    -6.5415     8.5020 F       
  33 F33            3.0844    -4.4929     8.0107 F       
  34 H34            0.4075     0.1022     2.0548 H       
  35 H35           -1.1063     0.3764     1.1586 H       
  36 H36           -0.8896    -1.9941     1.8941 H       
  37 H37           -0.9111    -1.8562     0.1192 H       
  38 H38            2.7056    -2.3223    -0.2230 H       
  39 H39            1.1918    -2.0482    -1.1191 H       
  40 H40            2.4889     0.0482    -0.9584 H       
  41 H41            2.5104    -0.0898     0.8165 H       
  42 H42            0.4600    -4.1125     1.8899 H       
  43 H43            0.0873    -4.0313     0.1512 H       
  44 H44            1.8361    -4.7712    -1.4705 H       
  45 H45            2.8888    -3.8674     5.6688 H       
  46 H46            1.2397    -7.6901     6.5873 H       
  47 H47            1.2690    -8.2914     4.2018 H       
  48 H48            2.1004    -6.6861     2.5343 H       
  49 H49            6.1592    -6.0021     1.3628 H       
  50 H50            5.5168    -5.2303     2.7098 H       
  51 H51            3.1757     4.1284     0.1328 H       
  52 H52            1.1844     5.5736     0.1075 H       
  53 H53           -1.0643     4.5782     0.0223 H       
@<TRIPOS>BOND
   1    1    2 1
   2    1   23 ar
   3    1   27 ar
   4    2    3 1
   5    2    7 1
   6    3    4 1
   7    3   34 1
   8    3   35 1
   9    4    5 1
  10    4   36 1
  11    4   37 1
  12    5    6 1
  13    5    8 1
  14    6    7 1
  15    6   38 1
  16    6   39 1
  17    7   40 1
  18    7   41 1
  19    8    9 1
  20    8   42 1
  21    8   43 1
  22    9   10 2
  23    9   13 1
  24   10   11 1
  25   10   44 1
  26   11   12 1
  27   12   13 2
  28   12   22 1
  29   13   14 1
  30   14   15 2
  31   14   16 1
  32   16   17 ar
  33   16   21 ar
  34   17   18 ar
  35   17   45 1
  36   18   19 ar
  37   18   30 1
  38   19   20 ar
  39   19   46 1
  40   20   21 ar
  41   20   47 1
  42   21   48 1
  43   22   49 1
  44   22   50 1
  45   23   24 ar
  46   23   28 1
  47   24   25 ar
  48   24   51 1
  49   25   26 ar
  50   25   52 1
  51   26   27 ar
  52   26   53 1
  53   27   29 1
  54   30   31 1
  55   30   32 1
  56   30   33 1

#	End of record

