#	Name: ASD01915671
#	Creating user name:	WinNT
#	Creation time:	15. 06. 2019 20:05

#	Modifying user name:	WinNT
#	Modification time:	15. 06. 2019 20:05

#	Program:	/corina/corina34_cracker 3.40 0067  02.08.2006

@<TRIPOS>MOLECULE
ASD01915671
  39   42    0    0    0
SMALL
NO_CHARGES


@<TRIPOS>ATOM
   1 C1            -0.0043     1.4632     0.2179 C.2     
   2 N2             0.0616     0.1101    -0.0288 N.pl3   
   3 C3            -1.1509    -0.6741    -0.2926 C.3     
   4 C4            -2.3298    -0.0463     0.4491 C.3     
   5 N5            -2.4043     1.3988     0.2637 N.am    
   6 C6            -1.2917     2.1722     0.2680 C.2     
   7 C7             1.2784     1.9004     0.3942 C.2     
   8 C8             2.0746     0.7560     0.2525 C.2     
   9 N9             1.2814    -0.2613     0.0091 N.2     
  10 C10            3.5768     0.7025     0.3602 C.3     
  11 O11            4.0816     2.0113     0.6326 O.3     
  12 C12            5.4264     2.1386     0.7601 C.ar    
  13 O13           -1.3544     3.3861     0.3114 O.2     
  14 N14            6.2003     1.0736     0.6308 N.ar    
  15 C15            5.9776     3.3866     1.0194 C.ar    
  16 C16            7.3510     3.5029     1.1473 C.ar    
  17 C17            8.1276     2.3608     1.0104 C.ar    
  18 C18            7.5121     1.1530     0.7472 C.ar    
  19 C19           -3.6492     1.9979     0.0772 C.ar    
  20 N20           -3.7167     3.2589    -0.3197 N.ar    
  21 C21           -4.8073     1.2635     0.3044 C.ar    
  22 C22           -6.0371     1.8692     0.1153 C.ar    
  23 C23           -6.0658     3.1962    -0.2967 C.ar    
  24 C24           -4.8734     3.8643    -0.5087 C.ar    
  25 F25           -7.2453     3.8251    -0.4929 F       
  26 H26           -1.3554    -0.6787    -1.3632 H       
  27 H27           -1.0054    -1.6969     0.0549 H       
  28 H28           -3.2540    -0.4961     0.0863 H       
  29 H29           -2.2305    -0.2601     1.5133 H       
  30 H30            1.6070     2.9088     0.5981 H       
  31 H31            3.8594     0.0285     1.1688 H       
  32 H32            3.9956     0.3396    -0.5784 H       
  33 H33            5.3432     4.2549     1.1197 H       
  34 H34            7.8078     4.4606     1.3486 H       
  35 H35            9.2020     2.4169     1.1041 H       
  36 H36            8.1118     0.2612     0.6398 H       
  37 H37           -4.7481     0.2335     0.6238 H       
  38 H38           -6.9536     1.3232     0.2838 H       
  39 H39           -4.8895     4.8956    -0.8290 H       
@<TRIPOS>BOND
   1    1    2 1
   2    1    7 2
   3    1    6 1
   4    2    3 1
   5    2    9 1
   6    3    4 1
   7    3   26 1
   8    3   27 1
   9    4    5 1
  10    4   28 1
  11    4   29 1
  12    5    6 am
  13    5   19 1
  14    6   13 2
  15    7    8 1
  16    7   30 1
  17    8    9 2
  18    8   10 1
  19   10   11 1
  20   10   31 1
  21   10   32 1
  22   11   12 1
  23   12   14 ar
  24   12   15 ar
  25   14   18 ar
  26   15   16 ar
  27   15   33 1
  28   16   17 ar
  29   16   34 1
  30   17   18 ar
  31   17   35 1
  32   18   36 1
  33   19   20 ar
  34   19   21 ar
  35   20   24 ar
  36   21   22 ar
  37   21   37 1
  38   22   23 ar
  39   22   38 1
  40   23   24 ar
  41   23   25 1
  42   24   39 1

#	End of record

