#	Name: ASD08170403
#	Creating user name:	WinNT
#	Creation time:	15. 06. 2019 21:17

#	Modifying user name:	WinNT
#	Modification time:	15. 06. 2019 21:17

#	Program:	/corina/corina34_cracker 3.40 0067  02.08.2006

@<TRIPOS>MOLECULE
ASD08170403
  59   62    0    0    0
SMALL
NO_CHARGES


@<TRIPOS>ATOM
   1 N1            -0.0156     1.2977     0.0092 N.2     
   2 C2             0.0021    -0.0041     0.0020 C.2     
   3 S3             1.6908    -0.5171    -0.0169 S.3     
   4 C4             2.1707     1.1812    -0.0123 C.2     
   5 N5             1.0934     1.8979     0.0018 N.2     
   6 C6             7.9349     3.2709     4.7968 C.2     
   7 S7             7.6687     4.6845     5.8192 S.3     
   8 C8             8.3473     3.7861     7.1784 C.2     
   9 N9             8.6771     2.6034     6.7454 N.2     
  10 N10            8.4600     2.3435     5.5307 N.2     
  11 C11            9.2033     3.9605    10.8036 C.ar    
  12 C12           -3.5299    -1.1996     0.0310 C.ar    
  13 C13            9.7580     3.1381    11.7858 C.ar    
  14 C14           -4.8157    -0.6562     0.0465 C.ar    
  15 C15            9.9096     3.6116    13.0726 C.ar    
  16 C16            9.5133     4.8985    13.3907 C.ar    
  17 C17            8.9628     5.7189    12.4220 C.ar    
  18 C18            8.8105     5.2597    11.1301 C.ar    
  19 C19           -5.9139    -1.4909     0.0527 C.ar    
  20 C20           -5.7433    -2.8639     0.0436 C.ar    
  21 C21           -4.4717    -3.4092     0.0283 C.ar    
  22 C22           -3.3649    -2.5858     0.0166 C.ar    
  23 N23            8.5025     4.2566     8.4768 N.am    
  24 C24            9.0383     3.4601     9.4228 C.2     
  25 O25            9.3859     2.3300     9.1402 O.2     
  26 C26            9.6815     5.4088    14.7987 C.3     
  27 C27           -6.9477    -3.7696     0.0510 C.3     
  28 N28           -1.1087    -0.8393     0.0088 N.am    
  29 C29           -2.3486    -0.3114     0.0238 C.2     
  30 O30           -2.4955     0.8953     0.0313 O.2     
  31 C31            3.5841     1.7039    -0.0226 C.3     
  32 C32            4.0757     1.8732     1.4164 C.3     
  33 S33            5.7770     2.5024     1.4041 S.3     
  34 C34            6.1760     2.6346     3.1687 C.3     
  35 C35            7.6034     3.1610     3.3308 C.3     
  36 H36           10.0674     2.1332    11.5389 H       
  37 H37           -4.9503     0.4154     0.0539 H       
  38 H38           10.3382     2.9762    13.8335 H       
  39 H39            8.6552     6.7223    12.6770 H       
  40 H40            8.3810     5.9011    10.3748 H       
  41 H41           -6.9092    -1.0718     0.0650 H       
  42 H42           -4.3454    -4.4817     0.0216 H       
  43 H43           -2.3729    -3.0126     0.0043 H       
  44 H44            8.2251     5.1584     8.7023 H       
  45 H45           10.6595     5.8793    14.9002 H       
  46 H46            8.9025     6.1395    15.0158 H       
  47 H47            9.6043     4.5766    15.4984 H       
  48 H48           -7.2485    -3.9825    -0.9748 H       
  49 H49           -6.6981    -4.7020     0.5574 H       
  50 H50           -7.7677    -3.2794     0.5758 H       
  51 H51           -0.9915    -1.8022     0.0028 H       
  52 H52            4.2287     0.9980    -0.5461 H       
  53 H53            3.6115     2.6674    -0.5316 H       
  54 H54            3.4310     2.5792     1.9399 H       
  55 H55            4.0483     0.9098     1.9254 H       
  56 H56            5.4788     3.3216     3.6484 H       
  57 H57            6.0960     1.6521     3.6339 H       
  58 H58            7.6834     4.1435     2.8656 H       
  59 H59            8.3006     2.4741     2.8511 H       
@<TRIPOS>BOND
   1    1    2 2
   2    1    5 1
   3    2    3 1
   4    2   28 1
   5    3    4 1
   6    4    5 2
   7    4   31 1
   8    6    7 1
   9    6   35 1
  10    6   10 2
  11    7    8 1
  12    8    9 2
  13    8   23 1
  14    9   10 1
  15   11   13 ar
  16   11   24 1
  17   11   18 ar
  18   12   14 ar
  19   12   29 1
  20   12   22 ar
  21   13   15 ar
  22   13   36 1
  23   14   19 ar
  24   14   37 1
  25   15   16 ar
  26   15   38 1
  27   16   17 ar
  28   16   26 1
  29   17   18 ar
  30   17   39 1
  31   18   40 1
  32   19   20 ar
  33   19   41 1
  34   20   21 ar
  35   20   27 1
  36   21   22 ar
  37   21   42 1
  38   22   43 1
  39   23   24 am
  40   23   44 1
  41   24   25 2
  42   26   45 1
  43   26   46 1
  44   26   47 1
  45   27   48 1
  46   27   49 1
  47   27   50 1
  48   28   29 am
  49   28   51 1
  50   29   30 2
  51   31   32 1
  52   31   52 1
  53   31   53 1
  54   32   33 1
  55   32   54 1
  56   32   55 1
  57   33   34 1
  58   34   35 1
  59   34   56 1
  60   34   57 1
  61   35   58 1
  62   35   59 1

#	End of record

