#	Name: ASD04930002
#	Creating user name:	WinNT
#	Creation time:	15. 06. 2019 20:56

#	Modifying user name:	WinNT
#	Modification time:	15. 06. 2019 20:56

#	Program:	/corina/corina34_cracker 3.40 0067  02.08.2006

@<TRIPOS>MOLECULE
ASD04930002
  31   32    0    0    0
SMALL
NO_CHARGES


@<TRIPOS>ATOM
   1 C1            -0.0523     1.0579     0.1223 C.ar    
   2 C2             0.0885    -0.3223     0.0961 C.ar    
   3 C3             1.3384    -0.9003     0.0382 C.ar    
   4 C4             2.4741    -0.0959     0.0049 C.ar    
   5 C5             2.3264     1.3025     0.0312 C.ar    
   6 C6             1.0476     1.8677     0.0906 C.ar    
   7 N7             3.7286    -0.6675    -0.0526 N.am    
   8 C8             4.8450     0.0796    -0.0855 C.2     
   9 C9             4.7719     1.5403    -0.0618 C.2     
  10 C10            3.5184     2.1560    -0.0036 C.2     
  11 O11            3.4080     3.5004     0.0199 O.3     
  12 O12            5.9325    -0.4669    -0.1353 O.2     
  13 C13            5.9959     2.3470    -0.0974 C.2     
  14 O14            7.2013     1.7469    -0.0246 O.3     
  15 O15            5.9240     3.5572    -0.1927 O.2     
  16 C16            8.3699     2.6077    -0.0657 C.3     
  17 C17            9.6359     1.7538     0.0281 C.3     
  18 C18            3.8465    -2.1276    -0.0781 C.3     
  19 H19           -1.0388     1.4954     0.1636 H       
  20 H20           -0.7900    -0.9498     0.1218 H       
  21 H21            1.4365    -1.9757     0.0189 H       
  22 H22            0.9304     2.9411     0.1109 H       
  23 H23            4.2547     3.9636     0.0800 H       
  24 H24            8.3769     3.1664    -1.0016 H       
  25 H25            8.3381     3.3037     0.7726 H       
  26 H26           10.5132     2.4001    -0.0027 H       
  27 H27            9.6289     1.1952     0.9641 H       
  28 H28            9.6677     1.0579    -0.8101 H       
  29 H29            3.8354    -2.4750    -1.1112 H       
  30 H30            4.7824    -2.4248     0.3951 H       
  31 H31            3.0096    -2.5692     0.4628 H       
@<TRIPOS>BOND
   1    1    2 ar
   2    1    6 ar
   3    1   19 1
   4    2    3 ar
   5    2   20 1
   6    3    4 ar
   7    3   21 1
   8    4    5 ar
   9    4    7 1
  10    5    6 ar
  11    5   10 1
  12    6   22 1
  13    7    8 am
  14    7   18 1
  15    8    9 1
  16    8   12 2
  17    9   10 2
  18    9   13 1
  19   10   11 1
  20   11   23 1
  21   13   14 1
  22   13   15 2
  23   14   16 1
  24   16   17 1
  25   16   24 1
  26   16   25 1
  27   17   26 1
  28   17   27 1
  29   17   28 1
  30   18   29 1
  31   18   30 1
  32   18   31 1

#	End of record

