#	Name: ASD03240276
#	Creating user name:	WinNT
#	Creation time:	15. 06. 2019 20:34

#	Modifying user name:	WinNT
#	Modification time:	15. 06. 2019 20:34

#	Program:	/corina/corina34_cracker 3.40 0067  02.08.2006

@<TRIPOS>MOLECULE
ASD03240276
  89   94    0    0    0
SMALL
NO_CHARGES


@<TRIPOS>ATOM
   1 C1            -0.0162     1.3741    -0.0449 C.2     
   2 N2             0.0028    -0.0006    -0.0572 N.pl3   
   3 C3            -3.6506     2.2724     0.0299 C.3     
   4 C4            -2.4743     1.2946    -0.0003 C.3     
   5 N5            -1.2160     2.0447    -0.0170 N.pl3   
   6 N6             1.1034     2.0414    -0.0543 N.2     
   7 N7            -4.9089     1.5223     0.0466 N.pl3   
   8 C8            -6.1207     2.1997     0.0748 C.ar    
   9 C9            -7.3259     1.4811     0.0908 C.ar    
  10 C10           -8.5352     2.1622     0.1195 C.ar    
  11 C11           -8.5451     3.5580     0.1323 C.ar    
  12 C12           -7.3389     4.2658     0.1161 C.ar    
  13 C13           -6.1397     3.5898     0.0931 C.ar    
  14 C14           -9.8276     4.2865     0.1622 C.2     
  15 N15           -9.8370     5.6342     0.1745 N.am    
  16 O16          -10.8764     3.6710     0.1758 O.2     
  17 C17          -11.0516     6.3269     0.0899 C.ar    
  18 C18          -11.2184     7.5223     0.7768 C.ar    
  19 C19          -12.0867     5.8212    -0.6854 C.ar    
  20 C20          -13.2837     6.5041    -0.7693 C.ar    
  21 C21          -13.4526     7.6968    -0.0778 C.ar    
  22 C22          -12.4154     8.2051     0.6935 C.ar    
  23 N23          -14.6653     8.3891    -0.1630 N.pl3   
  24 C24          -14.8435     9.6470     0.5664 C.3     
  25 C25          -15.7571     7.8561    -0.9817 C.3     
  26 C26           -7.3077    -0.0011     0.0767 C.ar    
  27 C27           -8.0580    -0.7168     1.0096 C.ar    
  28 C28           -8.0414    -2.0940     0.9961 C.ar    
  29 C29           -7.2742    -2.7729     0.0499 C.ar    
  30 C30           -6.5237    -2.0575    -0.8827 C.ar    
  31 C31           -6.5449    -0.6803    -0.8733 C.ar    
  32 C32          -16.6215     6.9531    -0.1400 C.ar    
  33 C33          -14.4145    10.7986    -0.3059 C.ar    
  34 C34          -17.7011     7.4751     0.5479 C.ar    
  35 C35          -18.4947     6.6479     1.3198 C.ar    
  36 C36          -18.2083     5.2959     1.4039 C.ar    
  37 C37          -17.1268     4.7742     0.7145 C.ar    
  38 C38          -16.3377     5.6024    -0.0609 C.ar    
  39 C39          -15.3325    11.4170    -1.1342 C.ar    
  40 C40          -14.9404    12.4734    -1.9343 C.ar    
  41 C41          -13.6275    12.9124    -1.9060 C.ar    
  42 C42          -12.7090    12.2923    -1.0761 C.ar    
  43 C43          -13.1047    11.2394    -0.2730 C.ar    
  44 F44          -18.9832     4.4864     2.1585 F       
  45 F45          -13.2430    13.9448    -2.6880 F       
  46 C46           -7.2561    -4.2558     0.0357 C.ar    
  47 C47           -6.4902    -4.9370    -0.9089 C.ar    
  48 C48           -6.4772    -6.3170    -0.9174 C.ar    
  49 C49           -7.2226    -7.0241     0.0088 C.ar    
  50 C50           -7.9849    -6.3533     0.9482 C.ar    
  51 C51           -8.0004    -4.9735     0.9704 C.ar    
  52 H52            0.8494    -0.4738    -0.0729 H       
  53 H53           -0.8303    -0.4972    -0.0502 H       
  54 H54           -3.5851     2.8921     0.9242 H       
  55 H55           -3.6180     2.9075    -0.8554 H       
  56 H56           -2.5069     0.6595     0.8850 H       
  57 H57           -2.5397     0.6749    -0.8946 H       
  58 H58           -1.2294     3.0146    -0.0083 H       
  59 H59            1.9500     1.5682    -0.0700 H       
  60 H60           -4.8955     0.5524     0.0380 H       
  61 H61           -9.4656     1.6139     0.1316 H       
  62 H62           -7.3481     5.3457     0.1257 H       
  63 H63           -5.2111     4.1410     0.0807 H       
  64 H64           -9.0027     6.1244     0.2420 H       
  65 H65          -10.4119     7.9175     1.3765 H       
  66 H66          -11.9553     4.8939    -1.2231 H       
  67 H67          -14.0885     6.1112    -1.3729 H       
  68 H68          -12.5467     9.1325     1.2312 H       
  69 H69          -15.8932     9.7659     0.8348 H       
  70 H70          -14.2365     9.6312     1.4717 H       
  71 H71          -16.3585     8.6799    -1.3661 H       
  72 H72          -15.3427     7.2889    -1.8152 H       
  73 H73           -8.6516    -0.1911     1.7429 H       
  74 H74           -8.6224    -2.6482     1.7184 H       
  75 H75           -5.9293    -2.5833    -1.6152 H       
  76 H76           -5.9640    -0.1262    -1.5958 H       
  77 H77          -17.9241     8.5298     0.4824 H       
  78 H78          -19.3379     7.0560     1.8574 H       
  79 H79          -16.9024     3.7198     0.7794 H       
  80 H80          -15.4940     5.1957    -0.5987 H       
  81 H81          -16.3564    11.0741    -1.1563 H       
  82 H82          -15.6576    12.9561    -2.5815 H       
  83 H83          -11.6847    12.6339    -1.0532 H       
  84 H84          -12.3884    10.7556     0.3745 H       
  85 H85           -5.9083    -4.3860    -1.6329 H       
  86 H86           -5.8841    -6.8459    -1.6488 H       
  87 H87           -7.2097    -8.1039    -0.0017 H       
  88 H88           -8.5653    -6.9104     1.6688 H       
  89 H89           -8.5959    -4.4508     1.7043 H       
@<TRIPOS>BOND
   1    1    2 1
   2    1    6 2
   3    1    5 1
   4    2   52 1
   5    2   53 1
   6    3    4 1
   7    3    7 1
   8    3   54 1
   9    3   55 1
  10    4    5 1
  11    4   56 1
  12    4   57 1
  13    5   58 1
  14    6   59 1
  15    7    8 1
  16    7   60 1
  17    8    9 ar
  18    8   13 ar
  19    9   10 ar
  20    9   26 1
  21   10   11 ar
  22   10   61 1
  23   11   12 ar
  24   11   14 1
  25   12   13 ar
  26   12   62 1
  27   13   63 1
  28   14   15 am
  29   14   16 2
  30   15   17 1
  31   15   64 1
  32   17   18 ar
  33   17   19 ar
  34   18   22 ar
  35   18   65 1
  36   19   20 ar
  37   19   66 1
  38   20   21 ar
  39   20   67 1
  40   21   22 ar
  41   21   23 1
  42   22   68 1
  43   23   24 1
  44   23   25 1
  45   24   33 1
  46   24   69 1
  47   24   70 1
  48   25   32 1
  49   25   71 1
  50   25   72 1
  51   26   27 ar
  52   26   31 ar
  53   27   28 ar
  54   27   73 1
  55   28   29 ar
  56   28   74 1
  57   29   30 ar
  58   29   46 1
  59   30   31 ar
  60   30   75 1
  61   31   76 1
  62   32   34 ar
  63   32   38 ar
  64   33   39 ar
  65   33   43 ar
  66   34   35 ar
  67   34   77 1
  68   35   36 ar
  69   35   78 1
  70   36   37 ar
  71   36   44 1
  72   37   38 ar
  73   37   79 1
  74   38   80 1
  75   39   40 ar
  76   39   81 1
  77   40   41 ar
  78   40   82 1
  79   41   42 ar
  80   41   45 1
  81   42   43 ar
  82   42   83 1
  83   43   84 1
  84   46   47 ar
  85   46   51 ar
  86   47   48 ar
  87   47   85 1
  88   48   49 ar
  89   48   86 1
  90   49   50 ar
  91   49   87 1
  92   50   51 ar
  93   50   88 1
  94   51   89 1

#	End of record

