#	Name: ASD02039039
#	Creating user name:	WinNT
#	Creation time:	15. 06. 2019 20:17

#	Modifying user name:	WinNT
#	Modification time:	15. 06. 2019 20:17

#	Program:	/corina/corina34_cracker 3.40 0067  02.08.2006

@<TRIPOS>MOLECULE
ASD02039039
  40   43    0    0    0
SMALL
NO_CHARGES


@<TRIPOS>ATOM
   1 N1             0.0004     1.2782    -0.1866 N.2     
   2 N2             0.0283    -0.0050    -0.2754 N.2     
   3 C3             1.2266     1.7339    -0.1051 C.2     
   4 O4             2.0512     0.6708    -0.1463 O.3     
   5 C5             1.2625    -0.4159    -0.2543 C.2     
   6 N6             1.6033     3.0609     0.0032 N.pl3   
   7 C7             0.6439     4.0670    -0.0869 C.ar    
   8 C8             1.7257    -1.8477    -0.3360 C.3     
   9 O9             1.9264    -2.2060    -1.7047 O.3     
  10 C10            2.3478    -3.4742    -1.9553 C.ar    
  11 C11            2.5604    -3.8828    -3.2568 C.ar    
  12 C12            2.5685    -4.3527    -0.8975 C.ar    
  13 C13            2.9965    -5.6409    -1.1325 C.ar    
  14 C14            3.2116    -6.0745    -2.4361 C.ar    
  15 C15            2.9943    -5.1883    -3.5081 C.ar    
  16 C16           -0.4959     3.8720    -0.8613 C.ar    
  17 C17            0.8246     5.2624     0.6024 C.ar    
  18 C18           -0.1218     6.2583     0.5163 C.ar    
  19 C19           -1.2655     6.0678    -0.2650 C.ar    
  20 C20           -1.4459     4.8639    -0.9525 C.ar    
  21 N21            3.6398    -7.3614    -2.6924 N.am    
  22 C22            3.8481    -7.7832    -3.9518 C.2     
  23 C23            3.6403    -6.9354    -5.0608 C.2     
  24 C24            3.2243    -5.6582    -4.8756 C.2     
  25 O25            4.2263    -8.9264    -4.1406 O.2     
  26 C26           -2.2524     7.1014    -0.3564 C.1     
  27 N27           -3.0353     7.9213    -0.4289 N.1     
  28 H28            2.5355     3.2907     0.1418 H       
  29 H29            2.6628    -1.9580     0.2097 H       
  30 H30            0.9705    -2.4995     0.1033 H       
  31 H31            2.3923    -3.1988    -4.0755 H       
  32 H32            2.4029    -4.0208     0.1168 H       
  33 H33            3.1652    -6.3136    -0.3046 H       
  34 H34           -0.6350     2.9415    -1.3916 H       
  35 H35            1.7083     5.4089     1.2058 H       
  36 H36            0.0187     7.1854     1.0520 H       
  37 H37           -2.3281     4.7137    -1.5573 H       
  38 H38            3.7931    -7.9703    -1.9530 H       
  39 H39            3.8169    -7.3041    -6.0604 H       
  40 H40            3.0625    -5.0029    -5.7187 H       
@<TRIPOS>BOND
   1    1    2 1
   2    1    3 2
   3    2    5 2
   4    3    4 1
   5    3    6 1
   6    4    5 1
   7    5    8 1
   8    6    7 1
   9    6   28 1
  10    7   16 ar
  11    7   17 ar
  12    8    9 1
  13    8   29 1
  14    8   30 1
  15    9   10 1
  16   10   11 ar
  17   10   12 ar
  18   11   15 ar
  19   11   31 1
  20   12   13 ar
  21   12   32 1
  22   13   14 ar
  23   13   33 1
  24   14   15 ar
  25   14   21 1
  26   15   24 1
  27   16   20 ar
  28   16   34 1
  29   17   18 ar
  30   17   35 1
  31   18   19 ar
  32   18   36 1
  33   19   20 ar
  34   19   26 1
  35   20   37 1
  36   21   22 am
  37   21   38 1
  38   22   23 1
  39   22   25 2
  40   23   24 2
  41   23   39 1
  42   24   40 1
  43   26   27 3

#	End of record

