#	Name: ASD03090251
#	Creating user name:	WinNT
#	Creation time:	15. 06. 2019 20:28

#	Modifying user name:	WinNT
#	Modification time:	15. 06. 2019 20:28

#	Program:	/corina/corina34_cracker 3.40 0067  02.08.2006

@<TRIPOS>MOLECULE
ASD03090251
  45   48    0    0    0
SMALL
NO_CHARGES


@<TRIPOS>ATOM
   1 C1            -0.4694     1.6434    -1.8949 C.ar    
   2 C2            -0.3849     0.2542    -1.6859 C.ar    
   3 C3            -1.4896    -0.4185    -1.1851 C.ar    
   4 C4            -2.6439     0.3196    -0.9090 C.ar    
   5 C5            -2.6495     1.6984    -1.1437 C.ar    
   6 N6            -1.5853     2.3085    -1.6146 N.ar    
   7 C7            -3.8483    -0.3511    -0.3743 C.2     
   8 N8            -5.5536    -3.0073     1.1736 N.pl3   
   9 C9            -4.6182    -3.9989     1.4871 C.ar    
  10 C10           -3.3142    -3.6475     1.8104 C.ar    
  11 C11           -2.3921    -4.6284     2.1196 C.ar    
  12 C12           -2.7671    -5.9611     2.1072 C.ar    
  13 C13           -4.0671    -6.3139     1.7850 C.ar    
  14 C14           -4.9937    -5.3363     1.4809 C.ar    
  15 N15           -3.8875    -1.5439     0.1863 N.2     
  16 C16           -5.1392    -1.8286     0.5507 C.2     
  17 N17           -5.9185    -0.8222     0.2285 N.2     
  18 N18           -5.1031     0.1527    -0.3685 N.pl3   
  19 C19           -5.5291     1.4536    -0.8905 C.3     
  20 C20           -7.0567     1.5359    -0.8703 C.3     
  21 F21           -1.8635    -6.9189     2.4095 F       
  22 C22           -7.5036     2.8708    -1.4696 C.3     
  23 O23           -7.5212     1.4396     0.4777 O.3     
  24 C24            0.8428     2.0355    -2.4199 C.2     
  25 C25            1.5744     0.9124    -2.4823 C.2     
  26 O26            0.8526    -0.1352    -2.0507 O.3     
  27 C27           -4.4721    -7.7654     1.7720 C.3     
  28 F28           -5.8221    -7.8697     1.4203 F       
  29 F29           -3.6925    -8.4587     0.8399 F       
  30 F30           -4.2776    -8.3153     3.0436 F       
  31 H31           -1.4587    -1.4843    -1.0133 H       
  32 H32           -3.5406     2.2706    -0.9315 H       
  33 H33           -6.4902    -3.1386     1.3891 H       
  34 H34           -3.0211    -2.6081     1.8198 H       
  35 H35           -1.3778    -4.3556     2.3707 H       
  36 H36           -6.0073    -5.6118     1.2297 H       
  37 H37           -5.1142     2.2477    -0.2697 H       
  38 H38           -5.1725     1.5689    -1.9141 H       
  39 H39           -7.4725     0.7168    -1.4572 H       
  40 H40           -7.1493     2.9442    -2.4978 H       
  41 H41           -8.5919     2.9294    -1.4552 H       
  42 H42           -7.0878     3.6899    -0.8827 H       
  43 H43           -7.1323     2.0930     1.0752 H       
  44 H44            1.1574     3.0298    -2.7007 H       
  45 H45            2.5957     0.8584    -2.8294 H       
@<TRIPOS>BOND
   1    1    2 ar
   2    1   24 1
   3    1    6 ar
   4    2    3 ar
   5    2   26 1
   6    3    4 ar
   7    3   31 1
   8    4    5 ar
   9    4    7 1
  10    5    6 ar
  11    5   32 1
  12    7   15 2
  13    7   18 1
  14    8    9 1
  15    8   16 1
  16    8   33 1
  17    9   10 ar
  18    9   14 ar
  19   10   11 ar
  20   10   34 1
  21   11   12 ar
  22   11   35 1
  23   12   13 ar
  24   12   21 1
  25   13   14 ar
  26   13   27 1
  27   14   36 1
  28   15   16 1
  29   16   17 2
  30   17   18 1
  31   18   19 1
  32   19   20 1
  33   19   37 1
  34   19   38 1
  35   20   22 1
  36   20   23 1
  37   20   39 1
  38   22   40 1
  39   22   41 1
  40   22   42 1
  41   23   43 1
  42   24   25 2
  43   24   44 1
  44   25   26 1
  45   25   45 1
  46   27   28 1
  47   27   29 1
  48   27   30 1

#	End of record

