#	Name: ASD04220007
#	Creating user name:	WinNT
#	Creation time:	15. 06. 2019 20:48

#	Modifying user name:	WinNT
#	Modification time:	15. 06. 2019 20:48

#	Program:	/corina/corina34_cracker 3.40 0067  02.08.2006

@<TRIPOS>MOLECULE
ASD04220007
  52   54    0    0    0
SMALL
NO_CHARGES


@<TRIPOS>ATOM
   1 C1            -0.0184     1.5028     0.0103 C.2     
   2 C2             0.0021    -0.0041     0.0020 C.3     
   3 O3             1.0236     2.1234     0.0037 O.2     
   4 C4             1.4295    -0.4870    -0.0142 C.ar    
   5 C5             2.1315    -0.6165     1.1752 C.ar    
   6 C6             3.4448    -1.0614     1.1604 C.ar    
   7 C7             4.0540    -1.3760    -0.0390 C.ar    
   8 C8             3.3521    -1.2470    -1.2281 C.ar    
   9 C9             2.0370    -0.8061    -1.2128 C.ar    
  10 O10            3.9518    -1.5567    -2.4086 O.3     
  11 C11            5.3061    -2.0086    -2.3494 C.3     
  12 O12            1.5318    -0.3068     2.3558 O.3     
  13 C13            2.3139    -0.4638     3.5414 C.3     
  14 C14           -2.4721     1.4401     0.0216 C.3     
  15 N15           -1.1946     2.1607     0.0195 N.am    
  16 C16           -1.2493     3.6321     0.0282 C.3     
  17 C17           -1.9017     4.0848    -1.2770 C.3     
  18 C18           -3.1571     3.2984    -1.5503 C.ar    
  19 C19           -4.0757     3.8438    -2.4401 C.ar    
  20 C20           -5.2452     3.1730    -2.7439 C.ar    
  21 C21           -5.5049     1.9391    -2.1541 C.ar    
  22 C22           -4.5908     1.4011    -1.2673 C.ar    
  23 C23           -3.4190     2.0813    -0.9621 C.ar    
  24 O24           -6.6503     1.2675    -2.4480 O.3     
  25 C25           -6.8470     0.0073    -1.8037 C.3     
  26 O26           -6.1380     3.7159    -3.6143 O.3     
  27 C27           -5.8036     4.9851    -4.1794 C.3     
  28 H28           -0.4983    -0.3791     0.8948 H       
  29 H29           -0.5153    -0.3696    -0.8850 H       
  30 H30            3.9916    -1.1615     2.0863 H       
  31 H31            5.0770    -1.7221    -0.0507 H       
  32 H32            1.4890    -0.7095    -2.1384 H       
  33 H33            5.3606    -2.9151    -1.7466 H       
  34 H34            5.6628    -2.2206    -3.3574 H       
  35 H35            5.9280    -1.2349    -1.8992 H       
  36 H36            3.1943     0.1763     3.4834 H       
  37 H37            1.7176    -0.1835     4.4098 H       
  38 H38            2.6263    -1.5038     3.6356 H       
  39 H39           -2.3031     0.4013    -0.2620 H       
  40 H40           -2.9073     1.4765     1.0203 H       
  41 H41           -1.8435     3.9741     0.8756 H       
  42 H42           -0.2402     4.0384     0.0965 H       
  43 H43           -2.1505     5.1436    -1.2050 H       
  44 H44           -1.2004     3.9372    -2.0983 H       
  45 H45           -3.8736     4.8009    -2.8979 H       
  46 H46           -4.7898     0.4442    -0.8079 H       
  47 H47           -6.0345    -0.6683    -2.0713 H       
  48 H48           -6.8600     0.1498    -0.7231 H       
  49 H49           -7.7964    -0.4209    -2.1252 H       
  50 H50           -5.6888     5.7191    -3.3817 H       
  51 H51           -4.8686     4.9012    -4.7332 H       
  52 H52           -6.5983     5.3031    -4.8541 H       
@<TRIPOS>BOND
   1    1    2 1
   2    1    3 2
   3    1   15 am
   4    2    4 1
   5    2   28 1
   6    2   29 1
   7    4    5 ar
   8    4    9 ar
   9    5    6 ar
  10    5   12 1
  11    6    7 ar
  12    6   30 1
  13    7    8 ar
  14    7   31 1
  15    8    9 ar
  16    8   10 1
  17    9   32 1
  18   10   11 1
  19   11   33 1
  20   11   34 1
  21   11   35 1
  22   12   13 1
  23   13   36 1
  24   13   37 1
  25   13   38 1
  26   14   15 1
  27   14   23 1
  28   14   39 1
  29   14   40 1
  30   15   16 1
  31   16   17 1
  32   16   41 1
  33   16   42 1
  34   17   18 1
  35   17   43 1
  36   17   44 1
  37   18   19 ar
  38   18   23 ar
  39   19   20 ar
  40   19   45 1
  41   20   21 ar
  42   20   26 1
  43   21   22 ar
  44   21   24 1
  45   22   23 ar
  46   22   46 1
  47   24   25 1
  48   25   47 1
  49   25   48 1
  50   25   49 1
  51   26   27 1
  52   27   50 1
  53   27   51 1
  54   27   52 1

#	End of record

