#	Name: ASD04880101
#	Creating user name:	WinNT
#	Creation time:	15. 06. 2019 20:52

#	Modifying user name:	WinNT
#	Modification time:	15. 06. 2019 20:52

#	Program:	/corina/corina34_cracker 3.40 0067  02.08.2006

@<TRIPOS>MOLECULE
ASD04880101
  39   41    0    0    0
SMALL
NO_CHARGES


@<TRIPOS>ATOM
   1 C1            -0.0301     1.1255    -0.1328 C.2     
   2 O2            -0.0089    -0.0897    -0.0933 O.2     
   3 N3             1.1245     1.8205    -0.1154 N.am    
   4 N4             1.2418     3.2010    -0.2641 N.2     
   5 C5             2.4538     3.6350    -0.2111 C.2     
   6 C6             3.3974     2.4731     0.0027 C.3     
   7 C7             2.4665     1.2462     0.0703 C.3     
   8 C8             3.4435     5.7168     0.7367 C.ar    
   9 C9             2.8582     5.0469    -0.3391 C.ar    
  10 C10            2.6612     5.7376    -1.5436 C.ar    
  11 C11            3.0571     7.0586    -1.6142 C.ar    
  12 C12            3.6331     7.6563    -0.4989 C.ar    
  13 N13            3.8060     6.9782     0.6244 N.ar    
  14 C14            3.6570     4.9920     2.0406 C.3     
  15 O15            4.0241     8.9535    -0.5631 O.3     
  16 C16            4.6095     9.5137     0.6139 C.3     
  17 C17           -1.3218     1.8400    -0.2061 C.ar    
  18 C18           -2.5094     1.1256    -0.3727 C.ar    
  19 C19           -3.7134     1.8001    -0.4399 C.ar    
  20 C20           -3.7419     3.1824    -0.3427 C.ar    
  21 C21           -2.5676     3.8942    -0.1781 C.ar    
  22 C22           -1.3596     3.2316    -0.1033 C.ar    
  23 F23           -4.8644     1.1113    -0.6011 F       
  24 H24            4.0912     2.3851    -0.8334 H       
  25 H25            3.9404     2.5891     0.9407 H       
  26 H26            2.5435     0.7572     1.0414 H       
  27 H27            2.6985     0.5461    -0.7323 H       
  28 H28            2.2115     5.2483    -2.3949 H       
  29 H29            2.9210     7.6212    -2.5260 H       
  30 H30            4.6699     4.5904     2.0715 H       
  31 H31            3.5159     5.6859     2.8694 H       
  32 H32            2.9397     4.1756     2.1242 H       
  33 H33            3.8939     9.4638     1.4347 H       
  34 H34            5.5048     8.9507     0.8777 H       
  35 H35            4.8763    10.5540     0.4273 H       
  36 H36           -2.4872     0.0485    -0.4491 H       
  37 H37           -4.6851     3.7058    -0.3961 H       
  38 H38           -2.5966     4.9712    -0.1034 H       
  39 H39           -0.4443     3.7891     0.0301 H       
@<TRIPOS>BOND
   1    1    2 2
   2    1    3 am
   3    1   17 1
   4    3    4 1
   5    3    7 1
   6    4    5 2
   7    5    6 1
   8    5    9 1
   9    6    7 1
  10    6   24 1
  11    6   25 1
  12    7   26 1
  13    7   27 1
  14    8    9 ar
  15    8   13 ar
  16    8   14 1
  17    9   10 ar
  18   10   11 ar
  19   10   28 1
  20   11   12 ar
  21   11   29 1
  22   12   13 ar
  23   12   15 1
  24   14   30 1
  25   14   31 1
  26   14   32 1
  27   15   16 1
  28   16   33 1
  29   16   34 1
  30   16   35 1
  31   17   18 ar
  32   17   22 ar
  33   18   19 ar
  34   18   36 1
  35   19   20 ar
  36   19   23 1
  37   20   21 ar
  38   20   37 1
  39   21   22 ar
  40   21   38 1
  41   22   39 1

#	End of record

