#	Name: ASD07931842
#	Creating user name:	WinNT
#	Creation time:	15. 06. 2019 21:13

#	Modifying user name:	WinNT
#	Modification time:	15. 06. 2019 21:13

#	Program:	/corina/corina34_cracker 3.40 0067  02.08.2006

@<TRIPOS>MOLECULE
ASD07931842
  54   56    0    0    0
SMALL
NO_CHARGES


@<TRIPOS>ATOM
   1 O1            -1.5056     2.0910     0.5260 O.3     
   2 C2            -1.9749     0.8554     0.7502 C.2     
   3 C3            -0.8227    -0.0937     0.9986 C.3     
   4 C4             0.4399     0.7949     0.9454 C.3     
   5 C5            -0.1570     2.2156     1.0668 C.3     
   6 O6            -3.1429     0.5461     0.7541 O.2     
   7 C7             1.3695     0.4920     2.1223 C.3     
   8 C8             0.6602     3.2108     0.2405 C.3     
   9 O9             0.1118     4.5214     0.3947 O.3     
  10 Si10           0.9302     5.6816    -0.4080 Si      
  11 C11            0.4624     7.3573     0.2720 C.ar    
  12 C12            1.4410     8.2033     0.7592 C.ar    
  13 C13            1.0948     9.4434     1.2625 C.ar    
  14 C14           -0.2300     9.8377     1.2780 C.ar    
  15 C15           -1.2086     8.9920     0.7900 C.ar    
  16 C16           -0.8619     7.7537     0.2827 C.ar    
  17 C17            2.7659     5.4120    -0.1911 C.ar    
  18 C18            3.3997     5.8587     0.9533 C.ar    
  19 C19            4.7581     5.6593     1.1137 C.ar    
  20 C20            5.4827     5.0127     0.1300 C.ar    
  21 C21            4.8488     4.5652    -1.0140 C.ar    
  22 C22            3.4895     4.7608    -1.1725 C.ar    
  23 C23            0.5009     5.6044    -2.2192 C.3     
  24 C24           -0.9148     6.1445    -2.4312 C.3     
  25 C25            1.4948     6.4523    -3.0155 C.3     
  26 C26            0.5701     4.1530    -2.6983 C.3     
  27 H27           -0.9187    -0.5583     1.9800 H       
  28 H28           -0.7838    -0.8552     0.2196 H       
  29 H29            0.9611     0.6726    -0.0040 H       
  30 H30           -0.1928     2.5255     2.1112 H       
  31 H31            1.6953    -0.5468     2.0699 H       
  32 H32            2.2387     1.1481     2.0770 H       
  33 H33            0.8367     0.6589     3.0585 H       
  34 H34            1.6942     3.2067     0.5854 H       
  35 H35            0.6267     2.9242    -0.8106 H       
  36 H36            2.4761     7.8953     0.7471 H       
  37 H37            1.8593    10.1041     1.6438 H       
  38 H38           -0.5006    10.8062     1.6719 H       
  39 H39           -2.2437     9.2999     0.8024 H       
  40 H40           -1.6260     7.0945    -0.1020 H       
  41 H41            2.8336     6.3639     1.7219 H       
  42 H42            5.2534     6.0090     2.0075 H       
  43 H43            6.5442     4.8575     0.2550 H       
  44 H44            5.4150     4.0603    -1.7828 H       
  45 H45            2.9936     4.4079    -2.0647 H       
  46 H46           -0.9818     7.1557    -2.0297 H       
  47 H47           -1.1415     6.1611    -3.4973 H       
  48 H48           -1.6297     5.5016    -1.9177 H       
  49 H49            2.4851     6.0003    -2.9589 H       
  50 H50            1.1772     6.5022    -4.0570 H       
  51 H51            1.5303     7.4585    -2.5979 H       
  52 H52           -0.2340     3.5795    -2.2373 H       
  53 H53            0.4625     4.1228    -3.7826 H       
  54 H54            1.5311     3.7228    -2.4165 H       
@<TRIPOS>BOND
   1    1    2 1
   2    1    5 1
   3    2    3 1
   4    2    6 2
   5    3    4 1
   6    3   27 1
   7    3   28 1
   8    4    5 1
   9    4    7 1
  10    4   29 1
  11    5    8 1
  12    5   30 1
  13    7   31 1
  14    7   32 1
  15    7   33 1
  16    8    9 1
  17    8   34 1
  18    8   35 1
  19    9   10 1
  20   10   11 1
  21   10   17 1
  22   10   23 1
  23   11   12 ar
  24   11   16 ar
  25   12   13 ar
  26   12   36 1
  27   13   14 ar
  28   13   37 1
  29   14   15 ar
  30   14   38 1
  31   15   16 ar
  32   15   39 1
  33   16   40 1
  34   17   18 ar
  35   17   22 ar
  36   18   19 ar
  37   18   41 1
  38   19   20 ar
  39   19   42 1
  40   20   21 ar
  41   20   43 1
  42   21   22 ar
  43   21   44 1
  44   22   45 1
  45   23   24 1
  46   23   26 1
  47   23   25 1
  48   24   46 1
  49   24   47 1
  50   24   48 1
  51   25   49 1
  52   25   50 1
  53   25   51 1
  54   26   52 1
  55   26   53 1
  56   26   54 1

#	End of record

