#	Name: ASD01209074
#	Creating user name:	WinNT
#	Creation time:	15. 06. 2019 19:10

#	Modifying user name:	WinNT
#	Modification time:	15. 06. 2019 19:10

#	Program:	/corina/corina34_cracker 3.40 0067  02.08.2006

@<TRIPOS>MOLECULE
ASD01209074
  54   56    0    0    0
SMALL
NO_CHARGES


@<TRIPOS>ATOM
   1 C1             0.1852     1.1020     0.0463 C.ar    
   2 C2            -0.0388    -0.2752     0.0956 C.ar    
   3 C3            -1.3338    -0.7689     0.1380 C.ar    
   4 C4            -2.4116     0.1009     0.1316 C.ar    
   5 C5            -2.1969     1.4824     0.0823 C.ar    
   6 C6            -0.8941     1.9823     0.0454 C.ar    
   7 C7             1.5674     1.6259     0.0011 C.2     
   8 N8             2.5532     0.8808    -0.5371 N.am    
   9 C9            -3.3422     2.4071     0.0750 C.2     
  10 O10           -3.1546     3.6042     0.0323 O.2     
  11 C11           -4.7479     1.8658     0.1207 C.3     
  12 C12           -5.6820     2.9218     0.7150 C.3     
  13 C13           -5.2070     1.5186    -1.2969 C.3     
  14 O14           -1.5461    -2.1104     0.1855 O.3     
  15 C15           -1.1797    -2.7748     1.3128 C.ar    
  16 C16           -1.2578    -4.1594     1.3599 C.ar    
  17 C17           -0.8842    -4.8324     2.5070 C.ar    
  18 C18           -0.4328    -4.1275     3.6076 C.ar    
  19 C19           -0.3540    -2.7477     3.5632 C.ar    
  20 C20           -0.7214    -2.0702     2.4168 C.ar    
  21 S21            0.0424    -4.9890     5.0693 S.o2    
  22 O22           -0.1564    -4.0450     6.1127 O.2     
  23 O23           -0.7042    -6.1971     5.0224 O.2     
  24 O24            1.8144     2.7284     0.4493 O.2     
  25 C25            3.9487     1.3070    -0.7167 C.3     
  26 C26            4.7008     0.1405    -1.3914 C.3     
  27 C27            3.5595    -0.6637    -2.0682 C.3     
  28 C28            2.4121    -0.4988    -1.0372 C.3     
  29 C29            1.8107    -5.3242     4.8426 C.3     
  30 H30            0.7984    -0.9575     0.1004 H       
  31 H31           -3.4187    -0.2878     0.1644 H       
  32 H32           -0.7238     3.0481     0.0077 H       
  33 H33           -4.7721     0.9693     0.7403 H       
  34 H34           -5.6578     3.8183     0.0954 H       
  35 H35           -6.6987     2.5303     0.7480 H       
  36 H36           -5.3549     3.1692     1.7249 H       
  37 H37           -5.1828     2.4150    -1.9165 H       
  38 H38           -4.5416     0.7662    -1.7203 H       
  39 H39           -6.2238     1.1271    -1.2639 H       
  40 H40           -1.6106    -4.7104     0.5007 H       
  41 H41           -0.9451    -5.9100     2.5443 H       
  42 H42           -0.0011    -2.1995     4.4242 H       
  43 H43           -0.6593    -0.9926     2.3825 H       
  44 H44            3.9874     2.1907    -1.3536 H       
  45 H45            4.3971     1.5260     0.2524 H       
  46 H46            5.4035     0.5141    -2.1362 H       
  47 H47            5.2136    -0.4693    -0.6476 H       
  48 H48            3.2908    -0.2267    -3.0300 H       
  49 H49            3.8339    -1.7126    -2.1803 H       
  50 H50            2.5263    -1.2161    -0.2245 H       
  51 H51            1.4445    -0.6255    -1.5230 H       
  52 H52            2.3479    -4.3821     4.7326 H       
  53 H53            2.1929    -5.8612     5.7106 H       
  54 H54            1.9538    -5.9306     3.9482 H       
@<TRIPOS>BOND
   1    1    2 ar
   2    1    7 1
   3    1    6 ar
   4    2    3 ar
   5    2   30 1
   6    3    4 ar
   7    3   14 1
   8    4    5 ar
   9    4   31 1
  10    5    6 ar
  11    5    9 1
  12    6   32 1
  13    7    8 am
  14    7   24 2
  15    8   25 1
  16    8   28 1
  17    9   10 2
  18    9   11 1
  19   11   12 1
  20   11   13 1
  21   11   33 1
  22   12   34 1
  23   12   35 1
  24   12   36 1
  25   13   37 1
  26   13   38 1
  27   13   39 1
  28   14   15 1
  29   15   16 ar
  30   15   20 ar
  31   16   17 ar
  32   16   40 1
  33   17   18 ar
  34   17   41 1
  35   18   19 ar
  36   18   21 1
  37   19   20 ar
  38   19   42 1
  39   20   43 1
  40   21   22 2
  41   21   23 2
  42   21   29 1
  43   25   26 1
  44   25   44 1
  45   25   45 1
  46   26   27 1
  47   26   46 1
  48   26   47 1
  49   27   28 1
  50   27   48 1
  51   27   49 1
  52   28   50 1
  53   28   51 1
  54   29   52 1
  55   29   53 1
  56   29   54 1

#	End of record

