#	Name: ASD01915386
#	Creating user name:	WinNT
#	Creation time:	15. 06. 2019 20:05

#	Modifying user name:	WinNT
#	Modification time:	15. 06. 2019 20:05

#	Program:	/corina/corina34_cracker 3.40 0067  02.08.2006

@<TRIPOS>MOLECULE
ASD01915386
  44   47    0    0    0
SMALL
NO_CHARGES


@<TRIPOS>ATOM
   1 C1             0.0013     1.3492    -0.0642 C.ar    
   2 C2             0.0385    -0.0429    -0.0912 C.ar    
   3 N3             1.1987    -0.6865    -0.0941 N.ar    
   4 C4             2.3467    -0.0407    -0.0722 C.ar    
   5 C5             2.3834     1.3414    -0.0448 C.ar    
   6 C6             1.1928     2.0537    -0.0408 C.ar    
   7 C7             3.7040     2.0670    -0.0189 C.3     
   8 N8             4.7697     1.1505     0.4123 N.am    
   9 C9             5.7551     1.0253    -0.6771 C.3     
  10 C10            5.5973     2.3246    -1.5057 C.3     
  11 C11            4.0640     2.5525    -1.4389 C.3     
  12 C12            4.8353     0.5285     1.6062 C.2     
  13 O13            4.0190     0.7848     2.4715 O.2     
  14 C14            5.8907    -0.4574     1.8624 C.2     
  15 C15           -1.2296    -0.8124    -0.1165 C.ar    
  16 C16           -1.2016    -2.2049    -0.1437 C.ar    
  17 C17           -2.3868    -2.9166    -0.1672 C.ar    
  18 C18           -3.5991    -2.2465    -0.1638 C.ar    
  19 C19           -3.6303    -0.8640    -0.1374 C.ar    
  20 C20           -2.4530    -0.1446    -0.1075 C.ar    
  21 F21           -2.3624    -4.2672    -0.1940 F       
  22 C22            1.1966     3.5604    -0.0117 C.3     
  23 C23            6.1440    -1.0685     3.0468 C.2     
  24 N24            7.1454    -1.9115     3.0124 N.2     
  25 C25            7.7600    -2.0592     1.8830 C.2     
  26 S26            7.0520    -1.0661     0.6851 S.3     
  27 H27           -0.9439     1.8719    -0.0660 H       
  28 H28            3.2717    -0.5982    -0.0754 H       
  29 H29            3.6471     2.9160     0.6623 H       
  30 H30            6.7638     0.9551    -0.2700 H       
  31 H31            5.5318     0.1536    -1.2922 H       
  32 H32            6.1358     3.1513    -1.0423 H       
  33 H33            5.9255     2.1743    -2.5342 H       
  34 H34            3.5520     1.9540    -2.1924 H       
  35 H35            3.8257     3.6095    -1.5570 H       
  36 H36           -0.2564    -2.7273    -0.1466 H       
  37 H37           -4.5230    -2.8054    -0.1822 H       
  38 H38           -4.5782    -0.3464    -0.1352 H       
  39 H39           -2.4795     0.9349    -0.0865 H       
  40 H40            1.2059     3.9435    -1.0321 H       
  41 H41            0.3033     3.9161     0.5018 H       
  42 H42            2.0832     3.9114     0.5163 H       
  43 H43            5.5697    -0.8759     3.9410 H       
  44 H44            8.5985    -2.7200     1.7193 H       
@<TRIPOS>BOND
   1    1    2 ar
   2    1    6 ar
   3    1   27 1
   4    2    3 ar
   5    2   15 1
   6    3    4 ar
   7    4    5 ar
   8    4   28 1
   9    5    6 ar
  10    5    7 1
  11    6   22 1
  12    7    8 1
  13    7   11 1
  14    7   29 1
  15    8    9 1
  16    8   12 am
  17    9   10 1
  18    9   30 1
  19    9   31 1
  20   10   11 1
  21   10   32 1
  22   10   33 1
  23   11   34 1
  24   11   35 1
  25   12   13 2
  26   12   14 1
  27   14   23 2
  28   14   26 1
  29   15   16 ar
  30   15   20 ar
  31   16   17 ar
  32   16   36 1
  33   17   18 ar
  34   17   21 1
  35   18   19 ar
  36   18   37 1
  37   19   20 ar
  38   19   38 1
  39   20   39 1
  40   22   40 1
  41   22   41 1
  42   22   42 1
  43   23   24 1
  44   23   43 1
  45   24   25 2
  46   25   26 1
  47   25   44 1

#	End of record

