#	Name: ASD01910215
#	Creating user name:	WinNT
#	Creation time:	15. 06. 2019 19:55

#	Modifying user name:	WinNT
#	Modification time:	15. 06. 2019 19:55

#	Program:	/corina/corina34_cracker 3.40 0067  02.08.2006

@<TRIPOS>MOLECULE
ASD01910215
  44   47    0    0    0
SMALL
NO_CHARGES


@<TRIPOS>ATOM
   1 C1             0.9955     1.4957    -0.4133 C.2     
   2 C2             0.9795    -0.0112    -0.4130 C.3     
   3 C3             0.8869    -0.5207     1.0271 C.3     
   4 C4             0.9037    -2.0510     1.0306 C.3     
   5 C5            -0.3094    -2.5728     0.2541 C.3     
   6 N6            -0.3065    -1.9724    -1.0868 N.am    
   7 C7            -0.2327    -0.5098    -1.2058 C.3     
   8 C8            -0.3704    -2.7485    -2.1868 C.2     
   9 C9            -0.3597    -4.2210    -2.0543 C.ar    
  10 O10           -0.4368    -2.2379    -3.2879 O.2     
  11 C11           -1.2375    -4.8512    -1.1716 C.ar    
  12 C12           -1.2221    -6.2281    -1.0526 C.ar    
  13 C13           -0.3370    -6.9807    -1.8076 C.ar    
  14 C14            0.5353    -6.3599    -2.6836 C.ar    
  15 C15            0.5246    -4.9868    -2.8159 C.ar    
  16 N16            1.9464     2.2635    -0.8842 N.2     
  17 C17            1.5287     3.5317    -0.6701 C.2     
  18 N18            0.3601     3.4601    -0.0875 N.2     
  19 O19            0.0393     2.2999     0.0617 O.3     
  20 C20            2.2598     4.7722    -1.0284 C.ar    
  21 C21            1.7031     6.0180    -0.7452 C.ar    
  22 C22            2.3864     7.1688    -1.0795 C.ar    
  23 C23            3.6246     7.0874    -1.6962 C.ar    
  24 C24            4.1818     5.8507    -1.9796 C.ar    
  25 C25            3.5077     4.6949    -1.6439 C.ar    
  26 F26           -2.0709    -6.8410    -0.1988 F       
  27 F27            4.2902     8.2168    -2.0223 F       
  28 H28            1.8944    -0.3848    -0.8730 H       
  29 H29            1.7357    -0.1469     1.5998 H       
  30 H30           -0.0398    -0.1667     1.4786 H       
  31 H31            1.8190    -2.4059     0.5568 H       
  32 H32            0.8613    -2.4130     2.0579 H       
  33 H33           -0.2496    -3.6578     0.1688 H       
  34 H34           -1.2247    -2.2952     0.7768 H       
  35 H35           -1.1418    -0.0640    -0.8022 H       
  36 H36           -0.1223    -0.2336    -2.2545 H       
  37 H37           -1.9270    -4.2646    -0.5825 H       
  38 H38           -0.3278    -8.0564    -1.7115 H       
  39 H39            1.2230    -6.9521    -3.2690 H       
  40 H40            1.2065    -4.5042    -3.5004 H       
  41 H41            0.7379     6.0823    -0.2649 H       
  42 H42            1.9555     8.1346    -0.8607 H       
  43 H43            5.1472     5.7917    -2.4603 H       
  44 H44            3.9427     3.7314    -1.8651 H       
@<TRIPOS>BOND
   1    1    2 1
   2    1   16 2
   3    1   19 1
   4    2    3 1
   5    2    7 1
   6    2   28 1
   7    3    4 1
   8    3   29 1
   9    3   30 1
  10    4    5 1
  11    4   31 1
  12    4   32 1
  13    5    6 1
  14    5   33 1
  15    5   34 1
  16    6    7 1
  17    6    8 am
  18    7   35 1
  19    7   36 1
  20    8    9 1
  21    8   10 2
  22    9   11 ar
  23    9   15 ar
  24   11   12 ar
  25   11   37 1
  26   12   13 ar
  27   12   26 1
  28   13   14 ar
  29   13   38 1
  30   14   15 ar
  31   14   39 1
  32   15   40 1
  33   16   17 1
  34   17   18 2
  35   17   20 1
  36   18   19 1
  37   20   21 ar
  38   20   25 ar
  39   21   22 ar
  40   21   41 1
  41   22   23 ar
  42   22   42 1
  43   23   24 ar
  44   23   27 1
  45   24   25 ar
  46   24   43 1
  47   25   44 1

#	End of record

