#	Name: ASD01883484
#	Creating user name:	WinNT
#	Creation time:	15. 06. 2019 19:46

#	Modifying user name:	WinNT
#	Modification time:	15. 06. 2019 19:46

#	Program:	/corina/corina34_cracker 3.40 0067  02.08.2006

@<TRIPOS>MOLECULE
ASD01883484
  57   61    0    0    0
SMALL
NO_CHARGES


@<TRIPOS>ATOM
   1 F1             1.2456     6.8372    -1.5339 F       
   2 N2             0.2323     0.8368    -0.0398 N.am    
   3 C3            -0.2327     0.2674    -1.1673 C.2     
   4 C4            -1.5257    -0.3070    -1.1863 C.2     
   5 C5            -2.2989    -0.2673    -0.0138 C.2     
   6 C6            -1.7574     0.3420     1.1333 C.2     
   7 C7            -0.5145     0.8698     1.0944 C.2     
   8 O8             0.4592     0.2470    -2.1712 O.2     
   9 C9            -2.0363    -0.9164    -2.3772 C.1     
  10 N10           -2.4414    -1.3999    -3.3220 N.1     
  11 N11           -3.5624    -0.8137     0.0122 N.pl3   
  12 C12           -4.7392     0.0326     0.2524 C.3     
  13 C13           -5.5413    -0.5571     1.4167 C.3     
  14 C14           -5.8708    -2.0207     1.1144 C.3     
  15 C15           -4.5726    -2.8182     0.9692 C.3     
  16 C16           -3.7601    -2.2532    -0.2057 C.3     
  17 C17            1.5730     1.4273    -0.0341 C.3     
  18 C18            1.4850     2.8771    -0.4360 C.ar    
  19 C19            1.3033     3.8513     0.5279 C.ar    
  20 C20            1.2229     5.1811     0.1605 C.ar    
  21 C21            1.3245     5.5376    -1.1736 C.ar    
  22 C22            1.5065     4.5610    -2.1381 C.ar    
  23 C23            1.5918     3.2323    -1.7678 C.ar    
  24 N24           -6.6684    -2.5800     2.2139 N.3     
  25 C25           -7.9592    -1.8676     2.3488 C.3     
  26 C26           -8.9522    -2.9067     2.8178 C.ar    
  27 C27           -8.4196    -4.1598     2.5667 C.ar    
  28 C28           -7.0624    -3.9778     1.9259 C.3     
  29 C29          -10.1975    -2.7901     3.4057 C.ar    
  30 C30          -10.9124    -3.9234     3.7434 C.ar    
  31 C31          -10.3807    -5.1772     3.4926 C.ar    
  32 C32           -9.1332    -5.2937     2.9037 C.ar    
  33 F33          -11.0786    -6.2859     3.8227 F       
  34 H34           -2.3340     0.3843     2.0456 H       
  35 H35           -0.1095     1.3349     1.9810 H       
  36 H36           -4.4173     1.0428     0.5051 H       
  37 H37           -5.3600     0.0579    -0.6432 H       
  38 H38           -4.9514    -0.4985     2.3315 H       
  39 H39           -6.4663     0.0054     1.5431 H       
  40 H40           -6.4395    -2.0807     0.1864 H       
  41 H41           -3.9919    -2.7383     1.8882 H       
  42 H42           -4.8082    -3.8649     0.7771 H       
  43 H43           -4.3026    -2.4161    -1.1370 H       
  44 H44           -2.7914    -2.7508    -0.2529 H       
  45 H45            1.9984     1.3530     0.9667 H       
  46 H46            2.2086     0.8926    -0.7398 H       
  47 H47            1.2237     3.5730     1.5684 H       
  48 H48            1.0806     5.9420     0.9136 H       
  49 H49            1.5858     4.8379    -3.1790 H       
  50 H50            1.7338     2.4703    -2.5199 H       
  51 H51           -7.8733    -1.0692     3.0859 H       
  52 H52           -8.2669    -1.4604     1.3857 H       
  53 H53           -7.1299    -4.1358     0.8496 H       
  54 H54           -6.3432    -4.6697     2.3644 H       
  55 H55          -10.6121    -1.8124     3.6017 H       
  56 H56          -11.8857    -3.8313     4.2024 H       
  57 H57           -8.7179    -6.2712     2.7075 H       
@<TRIPOS>BOND
   1    1   21 1
   2    2    3 am
   3    2   17 1
   4    2    7 1
   5    3    4 1
   6    3    8 2
   7    4    5 2
   8    4    9 1
   9    5    6 1
  10    5   11 1
  11    6    7 2
  12    6   34 1
  13    7   35 1
  14    9   10 3
  15   11   12 1
  16   11   16 1
  17   12   13 1
  18   12   36 1
  19   12   37 1
  20   13   14 1
  21   13   38 1
  22   13   39 1
  23   14   15 1
  24   14   24 1
  25   14   40 1
  26   15   16 1
  27   15   41 1
  28   15   42 1
  29   16   43 1
  30   16   44 1
  31   17   18 1
  32   17   45 1
  33   17   46 1
  34   18   19 ar
  35   18   23 ar
  36   19   20 ar
  37   19   47 1
  38   20   21 ar
  39   20   48 1
  40   21   22 ar
  41   22   23 ar
  42   22   49 1
  43   23   50 1
  44   24   25 1
  45   24   28 1
  46   25   26 1
  47   25   51 1
  48   25   52 1
  49   26   27 ar
  50   26   29 ar
  51   27   28 1
  52   27   32 ar
  53   28   53 1
  54   28   54 1
  55   29   30 ar
  56   29   55 1
  57   30   31 ar
  58   30   56 1
  59   31   32 ar
  60   31   33 1
  61   32   57 1

#	End of record

