#	Name: ASD01884788
#	Creating user name:	WinNT
#	Creation time:	15. 06. 2019 19:48

#	Modifying user name:	WinNT
#	Modification time:	15. 06. 2019 19:48

#	Program:	/corina/corina34_cracker 3.40 0067  02.08.2006

@<TRIPOS>MOLECULE
ASD01884788
  48   51    0    0    0
SMALL
NO_CHARGES


@<TRIPOS>ATOM
   1 C1            -0.4118     1.2889     0.2298 C.3     
   2 C2            -0.1476    -0.2170     0.1710 C.3     
   3 H3            -1.0887    -0.7563     0.2797 H       
   4 C4             0.4916    -0.5712    -1.1715 C.3     
   5 N5             1.0587    -1.9151    -1.1850 N.am    
   6 C6             1.7338    -2.4146    -0.1220 C.2     
   7 O7             2.3776    -3.4447    -0.1969 O.2     
   8 C8             1.6469    -1.6464     1.1231 C.2     
   9 C9             2.3316    -1.7566     2.3173 C.2     
  10 C10            1.8459    -0.7353     3.1641 C.2     
  11 N11            0.9251    -0.0575     2.5226 N.2     
  12 N12            0.7618    -0.5968     1.2543 N.pl3   
  13 C13            3.3403    -2.7217     2.6365 C.1     
  14 C14            4.1672    -3.5128     2.8981 C.1     
  15 C15            5.1759    -4.4779     3.2172 C.ar    
  16 C16            5.5672    -5.4388     2.2716 C.ar    
  17 C17            6.5430    -6.3474     2.6258 C.ar    
  18 C18            7.1038    -6.2829     3.8992 C.ar    
  19 N19            8.0864    -7.1944     4.2610 N.pl3   
  20 N20            6.7131    -5.3636     4.7702 N.ar    
  21 C21            5.7894    -4.4736     4.4722 C.ar    
  22 C22            0.9016    -2.7059    -2.3207 C.ar    
  23 C23            0.4266    -2.1360    -3.4966 C.ar    
  24 C24            0.2752    -2.9332    -4.6176 C.ar    
  25 C25            0.6055    -4.2781    -4.5234 C.ar    
  26 C26            1.0719    -4.7774    -3.3231 C.ar    
  27 C27            1.4322    -6.2367    -3.2143 C.3     
  28 F28            2.7803    -6.4101    -3.5454 F       
  29 N29            1.2111    -3.9923    -2.2723 N.ar    
  30 C30            0.4563    -5.1842    -5.7183 C.3     
  31 F31           -0.0300    -4.4479    -6.8040 F       
  32 F32            1.7010    -5.7320    -6.0464 F       
  33 F33           -0.4407    -6.2137    -5.4138 F       
  34 H34            0.5296     1.8274     0.1210 H       
  35 H35           -1.0873     1.5710    -0.5778 H       
  36 H36           -0.8660     1.5409     1.1881 H       
  37 H37           -0.2660    -0.5007    -1.9520 H       
  38 H38            1.2829     0.1472    -1.3855 H       
  39 H39            2.1782    -0.5445     4.1738 H       
  40 H40            5.1153    -5.4663     1.2911 H       
  41 H41            6.8682    -7.1008     1.9236 H       
  42 H42            8.3777    -7.8699     3.6288 H       
  43 H43            8.4816    -7.1557     5.1460 H       
  44 H44            5.5003    -3.7363     5.2064 H       
  45 H45            0.1787    -1.0855    -3.5345 H       
  46 H46           -0.0920    -2.5184    -5.5447 H       
  47 H47            1.2621    -6.5777    -2.1931 H       
  48 H48            0.8125    -6.8159    -3.8988 H       
@<TRIPOS>BOND
   1    1    2 1
   2    1   34 1
   3    1   35 1
   4    1   36 1
   5    2    3 1
   6    2   12 1
   7    2    4 1
   8    4    5 1
   9    4   37 1
  10    4   38 1
  11    5    6 am
  12    5   22 1
  13    6    7 2
  14    6    8 1
  15    8   12 1
  16    8    9 2
  17    9   10 1
  18    9   13 1
  19   10   11 2
  20   10   39 1
  21   11   12 1
  22   13   14 3
  23   14   15 1
  24   15   21 ar
  25   15   16 ar
  26   16   17 ar
  27   16   40 1
  28   17   18 ar
  29   17   41 1
  30   18   19 1
  31   18   20 ar
  32   19   42 1
  33   19   43 1
  34   20   21 ar
  35   21   44 1
  36   22   29 ar
  37   22   23 ar
  38   23   24 ar
  39   23   45 1
  40   24   25 ar
  41   24   46 1
  42   25   26 ar
  43   25   30 1
  44   26   27 1
  45   26   29 ar
  46   27   28 1
  47   27   47 1
  48   27   48 1
  49   30   31 1
  50   30   32 1
  51   30   33 1

#	End of record

