#	Name: ASD02039036
#	Creating user name:	WinNT
#	Creation time:	15. 06. 2019 20:17

#	Modifying user name:	WinNT
#	Modification time:	15. 06. 2019 20:17

#	Program:	/corina/corina34_cracker 3.40 0067  02.08.2006

@<TRIPOS>MOLECULE
ASD02039036
  39   42    0    0    0
SMALL
NO_CHARGES


@<TRIPOS>ATOM
   1 N1            -0.0167     1.2912     0.1670 N.2     
   2 N2            -0.0038     0.0050     0.1935 N.2     
   3 C3             1.2121     1.7350     0.0620 C.2     
   4 O4             2.0225     0.6610     0.0220 O.3     
   5 C5             1.2228    -0.4198     0.1073 C.2     
   6 N6             1.6034     3.0607     0.0028 N.pl3   
   7 C7             0.6403     4.0705    -0.0881 C.ar    
   8 C8             1.6682    -1.8595     0.1040 C.3     
   9 O9             1.7051    -2.3436    -1.2400 O.3     
  10 C10            2.0897    -3.6351    -1.4205 C.ar    
  11 C11            2.1461    -4.1633    -2.6948 C.ar    
  12 C12            2.4305    -4.4169    -0.3196 C.ar    
  13 C13            2.8234    -5.7271    -0.4835 C.ar    
  14 C14            2.8820    -6.2805    -1.7580 C.ar    
  15 C15            2.5430    -5.4923    -2.8741 C.ar    
  16 C16            1.0180     5.4043     0.0134 C.ar    
  17 C17           -0.6947     3.7431    -0.2857 C.ar    
  18 C18           -1.6441     4.7437    -0.3756 C.ar    
  19 C19           -1.2652     6.0707    -0.2688 C.ar    
  20 C20            0.0638     6.4001    -0.0773 C.ar    
  21 N21            3.2726    -7.5912    -1.9432 N.am    
  22 C22            3.3297    -8.1286    -3.1742 C.2     
  23 C23            2.9956    -7.3823    -4.3244 C.2     
  24 C24            2.6086    -6.0878    -4.2101 C.2     
  25 O25            3.6791    -9.2896    -3.3000 O.2     
  26 Cl26           2.6864     5.8190     0.2544 Cl      
  27 Cl27          -3.3132     4.3357    -0.6232 Cl      
  28 H28            2.5457     3.2897     0.0243 H       
  29 H29            2.6627    -1.9331     0.5441 H       
  30 H30            0.9678    -2.4579     0.6867 H       
  31 H31            1.8851    -3.5543    -3.5477 H       
  32 H32            2.3866    -3.9919     0.6723 H       
  33 H33            3.0861    -6.3241     0.3773 H       
  34 H34           -0.9908     2.7079    -0.3694 H       
  35 H35           -2.0089     6.8507    -0.3397 H       
  36 H36            0.3561     7.4364     0.0059 H       
  37 H37            3.5098    -8.1325    -1.1739 H       
  38 H38            3.0520    -7.8428    -5.2997 H       
  39 H39            2.3510    -5.5096    -5.0851 H       
@<TRIPOS>BOND
   1    1    2 1
   2    1    3 2
   3    2    5 2
   4    3    4 1
   5    3    6 1
   6    4    5 1
   7    5    8 1
   8    6    7 1
   9    6   28 1
  10    7   16 ar
  11    7   17 ar
  12    8    9 1
  13    8   29 1
  14    8   30 1
  15    9   10 1
  16   10   11 ar
  17   10   12 ar
  18   11   15 ar
  19   11   31 1
  20   12   13 ar
  21   12   32 1
  22   13   14 ar
  23   13   33 1
  24   14   15 ar
  25   14   21 1
  26   15   24 1
  27   16   26 1
  28   16   20 ar
  29   17   18 ar
  30   17   34 1
  31   18   19 ar
  32   18   27 1
  33   19   20 ar
  34   19   35 1
  35   20   36 1
  36   21   22 am
  37   21   37 1
  38   22   23 1
  39   22   25 2
  40   23   24 2
  41   23   38 1
  42   24   39 1

#	End of record

