#	Name: ASD05740008
#	Creating user name:	WinNT
#	Creation time:	15. 06. 2019 21:02

#	Modifying user name:	WinNT
#	Modification time:	15. 06. 2019 21:02

#	Program:	/corina/corina34_cracker 3.40 0067  02.08.2006

@<TRIPOS>MOLECULE
ASD05740008
  52   55    0    0    0
SMALL
NO_CHARGES


@<TRIPOS>ATOM
   1 C1            -0.1733     1.1184     0.7883 C.ar    
   2 C2             0.9976     3.1194     0.6301 C.ar    
   3 N3            -0.1676     3.7514     0.5743 N.ar    
   4 C4            -0.2497     5.0613     0.4674 C.ar    
   5 C5             0.9125     5.8329     0.4087 C.ar    
   6 C6             2.1687     5.1943     0.4654 C.ar    
   7 C7             2.1980     3.8119     0.5841 C.ar    
   8 C8             0.8636     7.2906     0.2890 C.2     
   9 C9             2.0407     7.9674     0.2376 C.2     
  10 C10            3.2609     7.2626     0.2997 C.2     
  11 O11            3.2991     5.9240     0.4096 O.3     
  12 C12            2.0425     9.4693     0.1139 C.3     
  13 C13            2.1617    10.0860     1.4838 C.ar    
  14 C14            1.0241    10.4737     2.1686 C.ar    
  15 O15            4.3073     7.8836     0.2520 O.2     
  16 C16            3.5155    10.8281     3.3222 C.ar    
  17 C17            2.3714    11.2210     4.0025 C.ar    
  18 C18            1.1290    11.0398     3.4253 C.ar    
  19 O19            1.0148     1.7679     0.7401 O.3     
  20 N20            4.7742    11.0102     3.9037 N.am    
  21 S21            4.9648    10.8300     5.5388 S.o2    
  22 O22            6.3640    10.9661     5.7456 O.2     
  23 O23            4.0472    11.7570     6.1028 O.2     
  24 C24           -0.4537     8.0197     0.2241 C.3     
  25 N25           -0.1840    -0.2004     0.8955 N.ar    
  26 C26           -1.3262    -0.8659     0.9453 C.ar    
  27 C27           -2.5201    -0.1646     0.8837 C.ar    
  28 C28           -2.4714     1.2161     0.7716 C.ar    
  29 N29           -1.2945     1.8188     0.7326 N.ar    
  30 C30            4.4348     9.1273     5.8713 C.3     
  31 C31            4.5658     8.8354     7.3675 C.3     
  32 C32            3.4076    10.2586     2.0575 C.ar    
  33 F33            4.5184     9.8745     1.3913 F       
  34 H34           -1.2172     5.5393     0.4249 H       
  35 H35            3.1391     3.2841     0.6308 H       
  36 H36            2.8869     9.7823    -0.5002 H       
  37 H37            1.1132     9.7966    -0.3523 H       
  38 H38            0.0516    10.3342     1.7201 H       
  39 H39            2.4521    11.6678     4.9825 H       
  40 H40            0.2384    11.3412     3.9568 H       
  41 H41            5.5356    11.2421     3.3493 H       
  42 H42           -1.2704     7.3000     0.2799 H       
  43 H43           -0.5252     8.7159     1.0597 H       
  44 H44           -0.5183     8.5705    -0.7143 H       
  45 H45           -1.3284    -1.9424     1.0324 H       
  46 H46           -3.4671    -0.6823     0.9218 H       
  47 H47           -3.3831     1.7929     0.7212 H       
  48 H48            3.3954     9.0043     5.5668 H       
  49 H49            5.0623     8.4352     5.3098 H       
  50 H50            5.6051     8.9584     7.6720 H       
  51 H51            3.9382     9.5275     7.9290 H       
  52 H52            4.2473     7.8123     7.5673 H       
@<TRIPOS>BOND
   1    1   25 ar
   2    1   19 1
   3    1   29 ar
   4    2    3 ar
   5    2   19 1
   6    2    7 ar
   7    3    4 ar
   8    4    5 ar
   9    4   34 1
  10    5    6 ar
  11    5    8 1
  12    6    7 ar
  13    6   11 1
  14    7   35 1
  15    8    9 2
  16    8   24 1
  17    9   10 1
  18    9   12 1
  19   10   11 1
  20   10   15 2
  21   12   13 1
  22   12   36 1
  23   12   37 1
  24   13   14 ar
  25   13   32 ar
  26   14   18 ar
  27   14   38 1
  28   16   17 ar
  29   16   20 1
  30   16   32 ar
  31   17   18 ar
  32   17   39 1
  33   18   40 1
  34   20   21 am
  35   20   41 1
  36   21   22 2
  37   21   23 2
  38   21   30 1
  39   24   42 1
  40   24   43 1
  41   24   44 1
  42   25   26 ar
  43   26   27 ar
  44   26   45 1
  45   27   28 ar
  46   27   46 1
  47   28   29 ar
  48   28   47 1
  49   30   31 1
  50   30   48 1
  51   30   49 1
  52   31   50 1
  53   31   51 1
  54   31   52 1
  55   32   33 1

#	End of record

