#	Name: ASD08178489
#	Creating user name:	WinNT
#	Creation time:	15. 06. 2019 21:19

#	Modifying user name:	WinNT
#	Modification time:	15. 06. 2019 21:19

#	Program:	/corina/corina34_cracker 3.40 0067  02.08.2006

@<TRIPOS>MOLECULE
ASD08178489
  82   86    0    0    0
SMALL
NO_CHARGES


@<TRIPOS>ATOM
   1 C1            -4.0297    -3.8116     2.1778 C.ar    
   2 C2            -4.1781    -2.5051     1.7536 C.ar    
   3 C3            -5.2437    -1.7479     2.2033 C.ar    
   4 C4            -6.1639    -2.2959     3.0782 C.ar    
   5 C5            -6.0200    -3.6016     3.5052 C.ar    
   6 C6            -4.9513    -4.3636     3.0553 C.ar    
   7 C7            -3.1772    -1.9048     0.8003 C.3     
   8 C8            -3.6241    -2.1506    -0.6178 C.2     
   9 N9            -2.8793    -1.7001    -1.6468 N.am    
  10 O10           -4.6540    -2.7538    -0.8331 O.2     
  11 C11           -3.2345    -2.0193    -2.9569 C.ar    
  12 C12           -2.5318    -1.4683    -4.0266 C.ar    
  13 N13           -4.2379    -2.8521    -3.1901 N.ar    
  14 N14           -4.5958    -3.1718    -4.3804 N.ar    
  15 C15           -3.9903    -2.6941    -5.4499 C.ar    
  16 C16           -2.9239    -1.8179    -5.3099 C.ar    
  17 C17           -4.4528    -3.1046    -6.8242 C.3     
  18 C18           -4.4424    -4.6308    -6.9311 C.3     
  19 C19           -4.9120    -5.0475    -8.3263 C.3     
  20 C20           -4.9016    -6.5738    -8.4332 C.3     
  21 C21           -5.3641    -6.9842    -9.8075 C.2     
  22 N22           -4.6104    -7.1621   -10.8457 N.2     
  23 N23           -5.1907    -7.5073   -11.9125 N.2     
  24 C24           -6.4809    -7.6528   -11.8772 C.2     
  25 S25           -7.0282    -7.3162   -10.2892 S.3     
  26 N26           -7.2842    -8.0257   -12.9495 N.am    
  27 C27           -6.7302    -8.2704   -14.1535 C.2     
  28 C28           -7.6007    -8.6745   -15.3154 C.3     
  29 O29           -5.5310    -8.1654   -14.3019 O.2     
  30 C30           -8.5241    -7.5377   -15.6705 C.ar    
  31 C31           -9.8046    -7.4993   -15.1509 C.ar    
  32 C32          -10.6516    -6.4566   -15.4766 C.ar    
  33 C33          -10.2181    -5.4520   -16.3215 C.ar    
  34 C34           -8.9374    -5.4899   -16.8403 C.ar    
  35 C35           -8.0888    -6.5304   -16.5111 C.ar    
  36 O36           -6.7644    -8.9938   -16.4587 O.3     
  37 C37           -7.2325    -9.9119   -17.3187 C.2     
  38 O38           -8.3056   -10.4316   -17.1227 O.2     
  39 C39           -6.4198   -10.2946   -18.5286 C.3     
  40 C40           -5.1453   -10.9660   -18.0859 C.ar    
  41 O41           -7.1737   -11.1940   -19.3439 O.3     
  42 C42           -3.9855   -10.2263   -17.9502 C.ar    
  43 C43           -2.8164   -10.8423   -17.5441 C.ar    
  44 C44           -2.8074   -12.1978   -17.2733 C.ar    
  45 C45           -3.9675   -12.9373   -17.4081 C.ar    
  46 C46           -5.1375   -12.3206   -17.8100 C.ar    
  47 O47           -4.8078    -5.6486     3.4737 O.3     
  48 C48           -5.7945    -6.1508     4.3772 C.3     
  49 F49           -7.0544    -6.0910     3.7721 F       
  50 F50           -5.4961    -7.4782     4.7028 F       
  51 F51           -5.7989    -5.3747     5.5412 F       
  52 H52           -3.1993    -4.4041     1.8230 H       
  53 H53           -5.3576    -0.7266     1.8711 H       
  54 H54           -6.9956    -1.7023     3.4281 H       
  55 H55           -6.7385    -4.0288     4.1890 H       
  56 H56           -3.1048    -0.8318     0.9776 H       
  57 H57           -2.2024    -2.3659     0.9591 H       
  58 H58           -2.0963    -1.1537    -1.4760 H       
  59 H59           -1.7078    -0.7900    -3.8614 H       
  60 H60           -2.4167    -1.4167    -6.1748 H       
  61 H61           -5.4645    -2.7354    -6.9924 H       
  62 H62           -3.7830    -2.6833    -7.5739 H       
  63 H63           -3.4307    -4.9999    -6.7629 H       
  64 H64           -5.1122    -5.0521    -6.1814 H       
  65 H65           -5.9237    -4.6784    -8.4945 H       
  66 H66           -4.2422    -4.6262    -9.0760 H       
  67 H67           -3.8899    -6.9429    -8.2650 H       
  68 H68           -5.5713    -6.9951    -7.6836 H       
  69 H69           -8.2433    -8.1097   -12.8309 H       
  70 H70           -8.1901    -9.5492   -15.0409 H       
  71 H71          -10.1432    -8.2842   -14.4909 H       
  72 H72          -11.6523    -6.4270   -15.0713 H       
  73 H73          -10.8802    -4.6377   -16.5765 H       
  74 H74           -8.5988    -4.7052   -17.5006 H       
  75 H75           -7.0882    -6.5600   -16.9164 H       
  76 H76           -6.1786    -9.3996   -19.1022 H       
  77 H77           -7.4237   -12.0143   -18.8970 H       
  78 H78           -3.9925    -9.1673   -18.1618 H       
  79 H79           -1.9101   -10.2645   -17.4387 H       
  80 H80           -1.8939   -12.6791   -16.9567 H       
  81 H81           -3.9604   -13.9964   -17.1969 H       
  82 H82           -6.0439   -12.8983   -17.9154 H       
@<TRIPOS>BOND
   1    1    2 ar
   2    1    6 ar
   3    1   52 1
   4    2    3 ar
   5    2    7 1
   6    3    4 ar
   7    3   53 1
   8    4    5 ar
   9    4   54 1
  10    5    6 ar
  11    5   55 1
  12    6   47 1
  13    7    8 1
  14    7   56 1
  15    7   57 1
  16    8    9 am
  17    8   10 2
  18    9   11 1
  19    9   58 1
  20   11   12 ar
  21   11   13 ar
  22   12   16 ar
  23   12   59 1
  24   13   14 ar
  25   14   15 ar
  26   15   16 ar
  27   15   17 1
  28   16   60 1
  29   17   18 1
  30   17   61 1
  31   17   62 1
  32   18   19 1
  33   18   63 1
  34   18   64 1
  35   19   20 1
  36   19   65 1
  37   19   66 1
  38   20   21 1
  39   20   67 1
  40   20   68 1
  41   21   22 2
  42   21   25 1
  43   22   23 1
  44   23   24 2
  45   24   25 1
  46   24   26 1
  47   26   27 am
  48   26   69 1
  49   27   28 1
  50   27   29 2
  51   28   30 1
  52   28   36 1
  53   28   70 1
  54   30   31 ar
  55   30   35 ar
  56   31   32 ar
  57   31   71 1
  58   32   33 ar
  59   32   72 1
  60   33   34 ar
  61   33   73 1
  62   34   35 ar
  63   34   74 1
  64   35   75 1
  65   36   37 1
  66   37   38 2
  67   37   39 1
  68   39   40 1
  69   39   41 1
  70   39   76 1
  71   40   42 ar
  72   40   46 ar
  73   41   77 1
  74   42   43 ar
  75   42   78 1
  76   43   44 ar
  77   43   79 1
  78   44   45 ar
  79   44   80 1
  80   45   46 ar
  81   45   81 1
  82   46   82 1
  83   47   48 1
  84   48   49 1
  85   48   50 1
  86   48   51 1

#	End of record

