#	Name: ASD00431158
#	Creating user name:	WinNT
#	Creation time:	15. 06. 2019 18:35

#	Modifying user name:	WinNT
#	Modification time:	15. 06. 2019 18:35

#	Program:	/corina/corina34_cracker 3.40 0067  02.08.2006

@<TRIPOS>MOLECULE
ASD00431158
  48   51    0    0    0
SMALL
NO_CHARGES


@<TRIPOS>ATOM
   1 N1             0.1925     1.7337    -0.6650 N.am    
   2 C2            -0.0170     0.4025    -0.6478 C.2     
   3 O3             0.8938    -0.3527    -0.3675 O.2     
   4 N4            -1.2360    -0.0917    -0.9414 N.am    
   5 C5             1.5176     2.2709    -0.3459 C.3     
   6 C6             2.3867     2.2659    -1.6051 C.3     
   7 O7             0.5448     4.6231    -0.3060 O.3     
   8 N8             0.6533     5.6641     0.2993 N.2     
   9 C9             1.5594     5.5746     1.2453 C.2     
  10 C10            2.0687     4.2452     1.1786 C.2     
  11 C11            1.3782     3.6827     0.1626 C.2     
  12 S12            3.1894     6.4894     3.4484 S.3     
  13 C13            2.9189     8.1117     3.9147 C.2     
  14 N14            2.0027     8.6479     3.1686 N.2     
  15 C15            1.4712     7.8902     2.2346 C.2     
  16 C16            1.9679     6.6362     2.1873 C.2     
  17 O17            3.5682     8.7465     4.9194 O.3     
  18 C18            3.1688    10.0054     5.2424 C.ar    
  19 C19            2.0043    10.1982     5.9713 C.ar    
  20 C20            1.5987    11.4770     6.2993 C.ar    
  21 C21            2.3556    12.5686     5.9000 C.ar    
  22 C22            3.5200    12.3760     5.1711 C.ar    
  23 C23            3.9288    11.0969     4.8479 C.ar    
  24 O24            1.9559    13.8276     6.2225 O.3     
  25 C25            2.7836    14.9047     5.7788 C.3     
  26 C26            2.1774    16.2342     6.2327 C.3     
  27 C27            2.9794    17.5074     5.9558 C.3     
  28 C28            1.7160    17.2077     5.1464 C.3     
  29 H29           -0.5331     2.3360    -0.8925 H       
  30 H30           -1.9626     0.5107    -1.1650 H       
  31 H31           -1.3868    -1.0499    -0.9290 H       
  32 H32            1.9851     1.6531     0.4208 H       
  33 H33            3.3726     2.6655    -1.3676 H       
  34 H34            2.4875     1.2448    -1.9728 H       
  35 H35            1.9192     2.8837    -2.3717 H       
  36 H36            2.8299     3.7925     1.7967 H       
  37 H37            0.7024     8.2415     1.5623 H       
  38 H38            1.4147     9.3483     6.2820 H       
  39 H39            0.6919    11.6271     6.8665 H       
  40 H40            4.1090    13.2260     4.8599 H       
  41 H41            4.8377    10.9467     4.2843 H       
  42 H42            3.7810    14.7959     6.2047 H       
  43 H43            2.8493    14.8880     4.6909 H       
  44 H44            1.5966    16.1957     7.1542 H       
  45 H45            2.9258    18.3067     6.6949 H       
  46 H46            3.9388    17.3979     5.4502 H       
  47 H47            1.8443    16.9012     4.1083 H       
  48 H48            0.8313    17.8099     5.3530 H       
@<TRIPOS>BOND
   1    1    2 am
   2    1    5 1
   3    1   29 1
   4    2    3 2
   5    2    4 am
   6    4   30 1
   7    4   31 1
   8    5    6 1
   9    5   11 1
  10    5   32 1
  11    6   33 1
  12    6   34 1
  13    6   35 1
  14    7    8 1
  15    7   11 1
  16    8    9 2
  17    9   10 1
  18    9   16 1
  19   10   11 2
  20   10   36 1
  21   12   13 1
  22   12   16 1
  23   13   14 2
  24   13   17 1
  25   14   15 1
  26   15   16 2
  27   15   37 1
  28   17   18 1
  29   18   19 ar
  30   18   23 ar
  31   19   20 ar
  32   19   38 1
  33   20   21 ar
  34   20   39 1
  35   21   22 ar
  36   21   24 1
  37   22   23 ar
  38   22   40 1
  39   23   41 1
  40   24   25 1
  41   25   26 1
  42   25   42 1
  43   25   43 1
  44   26   27 1
  45   26   28 1
  46   26   44 1
  47   27   28 1
  48   27   45 1
  49   27   46 1
  50   28   47 1
  51   28   48 1

#	End of record

