#	Name: ASD02320031
#	Creating user name:	WinNT
#	Creation time:	15. 06. 2019 20:20

#	Modifying user name:	WinNT
#	Modification time:	15. 06. 2019 20:20

#	Program:	/corina/corina34_cracker 3.40 0067  02.08.2006

@<TRIPOS>MOLECULE
ASD02320031
  98  104    0    0    0
SMALL
NO_CHARGES


@<TRIPOS>ATOM
   1 C1            21.5523   -11.8406   -18.7500 C.ar    
   2 C2            20.3263   -12.2739   -18.2983 C.ar    
   3 C3            19.8622   -11.8567   -17.0477 C.ar    
   4 C4            20.6630   -10.9936   -16.2651 C.ar    
   5 C5            21.9005   -10.5674   -16.7419 C.ar    
   6 C6            22.3358   -10.9928   -17.9783 C.ar    
   7 N7            18.6672   -12.2583   -16.5699 N.2     
   8 C8            18.2293   -11.8697   -15.4002 C.2     
   9 N9            18.9363   -11.0362   -14.5776 N.am    
  10 C10           20.1500   -10.5700   -14.9536 C.2     
  11 C11           16.9084   -12.3535   -14.9462 C.ar    
  12 C12           15.9228   -11.4424   -14.5615 C.ar    
  13 C13           16.6401   -13.7218   -14.9060 C.ar    
  14 C14           15.4002   -14.1677   -14.4794 C.ar    
  15 C15           14.4284   -13.2545   -14.0939 C.ar    
  16 C16           14.6911   -11.8975   -14.1383 C.ar    
  17 O17           20.7923    -9.8277   -14.2338 O.2     
  18 C18           18.3764   -10.6461   -13.2812 C.3     
  19 C19           18.6694   -11.7376   -12.2499 C.3     
  20 C20           18.0847   -11.3302   -10.8960 C.3     
  21 C21           18.3776   -12.4217    -9.8647 C.3     
  22 N22           17.8177   -12.0316    -8.5683 N.pl3   
  23 N23           18.0616   -10.9346    -7.9408 N.2     
  24 N24           17.4102   -10.9034    -6.8320 N.2     
  25 C25           16.7000   -12.0309    -6.7152 C.2     
  26 C26           16.9508   -12.7601    -7.8276 C.2     
  27 C27           15.7943   -12.4118    -5.5725 C.3     
  28 O28           15.2204   -13.6955    -5.8271 O.3     
  29 C29           14.4539   -14.2355    -4.8420 C.ar    
  30 C30           13.9563   -15.5307    -4.9770 C.ar    
  31 C31           14.1732   -13.5025    -3.7053 C.ar    
  32 C32           13.3848   -14.0609    -2.6945 C.ar    
  33 C33           12.8848   -15.3576    -2.8392 C.ar    
  34 C34           13.1736   -16.0849    -3.9743 C.ar    
  35 C35           13.0823   -13.2834    -1.4787 C.2     
  36 O36           13.1293   -13.9022    -0.2865 O.3     
  37 C37           12.8659   -13.2598     0.8708 C.ar    
  38 C38           12.5284   -11.8949     0.8523 C.ar    
  39 C39           12.4730   -11.2020    -0.4448 C.2     
  40 C40           12.7708   -11.9629    -1.6049 C.2     
  41 C41           12.9235   -13.9308     2.0825 C.ar    
  42 C42           12.6498   -13.2570     3.2627 C.ar    
  43 C43           12.3154   -11.9073     3.2473 C.ar    
  44 C44           12.2528   -11.2207     2.0489 C.ar    
  45 O45           12.1851   -10.0181    -0.5195 O.2     
  46 O46           12.7374   -11.3806    -2.8345 O.3     
  47 S47           11.3567   -10.8950    -3.2521 S.o2    
  48 O48           10.8329   -10.1744    -2.1450 O.2     
  49 O49           11.5050   -10.3297    -4.5474 O.2     
  50 O50           10.4774   -12.1261    -3.4185 O.3     
  51 Na51           9.9002   -12.9467    -1.6999 Du      
  52 O52           14.2382   -16.2521    -6.0935 O.3     
  53 S53           15.5088   -17.0834    -5.9889 S.o2    
  54 O54           15.7564   -17.6030    -7.2882 O.2     
  55 O55           16.4491   -16.2913    -5.2765 O.2     
  56 O56           15.1934   -18.2786    -5.1010 O.3     
  57 Na57          14.0976   -19.6813    -5.9909 Du      
  58 O58           12.7084   -13.9215     4.4451 O.3     
  59 S59           14.0794   -13.8905     5.1053 S.o2    
  60 O60           14.0148   -14.7865     6.2064 O.2     
  61 O61           15.0320   -14.0135     4.0581 O.2     
  62 O62           14.2648   -12.4992     5.6938 O.3     
  63 Na63          13.2228   -12.1791     7.3587 Du      
  64 O64           11.9262    -9.9036     2.0319 O.3     
  65 C65           11.6583    -9.2853     3.2920 C.3     
  66 O66           15.1347   -15.5000   -14.4387 O.3     
  67 S67           15.4829   -16.1603   -13.1124 S.o2    
  68 O68           15.3354   -17.5598   -13.3100 O.2     
  69 O69           16.6934   -15.5610   -12.6713 O.2     
  70 O70           14.4116   -15.7525   -12.1111 O.3     
  71 Na71          12.6725   -16.6870   -12.3607 Du      
  72 H72           21.9112   -12.1677   -19.7147 H       
  73 H73           19.7256   -12.9330   -18.9076 H       
  74 H74           22.5145    -9.9077   -16.1467 H       
  75 H75           23.2949   -10.6639   -18.3504 H       
  76 H76           16.1247   -10.3820   -14.5950 H       
  77 H77           17.3967   -14.4313   -15.2068 H       
  78 H78           13.4622   -13.6049   -13.7620 H       
  79 H79           13.9310   -11.1919   -13.8371 H       
  80 H80           18.8291    -9.7090   -12.9571 H       
  81 H81           17.2984   -10.5153   -13.3756 H       
  82 H82           18.2167   -12.6747   -12.5740 H       
  83 H83           19.7474   -11.8684   -12.1555 H       
  84 H84           18.5374   -10.3931   -10.5719 H       
  85 H85           17.0067   -11.1994   -10.9904 H       
  86 H86           17.9249   -13.3588   -10.1888 H       
  87 H87           19.4556   -12.5525    -9.7703 H       
  88 H88           16.5452   -13.7308    -8.0720 H       
  89 H89           16.3712   -12.4486    -4.6484 H       
  90 H90           15.0002   -11.6714    -5.4759 H       
  91 H91           14.5620   -12.5008    -3.5974 H       
  92 H92           12.2755   -15.7915    -2.0602 H       
  93 H93           12.7862   -17.0870    -4.0851 H       
  94 H94           13.1814   -14.9793     2.1071 H       
  95 H95           12.1042   -11.3941     4.1738 H       
  96 H96           11.4108    -8.2352     3.1362 H       
  97 H97           10.8195    -9.7888     3.7727 H       
  98 H98           12.5401    -9.3602     3.9283 H       
@<TRIPOS>BOND
   1    1    2 ar
   2    1    6 ar
   3    1   72 1
   4    2    3 ar
   5    2   73 1
   6    3    4 ar
   7    3    7 1
   8    4    5 ar
   9    4   10 1
  10    5    6 ar
  11    5   74 1
  12    6   75 1
  13    7    8 2
  14    8    9 1
  15    8   11 1
  16    9   10 am
  17    9   18 1
  18   10   17 2
  19   11   12 ar
  20   11   13 ar
  21   12   16 ar
  22   12   76 1
  23   13   14 ar
  24   13   77 1
  25   14   15 ar
  26   14   66 1
  27   15   16 ar
  28   15   78 1
  29   16   79 1
  30   18   19 1
  31   18   80 1
  32   18   81 1
  33   19   20 1
  34   19   82 1
  35   19   83 1
  36   20   21 1
  37   20   84 1
  38   20   85 1
  39   21   22 1
  40   21   86 1
  41   21   87 1
  42   22   23 1
  43   22   26 1
  44   23   24 2
  45   24   25 1
  46   25   26 2
  47   25   27 1
  48   26   88 1
  49   27   28 1
  50   27   89 1
  51   27   90 1
  52   28   29 1
  53   29   30 ar
  54   29   31 ar
  55   30   52 1
  56   30   34 ar
  57   31   32 ar
  58   31   91 1
  59   32   33 ar
  60   32   35 1
  61   33   34 ar
  62   33   92 1
  63   34   93 1
  64   35   36 1
  65   35   40 2
  66   36   37 1
  67   37   38 ar
  68   37   41 ar
  69   38   39 1
  70   38   44 ar
  71   39   40 1
  72   39   45 2
  73   40   46 1
  74   41   42 ar
  75   41   94 1
  76   42   43 ar
  77   42   58 1
  78   43   44 ar
  79   43   95 1
  80   44   64 1
  81   46   47 1
  82   47   48 2
  83   47   49 2
  84   47   50 1
  85   50   51 1
  86   52   53 1
  87   53   54 2
  88   53   55 2
  89   53   56 1
  90   56   57 1
  91   58   59 1
  92   59   60 2
  93   59   61 2
  94   59   62 1
  95   62   63 1
  96   64   65 1
  97   65   96 1
  98   65   97 1
  99   65   98 1
 100   66   67 1
 101   67   68 2
 102   67   69 2
 103   67   70 1
 104   70   71 1

#	End of record

