#	Name: ASD07301359
#	Creating user name:	WinNT
#	Creation time:	15. 06. 2019 21:11

#	Modifying user name:	WinNT
#	Modification time:	15. 06. 2019 21:11

#	Program:	/corina/corina34_cracker 3.40 0067  02.08.2006

@<TRIPOS>MOLECULE
ASD07301359
  50   52    0    0    0
SMALL
NO_CHARGES


@<TRIPOS>ATOM
   1 C1             1.3133    -0.5619    -0.0643 C.2     
   2 C2            -0.0272     0.0405     0.0009 C.2     
   3 C3            -0.0995     1.4560     0.0597 C.2     
   4 C4             1.0640     2.1495     0.0518 C.2     
   5 N5             2.2553     1.5067    -0.0109 N.pl3   
   6 N6             2.3645     0.2306    -0.0649 N.2     
   7 O7            -1.0353    -0.6489     0.0039 O.2     
   8 C8             3.4248     2.2743    -0.0170 C.ar    
   9 C9             3.3470     3.6584    -0.1133 C.ar    
  10 C10            4.5004     4.4154    -0.1193 C.ar    
  11 C11            5.7400     3.7938    -0.0292 C.ar    
  12 C12            5.8179     2.4096     0.0671 C.ar    
  13 C13            4.6642     1.6530     0.0788 C.ar    
  14 N14            6.9077     4.5601    -0.0357 N.3     
  15 C15            8.0980     3.7065     0.0682 C.3     
  16 C16            9.3567     4.5627    -0.0881 C.3     
  17 C17            9.3777     5.6350     1.0048 C.3     
  18 C18            8.1044     6.4795     0.9047 C.3     
  19 C19            6.8819     5.5677     1.0323 C.3     
  20 C20            1.4770    -2.0298    -0.1220 C.2     
  21 C21            2.7705    -2.5943    -0.1843 C.2     
  22 C22            2.9203    -3.9370    -0.2371 C.2     
  23 O23            0.4964    -2.7529    -0.1157 O.2     
  24 N24            4.1704    -4.4825    -0.2973 N.pl3   
  25 C25            5.3495    -3.6131    -0.3048 C.3     
  26 C26            4.3327    -5.9374    -0.3544 C.3     
  27 H27           -1.0512     1.9641     0.1089 H       
  28 H28            1.0420     3.2284     0.0956 H       
  29 H29            2.3836     4.1415    -0.1837 H       
  30 H30            4.4399     5.4911    -0.1945 H       
  31 H31            6.7812     1.9265     0.1371 H       
  32 H32            4.7245     0.5776     0.1581 H       
  33 H33            8.1102     3.2173     1.0422 H       
  34 H34            8.0729     2.9510    -0.7171 H       
  35 H35           10.2403     3.9312     0.0047 H       
  36 H36            9.3520     5.0413    -1.0674 H       
  37 H37            9.4217     5.1569     1.9834 H       
  38 H38           10.2503     6.2744     0.8712 H       
  39 H39            8.0932     7.2175     1.7069 H       
  40 H40            8.0799     6.9883    -0.0589 H       
  41 H41            5.9735     6.1640     0.9471 H       
  42 H42            6.8998     5.0698     2.0018 H       
  43 H43            3.6397    -1.9533    -0.1899 H       
  44 H44            2.0510    -4.5779    -0.2315 H       
  45 H45            5.6754    -3.4340     0.7197 H       
  46 H46            6.1525    -4.0948    -0.8627 H       
  47 H47            5.0977    -2.6636    -0.7772 H       
  48 H48            3.3521    -6.4132    -0.3394 H       
  49 H49            4.8543    -6.2090    -1.2722 H       
  50 H50            4.9123    -6.2724     0.5057 H       
@<TRIPOS>BOND
   1    1    2 1
   2    1    6 2
   3    1   20 1
   4    2    3 1
   5    2    7 2
   6    3    4 2
   7    3   27 1
   8    4    5 1
   9    4   28 1
  10    5    6 1
  11    5    8 1
  12    8    9 ar
  13    8   13 ar
  14    9   10 ar
  15    9   29 1
  16   10   11 ar
  17   10   30 1
  18   11   12 ar
  19   11   14 1
  20   12   13 ar
  21   12   31 1
  22   13   32 1
  23   14   15 1
  24   14   19 1
  25   15   16 1
  26   15   33 1
  27   15   34 1
  28   16   17 1
  29   16   35 1
  30   16   36 1
  31   17   18 1
  32   17   37 1
  33   17   38 1
  34   18   19 1
  35   18   39 1
  36   18   40 1
  37   19   41 1
  38   19   42 1
  39   20   21 1
  40   20   23 2
  41   21   22 2
  42   21   43 1
  43   22   24 1
  44   22   44 1
  45   24   25 1
  46   24   26 1
  47   25   45 1
  48   25   46 1
  49   25   47 1
  50   26   48 1
  51   26   49 1
  52   26   50 1

#	End of record

