#	Name: ASD01880975
#	Creating user name:	WinNT
#	Creation time:	15. 06. 2019 19:41

#	Modifying user name:	WinNT
#	Modification time:	15. 06. 2019 19:41

#	Program:	/corina/corina34_cracker 3.40 0067  02.08.2006

@<TRIPOS>MOLECULE
ASD01880975
  38   40    0    0    0
SMALL
NO_CHARGES


@<TRIPOS>ATOM
   1 N1            -0.0158     1.3135     0.0093 N.ar    
   2 C2             0.0021    -0.0041     0.0020 C.ar    
   3 N3             1.1319    -0.6827    -0.0120 N.ar    
   4 C4             2.2989    -0.0565    -0.0197 C.ar    
   5 C5             2.3196     1.3315    -0.0129 C.ar    
   6 C6             1.1114     2.0079     0.0022 C.ar    
   7 C7             3.6253     2.0839    -0.0209 C.3     
   8 O8             4.0259     2.3285    -1.3706 O.3     
   9 C9             1.0800     3.5146     0.0101 C.3     
  10 C10            5.1900     3.0012    -1.5555 C.ar    
  11 C11            5.6385     3.2728    -2.8448 C.ar    
  12 C12            6.8156     3.9534    -3.0316 C.ar    
  13 C13            7.5703     4.3776    -1.9325 C.ar    
  14 C14            7.1155     4.1023    -0.6385 C.ar    
  15 C15            5.9294     3.4227    -0.4577 C.ar    
  16 C16            7.5668     4.3996    -4.2612 C.3     
  17 N17            8.7693     5.0884    -3.7789 N.am    
  18 C18            8.7669     5.0732    -2.4350 C.2     
  19 O19            9.6301     5.5645    -1.7335 O.2     
  20 Cl20           3.7818    -0.9588    -0.0376 Cl      
  21 Cl21           8.0394     4.6207     0.7368 Cl      
  22 C22            9.4407     7.1536    -4.9039 C.3     
  23 C23            9.8022     5.6936    -4.6233 C.3     
  24 H24           -0.9342    -0.5424     0.0081 H       
  25 H25            3.5004     3.0339     0.4989 H       
  26 H26            4.3890     1.4917     0.4831 H       
  27 H27            1.0624     3.8830    -1.0155 H       
  28 H28            0.1876     3.8566     0.5344 H       
  29 H29            1.9671     3.8938     0.5173 H       
  30 H30            5.0610     2.9479    -3.6976 H       
  31 H31            5.5780     3.2104     0.5412 H       
  32 H32            7.8463     3.5353    -4.8637 H       
  33 H33            6.9531     5.0832    -4.8478 H       
  34 H34           10.2093     7.6039    -5.5321 H       
  35 H35            8.4801     7.1979    -5.4169 H       
  36 H36            9.3754     7.6991    -3.9625 H       
  37 H37           10.7629     5.6493    -4.1102 H       
  38 H38            9.8676     5.1481    -5.5647 H       
@<TRIPOS>BOND
   1    1    2 ar
   2    1    6 ar
   3    2    3 ar
   4    2   24 1
   5    3    4 ar
   6    4    5 ar
   7    4   20 1
   8    5    6 ar
   9    5    7 1
  10    6    9 1
  11    7    8 1
  12    7   25 1
  13    7   26 1
  14    8   10 1
  15    9   27 1
  16    9   28 1
  17    9   29 1
  18   10   11 ar
  19   10   15 ar
  20   11   12 ar
  21   11   30 1
  22   12   13 ar
  23   12   16 1
  24   13   14 ar
  25   13   18 1
  26   14   15 ar
  27   14   21 1
  28   15   31 1
  29   16   17 1
  30   16   32 1
  31   16   33 1
  32   17   18 am
  33   17   23 1
  34   18   19 2
  35   22   23 1
  36   22   34 1
  37   22   35 1
  38   22   36 1
  39   23   37 1
  40   23   38 1

#	End of record

