#	Name: ASD02030010
#	Creating user name:	WinNT
#	Creation time:	15. 06. 2019 20:14

#	Modifying user name:	WinNT
#	Modification time:	15. 06. 2019 20:14

#	Program:	/corina/corina34_cracker 3.40 0067  02.08.2006

@<TRIPOS>MOLECULE
ASD02030010
  62   64    0    0    0
SMALL
NO_CHARGES


@<TRIPOS>ATOM
   1 C1             0.1606     1.4182    -0.0320 C.ar    
   2 C2             0.3023     0.0747     0.2706 C.ar    
   3 C3            -0.8191    -0.7202     0.4275 C.ar    
   4 C4            -2.0798    -0.1730     0.2822 C.ar    
   5 C5            -2.2213     1.1687    -0.0205 C.ar    
   6 C6            -1.1023     1.9656    -0.1714 C.ar    
   7 Cl7            1.5668     2.4171    -0.2292 Cl      
   8 Cl8            1.8862    -0.6122     0.4525 Cl      
   9 C9            -3.3011    -1.0392     0.4531 C.3     
  10 C10           -3.7402    -1.0181     1.9186 C.3     
  11 N11           -4.9306    -1.8625     2.0853 N.3     
  12 C12           -4.6133    -3.2750     1.8359 C.3     
  13 C13           -5.5209    -1.6830     3.4185 C.3     
  14 C14           -6.9471    -2.2370     3.4235 C.3     
  15 C15           -7.5376    -2.1124     4.8295 C.3     
  16 O16           -8.8238    -2.7341     4.8627 O.3     
  17 O17           -7.7494    -1.4953     2.5025 O.3     
  18 C18           -9.4900    -2.7117     6.0482 C.ar    
  19 C19          -10.7433    -3.2970     6.1501 C.ar    
  20 C20          -11.4204    -3.2751     7.3536 C.ar    
  21 C21          -10.8460    -2.6668     8.4619 C.ar    
  22 C22           -9.5912    -2.0810     8.3590 C.ar    
  23 C23           -8.9133    -2.1085     7.1560 C.ar    
  24 N24          -11.5314    -2.6437     9.6817 N.am    
  25 C25           -3.5693    -3.7366     2.8198 C.ar    
  26 C26           -3.9536    -4.2649     4.0379 C.ar    
  27 C27           -2.9968    -4.6884     4.9418 C.ar    
  28 C28           -1.6552    -4.5839     4.6283 C.ar    
  29 C29           -1.2690    -4.0553     3.4080 C.ar    
  30 C30           -2.2279    -3.6368     2.5015 C.ar    
  31 F31            0.0425    -3.9526     3.1004 F       
  32 S32          -12.2374    -1.2414    10.2083 S.o2    
  33 C33          -13.5352    -0.9017     8.9873 C.3     
  34 O34          -12.8104    -1.5868    11.4620 O.2     
  35 O35          -11.2019    -0.2724    10.1182 O.2     
  36 H36           -0.7093    -1.7684     0.6632 H       
  37 H37           -3.2070     1.5953    -0.1342 H       
  38 H38           -1.2135     3.0136    -0.4078 H       
  39 H39           -4.1075    -0.6581    -0.1733 H       
  40 H40           -3.0651    -2.0620     0.1593 H       
  41 H41           -2.9337    -1.3993     2.5451 H       
  42 H42           -3.9762     0.0047     2.2125 H       
  43 H43           -5.5147    -3.8762     1.9538 H       
  44 H44           -4.2314    -3.3879     0.8212 H       
  45 H45           -4.9213    -2.2164     4.1561 H       
  46 H46           -5.5424    -0.6218     3.6664 H       
  47 H47           -6.9305    -3.2860     3.1281 H       
  48 H48           -6.8782    -2.6031     5.5453 H       
  49 H49           -7.6366    -1.0586     5.0899 H       
  50 H50           -7.8092    -0.5515     2.7042 H       
  51 H51          -11.1901    -3.7698     5.2879 H       
  52 H52          -12.3964    -3.7306     7.4327 H       
  53 H53           -9.1437    -1.6077     9.2205 H       
  54 H54           -7.9372    -1.6533     7.0759 H       
  55 H55          -11.5931    -3.4491    10.2187 H       
  56 H56           -5.0020    -4.3466     4.2839 H       
  57 H57           -3.2983    -5.1007     5.8934 H       
  58 H58           -0.9080    -4.9141     5.3348 H       
  59 H59           -1.9279    -3.2243     1.5495 H       
  60 H60          -14.2853    -1.6916     9.0250 H       
  61 H61          -14.0045     0.0560     9.2127 H       
  62 H62          -13.0957    -0.8652     7.9905 H       
@<TRIPOS>BOND
   1    1    2 ar
   2    1    7 1
   3    1    6 ar
   4    2    3 ar
   5    2    8 1
   6    3    4 ar
   7    3   36 1
   8    4    5 ar
   9    4    9 1
  10    5    6 ar
  11    5   37 1
  12    6   38 1
  13    9   10 1
  14    9   39 1
  15    9   40 1
  16   10   11 1
  17   10   41 1
  18   10   42 1
  19   11   12 1
  20   11   13 1
  21   12   25 1
  22   12   43 1
  23   12   44 1
  24   13   14 1
  25   13   45 1
  26   13   46 1
  27   14   15 1
  28   14   17 1
  29   14   47 1
  30   15   16 1
  31   15   48 1
  32   15   49 1
  33   16   18 1
  34   17   50 1
  35   18   19 ar
  36   18   23 ar
  37   19   20 ar
  38   19   51 1
  39   20   21 ar
  40   20   52 1
  41   21   22 ar
  42   21   24 1
  43   22   23 ar
  44   22   53 1
  45   23   54 1
  46   24   32 am
  47   24   55 1
  48   25   26 ar
  49   25   30 ar
  50   26   27 ar
  51   26   56 1
  52   27   28 ar
  53   27   57 1
  54   28   29 ar
  55   28   58 1
  56   29   30 ar
  57   29   31 1
  58   30   59 1
  59   32   33 1
  60   32   34 2
  61   32   35 2
  62   33   60 1
  63   33   61 1
  64   33   62 1

#	End of record

