#	Name: ASD01812644
#	Creating user name:	WinNT
#	Creation time:	15. 06. 2019 19:28

#	Modifying user name:	WinNT
#	Modification time:	15. 06. 2019 19:28

#	Program:	/corina/corina34_cracker 3.40 0067  02.08.2006

@<TRIPOS>MOLECULE
ASD01812644
  52   56    0    0    0
SMALL
NO_CHARGES


@<TRIPOS>ATOM
   1 O1            -0.0163     1.3522     0.0095 O.3     
   2 C2             0.0021    -0.0041     0.0020 C.ar    
   3 C3             1.2105    -0.6847    -0.0132 C.ar    
   4 C4             1.2312    -2.0655    -0.0203 C.ar    
   5 C5             0.0448    -2.7828    -0.0128 C.ar    
   6 C6            -1.1604    -2.1222     0.0022 C.ar    
   7 C7            -1.2003    -0.7251     0.0155 C.ar    
   8 C8            -2.5947    -2.5891     0.0135 C.3     
   9 N9            -3.4200    -1.3758     0.0279 N.am    
  10 C10           -2.6104    -0.3027     0.0375 C.2     
  11 C11           -4.8845    -1.3401     0.0421 C.3     
  12 C12           -5.3730    -1.3354     1.4677 C.2     
  13 O13           -2.9891     0.8526     0.0490 O.2     
  14 C14            1.1730     2.0055     0.0016 C.ar    
  15 C15            1.7785     2.3510    -1.2139 C.ar    
  16 C16            3.0027     3.0238    -1.2093 C.ar    
  17 C17            3.6075     3.3438    -0.0130 C.ar    
  18 C18            3.0076     3.0011     1.1875 C.ar    
  19 C19            1.7933     2.3401     1.1985 C.ar    
  20 F20            1.2124     2.0146     2.3740 F       
  21 C21            1.1268     2.0054    -2.4918 C.2     
  22 C22           -5.5952    -0.2415     2.1997 C.2     
  23 C23           -6.0421    -0.4787     3.4852 C.2     
  24 C24           -6.1842    -1.7801     3.8002 C.2     
  25 S25           -5.7433    -2.7701     2.4149 S.3     
  26 C26           -6.6461    -2.2976     5.1085 C.2     
  27 C27           -6.7974    -3.6116     5.4493 C.2     
  28 N28           -7.2357    -3.6538     6.7249 N.pl3   
  29 N29           -7.3603    -2.3388     7.1888 N.2     
  30 C30           -7.0042    -1.5241     6.2313 C.2     
  31 C31           -7.5311    -4.8666     7.4917 C.3     
  32 N32            1.7124     2.3395    -3.6588 N.am    
  33 O33            0.0614     1.4194    -2.4920 O.2     
  34 H34            2.1387    -0.1327    -0.0198 H       
  35 H35            2.1758    -2.5889    -0.0321 H       
  36 H36            0.0677    -3.8625    -0.0192 H       
  37 H37           -2.8051    -3.1748    -0.8813 H       
  38 H38           -2.7880    -3.1844     0.9058 H       
  39 H39           -5.2309    -0.4388    -0.4636 H       
  40 H40           -5.2744    -2.2182    -0.4727 H       
  41 H41            3.4750     3.2928    -2.1425 H       
  42 H42            4.5539     3.8641    -0.0115 H       
  43 H43            3.4889     3.2556     2.1203 H       
  44 H44           -5.4371     0.7554     1.8155 H       
  45 H45           -6.2599     0.3168     4.1825 H       
  46 H46           -6.6017    -4.4623     4.8133 H       
  47 H47           -6.9895    -0.4458     6.2890 H       
  48 H48           -6.6326    -5.1935     8.0150 H       
  49 H49           -8.3173    -4.6557     8.2166 H       
  50 H50           -7.8633    -5.6531     6.8140 H       
  51 H51            2.5623     2.8070    -3.6587 H       
  52 H52            1.2839     2.1123    -4.4989 H       
@<TRIPOS>BOND
   1    1    2 1
   2    1   14 1
   3    2    3 ar
   4    2    7 ar
   5    3    4 ar
   6    3   34 1
   7    4    5 ar
   8    4   35 1
   9    5    6 ar
  10    5   36 1
  11    6    8 1
  12    6    7 ar
  13    7   10 1
  14    8    9 1
  15    8   37 1
  16    8   38 1
  17    9   10 am
  18    9   11 1
  19   10   13 2
  20   11   12 1
  21   11   39 1
  22   11   40 1
  23   12   22 2
  24   12   25 1
  25   14   15 ar
  26   14   19 ar
  27   15   16 ar
  28   15   21 1
  29   16   17 ar
  30   16   41 1
  31   17   18 ar
  32   17   42 1
  33   18   19 ar
  34   18   43 1
  35   19   20 1
  36   21   32 am
  37   21   33 2
  38   22   23 1
  39   22   44 1
  40   23   24 2
  41   23   45 1
  42   24   25 1
  43   24   26 1
  44   26   27 2
  45   26   30 1
  46   27   28 1
  47   27   46 1
  48   28   29 1
  49   28   31 1
  50   29   30 2
  51   30   47 1
  52   31   48 1
  53   31   49 1
  54   31   50 1
  55   32   51 1
  56   32   52 1

#	End of record

