#	Name: ASD03092600
#	Creating user name:	WinNT
#	Creation time:	15. 06. 2019 20:32

#	Modifying user name:	WinNT
#	Modification time:	15. 06. 2019 20:32

#	Program:	/corina/corina34_cracker 3.40 0067  02.08.2006

@<TRIPOS>MOLECULE
ASD03092600
  43   45    0    0    0
SMALL
NO_CHARGES


@<TRIPOS>ATOM
   1 N1            -0.0153     1.2805     0.0091 N.pl3   
   2 N2             0.0021    -0.0041     0.0020 N.2     
   3 C3             1.2461    -0.4396    -0.0122 C.2     
   4 C4             2.0829     0.7014    -0.0141 C.2     
   5 C5             1.2452     1.7646    -0.0004 C.2     
   6 C6             1.6834    -1.8504    -0.0235 C.2     
   7 O7             2.8689    -2.1192    -0.0359 O.2     
   8 N8             0.7681    -2.8397    -0.0201 N.am    
   9 C9             1.2018    -4.2389    -0.0314 C.3     
  10 N10           -3.3102    -7.6015    -0.2802 N.pl3   
  11 C11           -3.4580    -7.6952    -1.6373 C.2     
  12 C12           -2.5055    -6.9763    -2.2520 C.2     
  13 C13           -1.6802    -6.3730    -1.2028 C.ar    
  14 C14           -0.5609    -5.5383    -1.2082 C.ar    
  15 C15           -0.0065    -5.1395    -0.0248 C.ar    
  16 C16           -0.5472    -5.5575     1.1836 C.ar    
  17 C17           -1.6508    -6.3814     1.2119 C.ar    
  18 C18           -2.2315    -6.7998     0.0189 C.ar    
  19 C19           -4.5310    -8.4882    -2.3380 C.3     
  20 C20           -1.2283     2.1019     0.0195 C.3     
  21 C21           -2.1206     1.7088    -1.1596 C.3     
  22 O22           -3.3038     2.5101    -1.1495 O.3     
  23 C23           -4.2104     2.2214    -2.2157 C.3     
  24 H24            3.1627     0.7201    -0.0240 H       
  25 H25            1.5316     2.8060     0.0022 H       
  26 H26           -0.1779    -2.6252    -0.0103 H       
  27 H27            1.7919    -4.4292    -0.9278 H       
  28 H28            1.8084    -4.4384     0.8520 H       
  29 H29           -3.8826    -8.0324     0.3737 H       
  30 H30           -2.3728    -6.8641    -3.3179 H       
  31 H31           -0.1343    -5.2098    -2.1444 H       
  32 H32           -0.0978    -5.2338     2.1108 H       
  33 H33           -2.0638    -6.7015     2.1571 H       
  34 H34           -5.4046    -7.8561    -2.4971 H       
  35 H35           -4.1551    -8.8374    -3.2997 H       
  36 H36           -4.8092    -9.3447    -1.7239 H       
  37 H37           -1.7679     1.9413     0.9528 H       
  38 H38           -0.9556     3.1538    -0.0662 H       
  39 H39           -1.5810     1.8694    -2.0930 H       
  40 H40           -2.3934     0.6570    -1.0740 H       
  41 H41           -4.5265     1.1802    -2.1520 H       
  42 H42           -5.0820     2.8712    -2.1374 H       
  43 H43           -3.7142     2.3927    -3.1709 H       
@<TRIPOS>BOND
   1    1    2 1
   2    1    5 1
   3    1   20 1
   4    2    3 2
   5    3    4 1
   6    3    6 1
   7    4    5 2
   8    4   24 1
   9    5   25 1
  10    6    7 2
  11    6    8 am
  12    8    9 1
  13    8   26 1
  14    9   15 1
  15    9   27 1
  16    9   28 1
  17   10   11 1
  18   10   18 1
  19   10   29 1
  20   11   12 2
  21   11   19 1
  22   12   13 1
  23   12   30 1
  24   13   14 ar
  25   13   18 ar
  26   14   15 ar
  27   14   31 1
  28   15   16 ar
  29   16   17 ar
  30   16   32 1
  31   17   18 ar
  32   17   33 1
  33   19   34 1
  34   19   35 1
  35   19   36 1
  36   20   21 1
  37   20   37 1
  38   20   38 1
  39   21   22 1
  40   21   39 1
  41   21   40 1
  42   22   23 1
  43   23   41 1
  44   23   42 1
  45   23   43 1

#	End of record

