#	Name: ASD09610051
#	Creating user name:	WinNT
#	Creation time:	15. 06. 2019 21:22

#	Modifying user name:	WinNT
#	Modification time:	15. 06. 2019 21:22

#	Program:	/corina/corina34_cracker 3.40 0067  02.08.2006

@<TRIPOS>MOLECULE
ASD09610051
  29   30    0    0    0
SMALL
NO_CHARGES


@<TRIPOS>ATOM
   1 C1            -0.0159     1.3188     0.0093 C.ar    
   2 N2             0.0021    -0.0041     0.0020 N.ar    
   3 C3             1.1543    -0.6660    -0.0125 C.ar    
   4 C4             2.3511     0.0571    -0.0200 C.ar    
   5 C5             2.2856     1.4375    -0.0120 C.ar    
   6 N6             1.0992     2.0295     0.0025 N.ar    
   7 N7             1.1695    -2.0525    -0.0197 N.pl3   
   8 O8            -1.2083     1.9623     0.0184 O.3     
   9 C9            -1.1745     3.3909     0.0260 C.3     
  10 C10           -2.5830     3.9267     0.0355 C.ar    
  11 C11           -3.2234     4.1659     1.2370 C.ar    
  12 C12           -4.5154     4.6573     1.2457 C.ar    
  13 C13           -5.1669     4.9099     0.0529 C.ar    
  14 C14           -4.5261     4.6716    -1.1486 C.ar    
  15 C15           -3.2326     4.1842    -1.1572 C.ar    
  16 C16           -6.5758     5.4447     0.0624 C.3     
  17 F17            3.5431    -0.5786    -0.0344 F       
  18 H18            3.1903     2.0272    -0.0171 H       
  19 H19            0.3349    -2.5467    -0.0140 H       
  20 H20            2.0148    -2.5282    -0.0303 H       
  21 H21           -0.6480     3.7371     0.9154 H       
  22 H22           -0.6564     3.7468    -0.8645 H       
  23 H23           -2.7144     3.9685     2.1688 H       
  24 H24           -5.0160     4.8435     2.1844 H       
  25 H25           -5.0352     4.8686    -2.0804 H       
  26 H26           -2.7306     4.0015    -2.0959 H       
  27 H27           -6.5507     6.5344     0.0690 H       
  28 H28           -7.1017     5.0987    -0.8274 H       
  29 H29           -7.0939     5.0878     0.9525 H       
@<TRIPOS>BOND
   1    1    2 ar
   2    1    6 ar
   3    1    8 1
   4    2    3 ar
   5    3    4 ar
   6    3    7 1
   7    4    5 ar
   8    4   17 1
   9    5    6 ar
  10    5   18 1
  11    7   19 1
  12    7   20 1
  13    8    9 1
  14    9   10 1
  15    9   21 1
  16    9   22 1
  17   10   11 ar
  18   10   15 ar
  19   11   12 ar
  20   11   23 1
  21   12   13 ar
  22   12   24 1
  23   13   14 ar
  24   13   16 1
  25   14   15 ar
  26   14   25 1
  27   15   26 1
  28   16   27 1
  29   16   28 1
  30   16   29 1

#	End of record

