#	Name: ASD04640018
#	Creating user name:	WinNT
#	Creation time:	15. 06. 2019 20:52

#	Modifying user name:	WinNT
#	Modification time:	15. 06. 2019 20:52

#	Program:	/corina/corina34_cracker 3.40 0067  02.08.2006

@<TRIPOS>MOLECULE
ASD04640018
  34   35    0    0    0
SMALL
NO_CHARGES


@<TRIPOS>ATOM
   1 C1            -0.0167     1.3794     0.0096 C.ar    
   2 C2             0.0021    -0.0041     0.0020 C.ar    
   3 C3             1.2162    -0.6899    -0.0172 C.ar    
   4 C4             2.4125     0.0300    -0.0288 C.ar    
   5 C5             2.3806     1.4070    -0.0192 C.ar    
   6 C6             1.1694     2.0858     0.0021 C.ar    
   7 C7            -1.1768     3.5356     0.4443 C.3     
   8 C8            -1.3527     2.0775     0.0199 C.3     
   9 C9             1.1957     3.5922     0.0220 C.3     
  10 N10           -0.1086     4.1339    -0.3718 N.3     
  11 C11            1.2359    -2.1217    -0.0245 C.1     
  12 C12           -0.1236     5.5990    -0.2666 C.3     
  13 C13            1.1376     6.1701    -0.9177 C.3     
  14 C14            1.1219     7.6961    -0.8082 C.3     
  15 C15            2.3832     8.2672    -1.4593 C.3     
  16 N16            1.2515    -3.2576    -0.0303 N.1     
  17 H17           -0.9269    -0.5548     0.0113 H       
  18 H18            3.3586    -0.4906    -0.0448 H       
  19 H19            3.3060     1.9638    -0.0282 H       
  20 H20           -2.1080     4.0788     0.2836 H       
  21 H21           -0.9010     3.5796     1.4979 H       
  22 H22           -1.7875     2.0413    -0.9790 H       
  23 H23           -2.0185     1.5743     0.7211 H       
  24 H24            1.4384     3.9344     1.0280 H       
  25 H25            1.9573     3.9479    -0.6719 H       
  26 H26           -1.0044     5.9908    -0.7754 H       
  27 H27           -0.1526     5.8876     0.7841 H       
  28 H28            2.0184     5.7784    -0.4089 H       
  29 H29            1.1666     5.8816    -1.9684 H       
  30 H30            0.2412     8.0879    -1.3170 H       
  31 H31            1.0929     7.9847     0.2425 H       
  32 H32            2.3720     9.3543    -1.3812 H       
  33 H33            3.2640     7.8754    -0.9505 H       
  34 H34            2.4122     7.9786    -2.5100 H       
@<TRIPOS>BOND
   1    1    2 ar
   2    1    6 ar
   3    1    8 1
   4    2    3 ar
   5    2   17 1
   6    3    4 ar
   7    3   11 1
   8    4    5 ar
   9    4   18 1
  10    5    6 ar
  11    5   19 1
  12    6    9 1
  13    7    8 1
  14    7   10 1
  15    7   20 1
  16    7   21 1
  17    8   22 1
  18    8   23 1
  19    9   10 1
  20    9   24 1
  21    9   25 1
  22   10   12 1
  23   11   16 3
  24   12   13 1
  25   12   26 1
  26   12   27 1
  27   13   14 1
  28   13   28 1
  29   13   29 1
  30   14   15 1
  31   14   30 1
  32   14   31 1
  33   15   32 1
  34   15   33 1
  35   15   34 1

#	End of record

