#	Name: ASD08170183
#	Creating user name:	WinNT
#	Creation time:	15. 06. 2019 21:17

#	Modifying user name:	WinNT
#	Modification time:	15. 06. 2019 21:17

#	Program:	/corina/corina34_cracker 3.40 0067  02.08.2006

@<TRIPOS>MOLECULE
ASD08170183
  60   62    0    0    0
SMALL
NO_CHARGES


@<TRIPOS>ATOM
   1 N1            -0.0150     1.2583     0.0090 N.2     
   2 N2             0.0021    -0.0041     0.0020 N.2     
   3 C3             1.1271     1.8769     0.0014 C.2     
   4 S4             2.3826     0.7116    -0.0169 S.3     
   5 C5             1.1681    -0.5677    -0.0121 C.2     
   6 C6             1.4387    -2.0502    -0.0217 C.3     
   7 C7             1.5173    -2.5450    -1.4674 C.3     
   8 S8             1.8430    -4.3295    -1.4789 S.3     
   9 C9             1.9004    -4.7224    -3.2489 C.3     
  10 C10            2.1718    -6.2170    -3.4310 C.3     
  11 C11            2.2195    -6.5434    -4.9015 C.2     
  12 N12            3.2727    -6.5215    -5.6551 N.2     
  13 S13            0.8525    -7.0314    -5.9038 S.3     
  14 C14            1.9042    -7.1394    -7.2517 C.2     
  15 N15            3.1057    -6.8287    -6.8682 N.2     
  16 N16            1.5340    -7.5046    -8.5415 N.am    
  17 C17            2.4593    -7.5523    -9.5203 C.2     
  18 O18            3.6149    -7.2766    -9.2761 O.2     
  19 C19            2.0581    -7.9480   -10.9179 C.3     
  20 N20            1.3017     3.2566     0.0071 N.am    
  21 C21            0.2284     4.0717     0.0222 C.2     
  22 O22           -0.8897     3.6019     0.0309 O.2     
  23 C23            0.4176     5.5667     0.0285 C.3     
  24 C24           -0.9288     6.2434     0.0456 C.ar    
  25 C25           -1.5344     6.5473     1.2505 C.ar    
  26 C26           -1.5557     6.5654    -1.1436 C.ar    
  27 C27           -2.7907     7.1861    -1.1280 C.ar    
  28 C28           -3.3991     7.4844     0.0769 C.ar    
  29 C29           -2.7694     7.1680     1.2662 C.ar    
  30 C30            1.4263    -6.7480   -11.6262 C.3     
  31 C31            2.4760    -5.6489   -11.8023 C.3     
  32 C32            0.9065    -7.1814   -12.9984 C.3     
  33 N33            3.2460    -8.3864   -11.6627 N.3     
  34 H34            2.3840    -2.2503     0.4827 H       
  35 H35            0.6331    -2.5700     0.4969 H       
  36 H36            0.5720    -2.3449    -1.9718 H       
  37 H37            2.3230    -2.0252    -1.9860 H       
  38 H38            0.9455    -4.4678    -3.7088 H       
  39 H39            2.6965    -4.1481    -3.7229 H       
  40 H40            3.1267    -6.4716    -2.9712 H       
  41 H41            1.3758    -6.7912    -2.9570 H       
  42 H42            0.6097    -7.7250    -8.7368 H       
  43 H43            1.3367    -8.7638   -10.8716 H       
  44 H44            2.1959     3.6323     0.0002 H       
  45 H45            0.9819     5.8579     0.9145 H       
  46 H46            0.9641     5.8675    -0.8654 H       
  47 H47           -1.0427     6.2994     2.1796 H       
  48 H48           -1.0804     6.3323    -2.0850 H       
  49 H49           -3.2802     7.4383    -2.0571 H       
  50 H50           -4.3638     7.9697     0.0892 H       
  51 H51           -3.2447     7.4011     2.2075 H       
  52 H52            0.5986    -6.3674   -11.0278 H       
  53 H53            3.3037    -6.0296   -12.4007 H       
  54 H54            2.0258    -4.7940   -12.3069 H       
  55 H55            2.8463    -5.3402   -10.8247 H       
  56 H56            0.1587    -7.9644   -12.8730 H       
  57 H57            0.4563    -6.3265   -13.5030 H       
  58 H58            1.7342    -7.5620   -13.5968 H       
  59 H59            2.9945    -8.7179   -12.5819 H       
  60 H60            3.9304    -7.6472   -11.7196 H       
@<TRIPOS>BOND
   1    1    2 1
   2    1    3 2
   3    2    5 2
   4    3    4 1
   5    3   20 1
   6    4    5 1
   7    5    6 1
   8    6    7 1
   9    6   34 1
  10    6   35 1
  11    7    8 1
  12    7   36 1
  13    7   37 1
  14    8    9 1
  15    9   10 1
  16    9   38 1
  17    9   39 1
  18   10   11 1
  19   10   40 1
  20   10   41 1
  21   11   12 2
  22   11   13 1
  23   12   15 1
  24   13   14 1
  25   14   15 2
  26   14   16 1
  27   16   17 am
  28   16   42 1
  29   17   18 2
  30   17   19 1
  31   19   30 1
  32   19   33 1
  33   19   43 1
  34   20   21 am
  35   20   44 1
  36   21   22 2
  37   21   23 1
  38   23   24 1
  39   23   45 1
  40   23   46 1
  41   24   25 ar
  42   24   26 ar
  43   25   29 ar
  44   25   47 1
  45   26   27 ar
  46   26   48 1
  47   27   28 ar
  48   27   49 1
  49   28   29 ar
  50   28   50 1
  51   29   51 1
  52   30   31 1
  53   30   32 1
  54   30   52 1
  55   31   53 1
  56   31   54 1
  57   31   55 1
  58   32   56 1
  59   32   57 1
  60   32   58 1
  61   33   59 1
  62   33   60 1

#	End of record

