#	Name: ASD03082196
#	Creating user name:	WinNT
#	Creation time:	15. 06. 2019 20:27

#	Modifying user name:	WinNT
#	Modification time:	15. 06. 2019 20:27

#	Program:	/corina/corina34_cracker 3.40 0067  02.08.2006

@<TRIPOS>MOLECULE
ASD03082196
  58   61    0    0    0
SMALL
NO_CHARGES


@<TRIPOS>ATOM
   1 N1             0.3515     1.5183    -0.1207 N.am    
   2 N2             0.0838     0.1400    -0.0887 N.2     
   3 C3             1.2415    -0.4749    -0.0276 C.2     
   4 N4             2.2235     0.4312    -0.0190 N.2     
   5 C5             1.7122     1.6432    -0.0746 C.2     
   6 N6             1.4189    -1.8561     0.0213 N.pl3   
   7 C7             0.3101    -2.6996     0.1312 C.ar    
   8 C8             0.3797    -4.0058    -0.3373 C.ar    
   9 C9            -0.7176    -4.8366    -0.2267 C.ar    
  10 C10           -1.8853    -4.3698     0.3492 C.ar    
  11 C11           -1.9581    -3.0703     0.8160 C.ar    
  12 C12           -0.8622    -2.2358     0.7141 C.ar    
  13 C13           -0.6430    -6.2535    -0.7346 C.3     
  14 F14           -0.1966    -7.0936     0.2912 F       
  15 F15           -1.9120    -6.6653    -1.1557 F       
  16 F16            0.2487    -6.3169    -1.8106 F       
  17 C17            2.5642     5.2043     0.6999 C.2     
  18 C18            2.2081     3.9481     0.9361 C.2     
  19 C19            2.4723     2.9107    -0.0856 C.2     
  20 C20            3.4104     3.1307    -1.0239 C.2     
  21 C21            4.1709     4.4330    -1.0295 C.3     
  22 C22            3.2410     5.5661    -0.5945 C.3     
  23 C23           -0.5511     2.5169    -0.1892 C.2     
  24 C24           -2.0158     2.1991    -0.3461 C.3     
  25 O25           -0.1859     3.6668    -0.1246 O.2     
  26 N26           -2.7856     3.4493    -0.3950 N.3     
  27 C27           -4.2212     3.1779    -0.5479 C.3     
  28 C28           -4.9882     4.5010    -0.5948 C.3     
  29 O29           -4.6138     5.2273    -1.7671 O.3     
  30 C30           -5.2765     6.4855    -1.9077 C.3     
  31 O31            5.2679     4.3374    -0.1165 O.3     
  32 C32            6.0150     5.5495     0.0188 C.3     
  33 C33            5.0751     6.6646     0.4878 C.3     
  34 O34            3.9865     6.7730    -0.4340 O.3     
  35 H35            2.3120    -2.2322    -0.0210 H       
  36 H36            1.2909    -4.3707    -0.7877 H       
  37 H37           -2.7422    -5.0216     0.4341 H       
  38 H38           -2.8715    -2.7088     1.2648 H       
  39 H39           -0.9184    -1.2223     1.0830 H       
  40 H40            2.3639     5.9690     1.4358 H       
  41 H41            1.7292     3.6845     1.8675 H       
  42 H42            3.6185     2.3780    -1.7699 H       
  43 H43            4.5441     4.6330    -2.0339 H       
  44 H44            2.4847     5.7252    -1.3632 H       
  45 H45           -2.1697     1.6413    -1.2699 H       
  46 H46           -2.3503     1.5994     0.5004 H       
  47 H47           -2.6095     4.0146     0.4220 H       
  48 H48           -4.3903     2.6270    -1.4731 H       
  49 H49           -4.5709     2.5850     0.2972 H       
  50 H50           -6.0591     4.2995    -0.6188 H       
  51 H51           -4.7492     5.0911     0.2900 H       
  52 H52           -6.3534     6.3252    -1.9589 H       
  53 H53           -5.0435     7.1167    -1.0502 H       
  54 H54           -4.9381     6.9743    -2.8213 H       
  55 H55            6.8087     5.4088     0.7525 H       
  56 H56            6.4495     5.8195    -0.9437 H       
  57 H57            4.6911     6.4251     1.4794 H       
  58 H58            5.6185     7.6088     0.5234 H       
@<TRIPOS>BOND
   1    1    2 1
   2    1    5 1
   3    1   23 am
   4    2    3 2
   5    3    4 1
   6    3    6 1
   7    4    5 2
   8    5   19 1
   9    6    7 1
  10    6   35 1
  11    7    8 ar
  12    7   12 ar
  13    8    9 ar
  14    8   36 1
  15    9   10 ar
  16    9   13 1
  17   10   11 ar
  18   10   37 1
  19   11   12 ar
  20   11   38 1
  21   12   39 1
  22   13   14 1
  23   13   15 1
  24   13   16 1
  25   17   18 2
  26   17   22 1
  27   17   40 1
  28   18   19 1
  29   18   41 1
  30   19   20 2
  31   20   21 1
  32   20   42 1
  33   21   22 1
  34   21   31 1
  35   21   43 1
  36   22   34 1
  37   22   44 1
  38   23   24 1
  39   23   25 2
  40   24   26 1
  41   24   45 1
  42   24   46 1
  43   26   27 1
  44   26   47 1
  45   27   28 1
  46   27   48 1
  47   27   49 1
  48   28   29 1
  49   28   50 1
  50   28   51 1
  51   29   30 1
  52   30   52 1
  53   30   53 1
  54   30   54 1
  55   31   32 1
  56   32   33 1
  57   32   55 1
  58   32   56 1
  59   33   34 1
  60   33   57 1
  61   33   58 1

#	End of record

