#	Name: ASD09890079
#	Creating user name:	WinNT
#	Creation time:	15. 06. 2019 21:24

#	Modifying user name:	WinNT
#	Modification time:	15. 06. 2019 21:24

#	Program:	/corina/corina34_cracker 3.40 0067  02.08.2006

@<TRIPOS>MOLECULE
ASD09890079
  43   46    0    0    0
SMALL
NO_CHARGES


@<TRIPOS>ATOM
   1 C1            -0.0176     1.3673     0.0654 C.2     
   2 N2            -0.0057    -0.0000     0.0351 N.pl3   
   3 C3            -1.2997    -0.4349     0.1199 C.2     
   4 N4            -2.0758     0.6197     0.1992 N.2     
   5 N5            -1.2618     1.7595     0.1702 N.2     
   6 S6            -1.8305    -2.1150     0.1215 S.3     
   7 C7            -3.6200    -1.8791     0.2574 C.3     
   8 C8             1.1330    -0.8132    -0.0654 C.ar    
   9 C9             2.0786    -0.8332     0.9557 C.ar    
  10 C10            3.1864    -1.6528     0.8111 C.ar    
  11 C11            3.3155    -2.4175    -0.3331 C.ar    
  12 N12            2.4012    -2.3756    -1.2826 N.ar    
  13 C13            1.3303    -1.6139    -1.1821 C.ar    
  14 C14           -4.3398    -3.2351     0.1537 C.3     
  15 C15           -5.1048    -3.4305     1.4789 C.3     
  16 C16           -5.3054    -1.9921     2.0174 C.3     
  17 C17           -3.9727    -1.2978     1.6422 C.3     
  18 O18            1.0701     2.1752     0.0035 O.3     
  19 C19            0.8652     3.5136    -0.0918 C.ar    
  20 C20           -0.4204     4.0059    -0.2839 C.ar    
  21 C21            1.9408     4.3883     0.0088 C.ar    
  22 C22            1.7371     5.7470    -0.0869 C.ar    
  23 C23            0.4467     6.2460    -0.2855 C.ar    
  24 C24           -0.6326     5.3632    -0.3812 C.ar    
  25 C25            0.2305     7.6580    -0.3855 C.1     
  26 N26            0.0589     8.7782    -0.4649 N.1     
  27 H27           -3.9689    -1.2100    -0.5291 H       
  28 H28            1.9521    -0.2246     1.8389 H       
  29 H29            3.9405    -1.6933     1.5832 H       
  30 H30            4.1771    -3.0578    -0.4513 H       
  31 H31            0.6029    -1.6063    -1.9805 H       
  32 H32           -5.0387    -3.2238    -0.6827 H       
  33 H33           -3.6115    -4.0353     0.0214 H       
  34 H34           -6.0679    -3.9074     1.2967 H       
  35 H35           -4.5121    -4.0204     2.1781 H       
  36 H36           -6.1464    -1.5077     1.5212 H       
  37 H37           -5.4457    -2.0004     3.0983 H       
  38 H38           -3.1972    -1.5432     2.3677 H       
  39 H39           -4.1095    -0.2182     1.5791 H       
  40 H40           -1.2539     3.3231    -0.3574 H       
  41 H41            2.9375     4.0019     0.1625 H       
  42 H42            2.5733     6.4260    -0.0083 H       
  43 H43           -1.6313     5.7447    -0.5346 H       
@<TRIPOS>BOND
   1    1    2 1
   2    1   18 1
   3    1    5 2
   4    2    3 1
   5    2    8 1
   6    3    4 2
   7    3    6 1
   8    4    5 1
   9    6    7 1
  10    7   14 1
  11    7   17 1
  12    7   27 1
  13    8    9 ar
  14    8   13 ar
  15    9   10 ar
  16    9   28 1
  17   10   11 ar
  18   10   29 1
  19   11   12 ar
  20   11   30 1
  21   12   13 ar
  22   13   31 1
  23   14   15 1
  24   14   32 1
  25   14   33 1
  26   15   16 1
  27   15   34 1
  28   15   35 1
  29   16   17 1
  30   16   36 1
  31   16   37 1
  32   17   38 1
  33   17   39 1
  34   18   19 1
  35   19   20 ar
  36   19   21 ar
  37   20   24 ar
  38   20   40 1
  39   21   22 ar
  40   21   41 1
  41   22   23 ar
  42   22   42 1
  43   23   24 ar
  44   23   25 1
  45   24   43 1
  46   25   26 3

#	End of record

