#	Name: ASD04882569
#	Creating user name:	WinNT
#	Creation time:	15. 06. 2019 20:55

#	Modifying user name:	WinNT
#	Modification time:	15. 06. 2019 20:55

#	Program:	/corina/corina34_cracker 3.40 0067  02.08.2006

@<TRIPOS>MOLECULE
ASD04882569
  84   89    0    0    0
SMALL
NO_CHARGES


@<TRIPOS>ATOM
   1 C1            -0.0215     1.4012    -0.0092 C.ar    
   2 C2            -0.0115     0.0036    -0.0052 C.ar    
   3 C3            -1.2094    -0.7019    -0.0160 C.ar    
   4 C4            -2.4097    -0.0268    -0.0310 C.ar    
   5 C5            -2.4267     1.3708    -0.0350 C.ar    
   6 C6            -1.2239     2.0825    -0.0185 C.ar    
   7 N7             1.1998    -0.6830     0.0090 N.3     
   8 C8             1.3075    -1.5362     1.2007 C.3     
   9 C9             1.3717    -1.4731    -1.2181 C.3     
  10 C10            2.7456    -2.1474    -1.1992 C.3     
  11 N11            2.8533    -3.0005    -0.0075 N.3     
  12 C12            2.6814    -2.2105     1.2196 C.3     
  13 C13           -3.7126     2.0937    -0.0516 C.2     
  14 O14           -3.7265     3.3096    -0.0551 O.2     
  15 N15           -4.8720     1.4065    -0.0628 N.am    
  16 N16            1.1866     2.1110     0.0021 N.am    
  17 C17            4.0684    -3.6893     0.0068 C.ar    
  18 C18            4.0811    -5.0782     0.0108 C.ar    
  19 C19            5.2845    -5.7562     0.0244 C.ar    
  20 C20            6.4754    -5.0538     0.0346 C.ar    
  21 C21            6.4663    -3.6708     0.0307 C.ar    
  22 C22            5.2669    -2.9867     0.0112 C.ar    
  23 C23            2.7836    -5.8445     0.0007 C.3     
  24 C24            1.2296     3.3600     0.5068 C.2     
  25 C25            2.5162     4.0732     0.6000 C.2     
  26 O26            0.2069     3.8985     0.8853 O.2     
  27 N27            3.7329     3.5991     0.2178 N.2     
  28 C28            4.6244     4.5145     0.4539 C.2     
  29 O29            4.0245     5.5887     0.9859 O.3     
  30 C30            2.7098     5.3324     1.0790 C.2     
  31 C31            6.0998     4.3882     0.1743 C.3     
  32 C32            6.7243     5.3956    -0.7932 C.3     
  33 C33            7.0165     5.4920     0.7055 C.3     
  34 C34           -6.1489     2.1244    -0.0793 C.3     
  35 C35           -7.2830     1.1321    -0.0894 C.ar    
  36 C36           -7.8163     0.6806     1.1033 C.ar    
  37 C37           -8.8568    -0.2292     1.0953 C.ar    
  38 C38           -9.3648    -0.6883    -0.1079 C.ar    
  39 C39           -8.8298    -0.2353    -1.3021 C.ar    
  40 C40           -7.7931     0.6782    -1.2917 C.ar    
  41 C41           -9.3814    -0.7345    -2.6127 C.3     
  42 N42           -8.9156    -2.1075    -2.8489 N.3     
  43 C43           -9.6163    -2.7123    -3.9896 C.3     
  44 C44           -7.4603    -2.1431    -3.0460 C.3     
  45 F45          -10.3815    -1.5779    -0.1169 F       
  46 H46           -1.1986    -1.7819    -0.0129 H       
  47 H47           -3.3385    -0.5778    -0.0400 H       
  48 H48           -1.2340     3.1625    -0.0213 H       
  49 H49            1.1893    -0.9264     2.0964 H       
  50 H50            0.5287    -2.2984     1.1739 H       
  51 H51            0.5937    -2.2346    -1.2724 H       
  52 H52            1.3004    -0.8173    -2.0858 H       
  53 H53            2.8638    -2.7572    -2.0949 H       
  54 H54            3.5244    -1.3852    -1.1724 H       
  55 H55            3.4594    -1.4490     1.2739 H       
  56 H56            2.7527    -2.8662     2.0873 H       
  57 H57           -4.8609     0.4366    -0.0600 H       
  58 H58            1.9919     1.7035    -0.3534 H       
  59 H59            5.2951    -6.8361     0.0275 H       
  60 H60            7.4149    -5.5864     0.0460 H       
  61 H61            7.3983    -3.1252     0.0390 H       
  62 H62            5.2605    -1.9068     0.0078 H       
  63 H63            2.4804    -6.0321    -1.0294 H       
  64 H64            2.9184    -6.7941     0.5184 H       
  65 H65            2.0134    -5.2615     0.5057 H       
  66 H66            1.9513     5.9965     1.4664 H       
  67 H67            6.4908     3.3708     0.1632 H       
  68 H68            7.5264     5.0410    -1.4406 H       
  69 H69            6.0679     6.1497    -1.2275 H       
  70 H70            6.5524     6.3095     1.2572 H       
  71 H71            8.0108     5.2009     1.0442 H       
  72 H72           -6.2239     2.7528     0.8082 H       
  73 H73           -6.2037     2.7479    -0.9716 H       
  74 H74           -7.4195     1.0387     2.0418 H       
  75 H75           -9.2730    -0.5821     2.0273 H       
  76 H76           -7.3757     1.0316    -2.2229 H       
  77 H77          -10.4707    -0.7215    -2.5769 H       
  78 H78           -9.0367    -0.0898    -3.4212 H       
  79 H79           -9.4295    -2.1208    -4.8859 H       
  80 H80           -9.2524    -3.7283    -4.1424 H       
  81 H81          -10.6870    -2.7365    -3.7869 H       
  82 H82           -6.9636    -1.7536    -2.1574 H       
  83 H83           -7.1421    -3.1712    -3.2188 H       
  84 H84           -7.1954    -1.5310    -3.9081 H       
@<TRIPOS>BOND
   1    1    2 ar
   2    1   16 1
   3    1    6 ar
   4    2    3 ar
   5    2    7 1
   6    3    4 ar
   7    3   46 1
   8    4    5 ar
   9    4   47 1
  10    5    6 ar
  11    5   13 1
  12    6   48 1
  13    7    8 1
  14    7    9 1
  15    8   12 1
  16    8   49 1
  17    8   50 1
  18    9   10 1
  19    9   51 1
  20    9   52 1
  21   10   11 1
  22   10   53 1
  23   10   54 1
  24   11   12 1
  25   11   17 1
  26   12   55 1
  27   12   56 1
  28   13   14 2
  29   13   15 am
  30   15   34 1
  31   15   57 1
  32   16   24 am
  33   16   58 1
  34   17   18 ar
  35   17   22 ar
  36   18   19 ar
  37   18   23 1
  38   19   20 ar
  39   19   59 1
  40   20   21 ar
  41   20   60 1
  42   21   22 ar
  43   21   61 1
  44   22   62 1
  45   23   63 1
  46   23   64 1
  47   23   65 1
  48   24   25 1
  49   24   26 2
  50   25   27 1
  51   25   30 2
  52   27   28 2
  53   28   29 1
  54   28   31 1
  55   29   30 1
  56   30   66 1
  57   31   32 1
  58   31   33 1
  59   31   67 1
  60   32   33 1
  61   32   68 1
  62   32   69 1
  63   33   70 1
  64   33   71 1
  65   34   35 1
  66   34   72 1
  67   34   73 1
  68   35   36 ar
  69   35   40 ar
  70   36   37 ar
  71   36   74 1
  72   37   38 ar
  73   37   75 1
  74   38   39 ar
  75   38   45 1
  76   39   40 ar
  77   39   41 1
  78   40   76 1
  79   41   42 1
  80   41   77 1
  81   41   78 1
  82   42   43 1
  83   42   44 1
  84   43   79 1
  85   43   80 1
  86   43   81 1
  87   44   82 1
  88   44   83 1
  89   44   84 1

#	End of record

