#	Name: ASD01910750
#	Creating user name:	WinNT
#	Creation time:	15. 06. 2019 19:56

#	Modifying user name:	WinNT
#	Modification time:	15. 06. 2019 19:56

#	Program:	/corina/corina34_cracker 3.40 0067  02.08.2006

@<TRIPOS>MOLECULE
ASD01910750
  54   57    0    0    0
SMALL
NO_CHARGES


@<TRIPOS>ATOM
   1 C1            -0.1172     1.7556     0.3987 C.ar    
   2 C2            -0.0221     0.3719     0.4106 C.ar    
   3 C3            -1.1663    -0.3997     0.3561 C.ar    
   4 C4            -2.4120     0.2102     0.2898 C.ar    
   5 C5            -2.5062     1.5955     0.2783 C.ar    
   6 C6            -1.3613     2.3656     0.3377 C.ar    
   7 N7            -3.5718    -0.5709     0.2341 N.3     
   8 C8            -4.7723     0.2732     0.1690 C.3     
   9 C9            -6.0011    -0.6100    -0.0726 C.3     
  10 N10           -6.0331    -1.6583     0.9586 N.am    
  11 C11           -4.8174    -2.4568     1.1770 C.3     
  12 C12           -3.6352    -1.5009     1.3694 C.3     
  13 C13           -7.1470    -1.8815     1.6838 C.2     
  14 C14           -7.1995    -3.0192     2.6269 C.ar    
  15 O15           -8.1083    -1.1477     1.5626 O.2     
  16 C16           -7.8235    -2.8713     3.8676 C.ar    
  17 C17           -7.8744    -3.9326     4.7501 C.ar    
  18 C18           -7.3097    -5.1462     4.4137 C.ar    
  19 C19           -6.6816    -5.3088     3.1749 C.ar    
  20 C20           -6.6317    -4.2424     2.2773 C.ar    
  21 C21           -6.0957    -6.5682     2.8268 C.1     
  22 C22           -5.6153    -7.6007     2.5415 C.1     
  23 C23           -5.0294    -8.8602     2.1934 C.ar    
  24 C24           -4.4014    -9.0242     0.9560 C.ar    
  25 C25           -3.8388   -10.2400     0.6278 C.ar    
  26 C26           -3.8956   -11.2959     1.5204 C.ar    
  27 C27           -4.5163   -11.1410     2.7475 C.ar    
  28 C28           -5.0778    -9.9292     3.0919 C.ar    
  29 O29            1.0100     2.5147     0.4523 O.3     
  30 C30            0.8382     3.9333     0.4363 C.3     
  31 H31            0.9468    -0.1022     0.4622 H       
  32 H32           -1.0921    -1.4771     0.3648 H       
  33 H33           -3.4747     2.0707     0.2268 H       
  34 H34           -1.4344     3.4431     0.3288 H       
  35 H35           -4.8902     0.8110     1.1097 H       
  36 H36           -4.6711     0.9871    -0.6484 H       
  37 H37           -6.9054    -0.0048    -0.0077 H       
  38 H38           -5.9342    -1.0687    -1.0591 H       
  39 H39           -4.9391    -3.0727     2.0681 H       
  40 H40           -4.6366    -3.0930     0.3106 H       
  41 H41           -2.7093    -2.0737     1.4226 H       
  42 H42           -3.7690    -0.9384     2.2934 H       
  43 H43           -8.2672    -1.9245     4.1378 H       
  44 H44           -8.3580    -3.8120     5.7083 H       
  45 H45           -7.3528    -5.9717     5.1087 H       
  46 H46           -6.1480    -4.3619     1.3191 H       
  47 H47           -4.3569    -8.2012     0.2581 H       
  48 H48           -3.3531   -10.3683    -0.3282 H       
  49 H49           -3.4537   -12.2458     1.2579 H       
  50 H50           -4.5574   -11.9697     3.4388 H       
  51 H51           -5.5618    -9.8097     4.0499 H       
  52 H52            0.2397     4.2365     1.2953 H       
  53 H53            1.8134     4.4179     0.4836 H       
  54 H54            0.3306     4.2274    -0.4823 H       
@<TRIPOS>BOND
   1    1    2 ar
   2    1   29 1
   3    1    6 ar
   4    2    3 ar
   5    2   31 1
   6    3    4 ar
   7    3   32 1
   8    4    5 ar
   9    4    7 1
  10    5    6 ar
  11    5   33 1
  12    6   34 1
  13    7    8 1
  14    7   12 1
  15    8    9 1
  16    8   35 1
  17    8   36 1
  18    9   10 1
  19    9   37 1
  20    9   38 1
  21   10   11 1
  22   10   13 am
  23   11   12 1
  24   11   39 1
  25   11   40 1
  26   12   41 1
  27   12   42 1
  28   13   14 1
  29   13   15 2
  30   14   16 ar
  31   14   20 ar
  32   16   17 ar
  33   16   43 1
  34   17   18 ar
  35   17   44 1
  36   18   19 ar
  37   18   45 1
  38   19   20 ar
  39   19   21 1
  40   20   46 1
  41   21   22 3
  42   22   23 1
  43   23   24 ar
  44   23   28 ar
  45   24   25 ar
  46   24   47 1
  47   25   26 ar
  48   25   48 1
  49   26   27 ar
  50   26   49 1
  51   27   28 ar
  52   27   50 1
  53   28   51 1
  54   29   30 1
  55   30   52 1
  56   30   53 1
  57   30   54 1

#	End of record

