#	Name: ASD01810337
#	Creating user name:	WinNT
#	Creation time:	15. 06. 2019 19:24

#	Modifying user name:	WinNT
#	Modification time:	15. 06. 2019 19:24

#	Program:	/corina/corina34_cracker 3.40 0067  02.08.2006

@<TRIPOS>MOLECULE
ASD01810337
  18   18    0    0    0
SMALL
NO_CHARGES


@<TRIPOS>ATOM
   1 C1            -0.0184     1.5028     0.0103 C.3     
   2 C2             0.0021    -0.0041     0.0020 C.2     
   3 C3             0.6086    -0.6721    -1.0595 C.2     
   4 C4             0.6715    -2.0673    -1.1441 C.2     
   5 C5             0.1372    -2.8563    -0.1825 C.2     
   6 C6            -0.5374    -2.1944     0.9997 C.3     
   7 C7            -0.5654    -0.6814     1.0307 C.2     
   8 S8             0.2245    -4.6119    -0.3046 S.3     
   9 O9             0.9686    -5.3171    -1.6102 O.2     
  10 O10           -0.4374    -5.5606     0.8860 O.2     
  11 F11            1.2941     1.9870     0.0004 F       
  12 Br12          -0.9692     2.1540    -1.5824 Br      
  13 H13           -0.5286     1.8543     0.9071 H       
  14 H14            1.0497    -0.0869    -1.8528 H       
  15 H15            1.1560    -2.5243    -1.9943 H       
  16 H16           -1.5665    -2.5514     1.0400 H       
  17 H17           -0.0345    -2.5348     1.9049 H       
  18 H18           -1.0294    -0.1538     1.8509 H       
@<TRIPOS>BOND
   1    1    2 1
   2    1   11 1
   3    1   12 1
   4    1   13 1
   5    2    3 1
   6    2    7 2
   7    3    4 2
   8    3   14 1
   9    4    5 1
  10    4   15 1
  11    5    6 1
  12    5    8 2
  13    6    7 1
  14    6   16 1
  15    6   17 1
  16    7   18 1
  17    8    9 2
  18    8   10 2

#	End of record

