#	Name: ASD01810895
#	Creating user name:	WinNT
#	Creation time:	15. 06. 2019 19:25

#	Modifying user name:	WinNT
#	Modification time:	15. 06. 2019 19:25

#	Program:	/corina/corina34_cracker 3.40 0067  02.08.2006

@<TRIPOS>MOLECULE
ASD01810895
  57   61    0    0    0
SMALL
NO_CHARGES


@<TRIPOS>ATOM
   1 C1            -0.0163     1.3503     0.0095 C.ar    
   2 C2             0.0021    -0.0041     0.0020 C.ar    
   3 C3             1.2131    -0.7153    -0.0130 C.ar    
   4 C4             2.4403    -0.0265    -0.0211 C.ar    
   5 C5             2.4296     1.4349    -0.0140 C.ar    
   6 N6             3.5586     2.1387    -0.0207 N.ar    
   7 C7             3.5458     3.4516    -0.0139 C.ar    
   8 C8             2.3532     4.1681     0.0010 C.ar    
   9 C9             1.1583     3.5034     0.0084 C.ar    
  10 C10            1.1789     2.0975     0.0021 C.ar    
  11 C11           -1.3393     2.0718     0.0196 C.3     
  12 C12           -1.7277     2.4287    -1.3921 C.ar    
  13 C13           -2.4775     1.5449    -2.1460 C.ar    
  14 C14           -2.8348     1.8697    -3.4403 C.ar    
  15 C15           -2.4407     3.0839    -3.9835 C.ar    
  16 C16           -1.6884     3.9689    -3.2249 C.ar    
  17 C17           -1.3384     3.6418    -1.9292 C.ar    
  18 C18            1.2424    -2.1816    -0.0201 C.2     
  19 N19            2.4369    -2.8085    -0.0341 N.am    
  20 C20            3.6083    -2.1118    -0.0413 C.2     
  21 C21            3.6433    -0.7662    -0.0352 C.2     
  22 O22            0.2061    -2.8224    -0.0131 O.2     
  23 C23            2.4759    -4.2730    -0.0414 C.3     
  24 C24            3.2219    -4.7694     1.1987 C.3     
  25 C25            3.2626    -6.2989     1.1911 C.3     
  26 C26            3.9856    -6.7836    -0.0671 C.3     
  27 C27            3.2395    -6.2871    -1.3072 C.3     
  28 C28            3.1988    -4.7577    -1.2997 C.3     
  29 O29            2.5467    -4.3167     2.3739 O.3     
  30 O30           -2.7905     3.4056    -5.2567 O.3     
  31 C31           -2.3499     4.6722    -5.7502 C.3     
  32 H32           -0.9315    -0.5470     0.0081 H       
  33 H33            4.4831     3.9880    -0.0196 H       
  34 H34            2.3713     5.2479     0.0070 H       
  35 H35            0.2233     4.0439     0.0203 H       
  36 H36           -2.1022     1.4257     0.4540 H       
  37 H37           -1.2525     2.9816     0.6136 H       
  38 H38           -2.7838     0.5996    -1.7228 H       
  39 H39           -3.4202     1.1789    -4.0289 H       
  40 H40           -1.3803     4.9148    -3.6456 H       
  41 H41           -0.7565     4.3324    -1.3368 H       
  42 H42            4.5400    -2.6579    -0.0521 H       
  43 H43            4.5928    -0.2514    -0.0416 H       
  44 H44            1.4583    -4.6635    -0.0338 H       
  45 H45            4.2395    -4.3789     1.1911 H       
  46 H46            3.7941    -6.6526     2.0746 H       
  47 H47            2.2450    -6.6894     1.1987 H       
  48 H48            5.0032    -6.3930    -0.0747 H       
  49 H49            4.0145    -7.8732    -0.0725 H       
  50 H50            3.7545    -6.6325    -2.2036 H       
  51 H51            2.2219    -6.6777    -1.2996 H       
  52 H52            2.6673    -4.4040    -2.1831 H       
  53 H53            4.2164    -4.3671    -1.3072 H       
  54 H54            2.9654    -4.5951     3.1999 H       
  55 H55           -2.6963     4.8031    -6.7754 H       
  56 H56           -2.7565     5.4671    -5.1250 H       
  57 H57           -1.2609     4.7124    -5.7267 H       
@<TRIPOS>BOND
   1    1    2 ar
   2    1   10 ar
   3    1   11 1
   4    2    3 ar
   5    2   32 1
   6    3    4 ar
   7    3   18 1
   8    4    5 ar
   9    4   21 1
  10    5    6 ar
  11    5   10 ar
  12    6    7 ar
  13    7    8 ar
  14    7   33 1
  15    8    9 ar
  16    8   34 1
  17    9   10 ar
  18    9   35 1
  19   11   12 1
  20   11   36 1
  21   11   37 1
  22   12   13 ar
  23   12   17 ar
  24   13   14 ar
  25   13   38 1
  26   14   15 ar
  27   14   39 1
  28   15   16 ar
  29   15   30 1
  30   16   17 ar
  31   16   40 1
  32   17   41 1
  33   18   19 am
  34   18   22 2
  35   19   20 1
  36   19   23 1
  37   20   21 2
  38   20   42 1
  39   21   43 1
  40   23   24 1
  41   23   28 1
  42   23   44 1
  43   24   25 1
  44   24   29 1
  45   24   45 1
  46   25   26 1
  47   25   46 1
  48   25   47 1
  49   26   27 1
  50   26   48 1
  51   26   49 1
  52   27   28 1
  53   27   50 1
  54   27   51 1
  55   28   52 1
  56   28   53 1
  57   29   54 1
  58   30   31 1
  59   31   55 1
  60   31   56 1
  61   31   57 1

#	End of record

