#	Name: ASD01885622
#	Creating user name:	WinNT
#	Creation time:	15. 06. 2019 19:49

#	Modifying user name:	WinNT
#	Modification time:	15. 06. 2019 19:49

#	Program:	/corina/corina34_cracker 3.40 0067  02.08.2006

@<TRIPOS>MOLECULE
ASD01885622
  35   37    0    0    0
SMALL
NO_CHARGES


@<TRIPOS>ATOM
   1 C1            -0.0168     1.3890     0.0097 C.ar    
   2 C2             0.0021    -0.0041     0.0020 C.ar    
   3 C3             1.1814    -0.6871    -0.0129 C.ar    
   4 C4             2.3912     0.0185    -0.0207 C.ar    
   5 C5             2.3773     1.4364    -0.0130 C.ar    
   6 C6             1.1392     2.1066     0.0025 C.ar    
   7 C7             3.6375    -0.6579    -0.0357 C.ar    
   8 C8             4.7939     0.1107    -0.0422 C.ar    
   9 C9             4.6939     1.5063    -0.0339 C.ar    
  10 N10            3.5240     2.1169    -0.0199 N.ar    
  11 C11            3.7036    -2.1366    -0.0436 C.ar    
  12 C12            5.9336     2.3198    -0.0405 C.2     
  13 O13            7.0187     1.7734    -0.0530 O.2     
  14 N14            5.8568     3.6654    -0.0327 N.am    
  15 C15            4.5016    -2.7961    -0.9795 C.ar    
  16 C16            4.5611    -4.1731    -0.9837 C.ar    
  17 C17            3.8280    -4.9043    -0.0578 C.ar    
  18 C18            3.0327    -4.2513     0.8751 C.ar    
  19 C19            2.9725    -2.8744     0.8885 C.ar    
  20 O20            3.8886    -6.2612    -0.0651 O.3     
  21 C21            3.1095    -6.9507     0.9145 C.3     
  22 F22            3.5203    -6.5629     2.1944 F       
  23 F23            1.7577    -6.6338     0.7426 F       
  24 H24           -0.9642     1.9075     0.0170 H       
  25 H25           -0.9299    -0.5498     0.0084 H       
  26 H26            1.1830    -1.7671    -0.0184 H       
  27 H27            1.1072     3.1861     0.0086 H       
  28 H28            5.7634    -0.3652    -0.0533 H       
  29 H29            4.9905     4.1016    -0.0228 H       
  30 H30            6.6678     4.1975    -0.0370 H       
  31 H31            5.0717    -2.2282    -1.6999 H       
  32 H32            5.1782    -4.6841    -1.7078 H       
  33 H33            2.4637    -4.8231     1.5933 H       
  34 H34            2.3542    -2.3673     1.6144 H       
  35 H35            3.2484    -8.0255     0.7985 H       
@<TRIPOS>BOND
   1    1    2 ar
   2    1    6 ar
   3    1   24 1
   4    2    3 ar
   5    2   25 1
   6    3    4 ar
   7    3   26 1
   8    4    5 ar
   9    4    7 ar
  10    5    6 ar
  11    5   10 ar
  12    6   27 1
  13    7    8 ar
  14    7   11 1
  15    8    9 ar
  16    8   28 1
  17    9   10 ar
  18    9   12 1
  19   11   15 ar
  20   11   19 ar
  21   12   13 2
  22   12   14 am
  23   14   29 1
  24   14   30 1
  25   15   16 ar
  26   15   31 1
  27   16   17 ar
  28   16   32 1
  29   17   18 ar
  30   17   20 1
  31   18   19 ar
  32   18   33 1
  33   19   34 1
  34   20   21 1
  35   21   22 1
  36   21   23 1
  37   21   35 1

#	End of record

