#	Name: ASD01912556
#	Creating user name:	WinNT
#	Creation time:	15. 06. 2019 19:59

#	Modifying user name:	WinNT
#	Modification time:	15. 06. 2019 19:59

#	Program:	/corina/corina34_cracker 3.40 0067  02.08.2006

@<TRIPOS>MOLECULE
ASD01912556
  37   38    0    0    0
SMALL
NO_CHARGES


@<TRIPOS>ATOM
   1 C1            -0.0169     1.3951     0.0097 C.ar    
   2 C2             0.0021    -0.0041     0.0020 C.ar    
   3 C3             1.2236    -0.6865    -0.0133 C.ar    
   4 C4             2.3964     0.0133    -0.0208 C.ar    
   5 C5             2.3767     1.4112    -0.0126 C.ar    
   6 C6             1.1566     2.0937     0.0023 C.ar    
   7 C7            -1.2280    -0.7372     0.0103 C.1     
   8 C8            -2.2364    -1.3382     0.0171 C.1     
   9 C9            -3.4665    -2.0714     0.0254 C.ar    
  10 C10           -3.4512    -3.4689     0.0177 C.ar    
  11 C11           -4.6883    -1.3929     0.0470 C.ar    
  12 C12           -5.8688    -2.1058     0.0553 C.ar    
  13 C13           -5.8457    -3.4894     0.0428 C.ar    
  14 C14           -4.6398    -4.1682     0.0263 C.ar    
  15 C15            3.6448     2.1670    -0.0197 C.2     
  16 O16            4.7060     1.5738    -0.0326 O.2     
  17 N17            3.6262     3.5146    -0.0118 N.am    
  18 C18            4.8846     4.2646    -0.0188 C.3     
  19 C19            5.3741     4.4259    -1.4594 C.3     
  20 C20            4.6589     5.6453     0.6008 C.3     
  21 H21           -0.9594     1.9225     0.0170 H       
  22 H22            1.2390    -1.7664    -0.0189 H       
  23 H23            3.3392    -0.5133    -0.0326 H       
  24 H24            1.1421     3.1736     0.0086 H       
  25 H25           -2.5108    -4.0000     0.0048 H       
  26 H26           -4.7078    -0.3132     0.0575 H       
  27 H27           -6.8137    -1.5830     0.0720 H       
  28 H28           -6.7734    -4.0424     0.0498 H       
  29 H29           -4.6296    -5.2481     0.0162 H       
  30 H30            2.7795     3.9879    -0.0015 H       
  31 H31            5.6329     3.7242     0.5609 H       
  32 H32            5.5349     3.4424    -1.9008 H       
  33 H33            4.6258     4.9664    -2.0390 H       
  34 H34            6.3104     4.9840    -1.4646 H       
  35 H35            4.3102     5.5303     1.6270 H       
  36 H36            5.5952     6.2033     0.5955 H       
  37 H37            3.9106     6.1857     0.0211 H       
@<TRIPOS>BOND
   1    1    2 ar
   2    1    6 ar
   3    1   21 1
   4    2    3 ar
   5    2    7 1
   6    3    4 ar
   7    3   22 1
   8    4    5 ar
   9    4   23 1
  10    5    6 ar
  11    5   15 1
  12    6   24 1
  13    7    8 3
  14    8    9 1
  15    9   10 ar
  16    9   11 ar
  17   10   14 ar
  18   10   25 1
  19   11   12 ar
  20   11   26 1
  21   12   13 ar
  22   12   27 1
  23   13   14 ar
  24   13   28 1
  25   14   29 1
  26   15   16 2
  27   15   17 am
  28   17   18 1
  29   17   30 1
  30   18   19 1
  31   18   20 1
  32   18   31 1
  33   19   32 1
  34   19   33 1
  35   19   34 1
  36   20   35 1
  37   20   36 1
  38   20   37 1

#	End of record

