#	Name: ASD01910809
#	Creating user name:	WinNT
#	Creation time:	15. 06. 2019 19:56

#	Modifying user name:	WinNT
#	Modification time:	15. 06. 2019 19:56

#	Program:	/corina/corina34_cracker 3.40 0067  02.08.2006

@<TRIPOS>MOLECULE
ASD01910809
  49   52    0    0    0
SMALL
NO_CHARGES


@<TRIPOS>ATOM
   1 C1            -0.0187     1.5289     0.0104 C.3     
   2 C2             0.0021    -0.0041     0.0020 C.3     
   3 C3             0.6326    -0.4715    -1.3067 C.3     
   4 C4             2.0830     0.0051    -1.4168 C.3     
   5 C5             2.1762     1.5278    -1.2120 C.3     
   6 C6             1.4269     2.0247    -0.0007 C.3     
   7 N7             2.4761    -0.1741    -2.8382 N.am    
   8 C8             2.1405     1.0589    -3.5687 C.3     
   9 C9             1.5958     2.0713    -2.5337 C.3     
  10 O10            1.4297     3.4537    -0.0045 O.3     
  11 C11            2.1076     1.5480     1.2143 C.1     
  12 C12            3.0431    -1.2762    -3.3677 C.2     
  13 C13            3.3800    -1.3141    -4.7945 C.2     
  14 O14            3.2754    -2.2399    -2.6618 O.2     
  15 C15            3.3127     0.7039     3.3652 C.ar    
  16 C16            2.8099     1.0326     4.6249 C.ar    
  17 C17            4.4601    -0.0831     3.2622 C.ar    
  18 C18            5.0903    -0.5316     4.4050 C.ar    
  19 C19            4.5866    -0.2027     5.6506 C.ar    
  20 C20            3.4494     0.5779     5.7595 C.ar    
  21 C21            2.6505     1.1677     2.1832 C.1     
  22 C22            3.9545    -2.3615    -5.4558 C.2     
  23 C23            4.0945    -1.9653    -6.7950 C.2     
  24 C24            3.6055    -0.7093    -6.8914 C.2     
  25 O25            3.1714    -0.3222    -5.6849 O.3     
  26 C26            2.9076     0.9313     7.1206 C.3     
  27 H27           -0.5399     1.8947    -0.8742 H       
  28 H28           -0.5229     1.8851     0.9088 H       
  29 H29            0.5925    -0.3671     0.8433 H       
  30 H30           -1.0168    -0.3847     0.0743 H       
  31 H31            0.6096    -1.5605    -1.3463 H       
  32 H32            0.0597    -0.0714    -2.1432 H       
  33 H33            2.7354    -0.5337    -0.7297 H       
  34 H34            3.2231     1.8224    -1.1396 H       
  35 H35            3.0337     1.4615    -4.0466 H       
  36 H36            1.3783     0.8495    -4.3191 H       
  37 H37            0.5061     2.0580    -2.5138 H       
  38 H38            1.9693     3.0747    -2.7382 H       
  39 H39            0.9657     3.8500     0.7457 H       
  40 H40            1.9224     1.6418     4.7112 H       
  41 H41            4.8539    -0.3412     2.2903 H       
  42 H42            5.9786    -1.1409     4.3267 H       
  43 H43            5.0833    -0.5565     6.5419 H       
  44 H44            4.2452    -3.3108    -5.0306 H       
  45 H45            4.5141    -2.5537    -7.5976 H       
  46 H46            3.5673    -0.1167    -7.7935 H       
  47 H47            3.3592     1.8632     7.4607 H       
  48 H48            1.8259     1.0524     7.0609 H       
  49 H49            3.1456     0.1340     7.8247 H       
@<TRIPOS>BOND
   1    1    2 1
   2    1    6 1
   3    1   27 1
   4    1   28 1
   5    2    3 1
   6    2   29 1
   7    2   30 1
   8    3    4 1
   9    3   31 1
  10    3   32 1
  11    4    5 1
  12    4    7 1
  13    4   33 1
  14    5    6 1
  15    5    9 1
  16    5   34 1
  17    6   10 1
  18    6   11 1
  19    7    8 1
  20    7   12 am
  21    8    9 1
  22    8   35 1
  23    8   36 1
  24    9   37 1
  25    9   38 1
  26   10   39 1
  27   11   21 3
  28   12   13 1
  29   12   14 2
  30   13   22 2
  31   13   25 1
  32   15   16 ar
  33   15   17 ar
  34   15   21 1
  35   16   20 ar
  36   16   40 1
  37   17   18 ar
  38   17   41 1
  39   18   19 ar
  40   18   42 1
  41   19   20 ar
  42   19   43 1
  43   20   26 1
  44   22   23 1
  45   22   44 1
  46   23   24 2
  47   23   45 1
  48   24   25 1
  49   24   46 1
  50   26   47 1
  51   26   48 1
  52   26   49 1

#	End of record

