#	Name: ASD01816160
#	Creating user name:	WinNT
#	Creation time:	15. 06. 2019 19:34

#	Modifying user name:	WinNT
#	Modification time:	15. 06. 2019 19:34

#	Program:	/corina/corina34_cracker 3.40 0067  02.08.2006

@<TRIPOS>MOLECULE
ASD01816160
  46   49    0    0    0
SMALL
NO_CHARGES


@<TRIPOS>ATOM
   1 C1            -0.0167     1.3813     0.0096 C.ar    
   2 C2             0.0021    -0.0041     0.0020 C.ar    
   3 C3             1.1984    -0.6909    -0.0127 C.ar    
   4 C4             2.4015     0.0059    -0.0200 C.ar    
   5 C5             2.3790     1.4106    -0.0127 C.ar    
   6 C6             1.1663     2.0916     0.0022 C.ar    
   7 N7             3.6053    -0.6772    -0.0338 N.pl3   
   8 C8             4.7970    -0.0586    -0.0409 C.2     
   9 C9             4.9000     1.3103    -0.0349 C.2     
  10 C10            3.6670     2.1301    -0.0207 C.2     
  11 C11            5.9971     2.2729    -0.0391 C.2     
  12 N12            5.4246     3.4960    -0.0282 N.am    
  13 N13            4.0323     3.3799    -0.0174 N.2     
  14 O14            7.1915     2.0229    -0.0495 O.2     
  15 C15            3.5779    -2.1419    -0.0404 C.3     
  16 C16            6.1265     4.7081    -0.0278 C.ar    
  17 C17            5.8865     5.6523     0.9648 C.ar    
  18 C18            7.0677     4.9677    -1.0150 C.ar    
  19 C19            7.7583     6.1639    -1.0120 C.ar    
  20 C20            7.5140     7.1037    -0.0273 C.ar    
  21 C21            6.5819     6.8478     0.9614 C.ar    
  22 F22            4.9754     5.4022     1.9305 F       
  23 C23            3.5557    -2.6451    -1.4851 C.3     
  24 C24            3.5271    -4.1748    -1.4920 C.3     
  25 C25            3.5048    -4.6780    -2.9368 C.3     
  26 C26            3.4762    -6.2077    -2.9437 C.3     
  27 H27           -0.9602     1.9068     0.0170 H       
  28 H28           -0.9289    -0.5515     0.0080 H       
  29 H29            1.2004    -1.7709    -0.0181 H       
  30 H30            1.1506     3.1715     0.0077 H       
  31 H31            5.6983    -0.6536    -0.0513 H       
  32 H32            4.4654    -2.5242     0.4639 H       
  33 H33            2.6859    -2.4910     0.4797 H       
  34 H34            7.2599     4.2346    -1.7845 H       
  35 H35            8.4906     6.3655    -1.7798 H       
  36 H36            8.0560     8.0378    -0.0278 H       
  37 H37            6.3934     7.5839     1.7289 H       
  38 H38            2.6682    -2.2628    -1.9894 H       
  39 H39            4.4477    -2.2960    -2.0052 H       
  40 H40            4.4146    -4.5571    -0.9878 H       
  41 H41            2.6350    -4.5239    -0.9720 H       
  42 H42            2.6173    -4.2957    -3.4410 H       
  43 H43            4.3969    -4.3289    -3.4568 H       
  44 H44            4.3637    -6.5900    -2.4394 H       
  45 H45            2.5842    -6.5567    -2.4236 H       
  46 H46            3.4604    -6.5661    -3.9729 H       
@<TRIPOS>BOND
   1    1    2 ar
   2    1    6 ar
   3    1   27 1
   4    2    3 ar
   5    2   28 1
   6    3    4 ar
   7    3   29 1
   8    4    5 ar
   9    4    7 1
  10    5    6 ar
  11    5   10 1
  12    6   30 1
  13    7    8 1
  14    7   15 1
  15    8    9 2
  16    8   31 1
  17    9   10 1
  18    9   11 1
  19   10   13 2
  20   11   12 am
  21   11   14 2
  22   12   13 1
  23   12   16 1
  24   15   23 1
  25   15   32 1
  26   15   33 1
  27   16   17 ar
  28   16   18 ar
  29   17   22 1
  30   17   21 ar
  31   18   19 ar
  32   18   34 1
  33   19   20 ar
  34   19   35 1
  35   20   21 ar
  36   20   36 1
  37   21   37 1
  38   23   24 1
  39   23   38 1
  40   23   39 1
  41   24   25 1
  42   24   40 1
  43   24   41 1
  44   25   26 1
  45   25   42 1
  46   25   43 1
  47   26   44 1
  48   26   45 1
  49   26   46 1

#	End of record

