#	Name: ASD02508289
#	Creating user name:	WinNT
#	Creation time:	15. 06. 2019 20:24

#	Modifying user name:	WinNT
#	Modification time:	15. 06. 2019 20:24

#	Program:	/corina/corina34_cracker 3.40 0067  02.08.2006

@<TRIPOS>MOLECULE
ASD02508289
  43   45    0    0    0
SMALL
NO_CHARGES


@<TRIPOS>ATOM
   1 C1            -0.0712     1.3041     0.3830 C.ar    
   2 C2            -0.0630    -0.0706     0.1478 C.ar    
   3 C3            -1.2586    -0.7657     0.0557 C.ar    
   4 C4            -2.4569    -0.0934     0.1976 C.ar    
   5 C5            -2.4661     1.2709     0.4306 C.ar    
   6 C6            -1.2785     1.9693     0.5289 C.ar    
   7 S7            -3.9780    -0.9750     0.0810 S.o2    
   8 N8            -4.7830    -0.3906    -1.2430 N.am    
   9 C9            -4.2720    -0.6112    -2.5256 C.ar    
  10 O10            1.2205     1.7132     0.4240 O.3     
  11 C11            2.0242     0.6566     0.2253 C.2     
  12 N12            1.2754    -0.4506     0.0528 N.am    
  13 O13           -3.6391    -2.3223    -0.2179 O.2     
  14 O14           -4.7469    -0.6005     1.2157 O.2     
  15 O15            3.2395     0.6929     0.2042 O.2     
  16 C16            1.7761    -1.8058    -0.1906 C.3     
  17 C17           -5.1130    -1.0371    -3.5455 C.ar    
  18 C18           -3.7779     1.9968     0.5831 C.3     
  19 C19           -2.9240    -0.3994    -2.7827 C.ar    
  20 C20           -2.4204    -0.6178    -4.0506 C.ar    
  21 C21           -4.6055    -1.2545    -4.8124 C.ar    
  22 Cl22          -5.6556    -1.7868    -6.0882 Cl      
  23 C23           -3.2584    -1.0477    -5.0648 C.ar    
  24 F24           -2.7638    -1.2607    -6.3038 F       
  25 C25            1.9832    -2.5207     1.1461 C.3     
  26 O26            0.7214    -2.6945     1.7940 O.3     
  27 C27            0.8033    -3.3560     3.0580 C.3     
  28 H28           -1.2533    -1.8302    -0.1268 H       
  29 H29           -1.2908     3.0337     0.7112 H       
  30 H30           -5.6092     0.1047    -1.1286 H       
  31 H31            1.0523    -2.3583    -0.7898 H       
  32 H32            2.7246    -1.7522    -0.7248 H       
  33 H33           -6.1626    -1.1986    -3.3486 H       
  34 H34           -4.1205     1.9152     1.6146 H       
  35 H35           -3.6435     3.0477     0.3270 H       
  36 H36           -4.5185     1.5526    -0.0820 H       
  37 H37           -2.2694    -0.0636    -1.9920 H       
  38 H38           -1.3721    -0.4527    -4.2506 H       
  39 H39            2.4386    -3.4952     0.9702 H       
  40 H40            2.6379    -1.9228     1.7802 H       
  41 H41            1.4335    -2.7755     3.7317 H       
  42 H42           -0.1954    -3.4492     3.4846 H       
  43 H43            1.2342    -4.3479     2.9217 H       
@<TRIPOS>BOND
   1    1    2 ar
   2    1   10 1
   3    1    6 ar
   4    2    3 ar
   5    2   12 1
   6    3    4 ar
   7    3   28 1
   8    4    5 ar
   9    4    7 1
  10    5    6 ar
  11    5   18 1
  12    6   29 1
  13    7    8 am
  14    7   13 2
  15    7   14 2
  16    8    9 1
  17    8   30 1
  18    9   17 ar
  19    9   19 ar
  20   10   11 1
  21   11   12 am
  22   11   15 2
  23   12   16 1
  24   16   25 1
  25   16   31 1
  26   16   32 1
  27   17   21 ar
  28   17   33 1
  29   18   34 1
  30   18   35 1
  31   18   36 1
  32   19   20 ar
  33   19   37 1
  34   20   23 ar
  35   20   38 1
  36   21   22 1
  37   21   23 ar
  38   23   24 1
  39   25   26 1
  40   25   39 1
  41   25   40 1
  42   26   27 1
  43   27   41 1
  44   27   42 1
  45   27   43 1

#	End of record

