#	Name: ASD03930187
#	Creating user name:	WinNT
#	Creation time:	15. 06. 2019 20:47

#	Modifying user name:	WinNT
#	Modification time:	15. 06. 2019 20:47

#	Program:	/corina/corina34_cracker 3.40 0067  02.08.2006

@<TRIPOS>MOLECULE
ASD03930187
  67   68    0    0    0
SMALL
NO_CHARGES


@<TRIPOS>ATOM
   1 C1             0.0319     1.2998     0.0786 C.ar    
   2 C2            -1.0422     1.7222    -0.6845 C.ar    
   3 C3            -0.9373     2.8564    -1.4699 C.ar    
   4 C4             0.2407     3.5737    -1.4973 C.ar    
   5 C5             1.3282     3.1531    -0.7298 C.ar    
   6 C6             1.2155     2.0082     0.0608 C.ar    
   7 C7             2.5938     3.9164    -0.7545 C.2     
   8 N8             3.6419     3.5077    -0.0124 N.am    
   9 O9             2.6892     4.9129    -1.4443 O.2     
  10 C10            4.8689     4.1716    -0.1098 C.ar    
  11 C11            4.9029     5.5462    -0.3058 C.ar    
  12 C12            6.1162     6.1987    -0.4016 C.ar    
  13 C13            7.2966     5.4850    -0.3032 C.ar    
  14 C14            7.2663     4.1163    -0.1081 C.ar    
  15 C15            6.0562     3.4585    -0.0052 C.ar    
  16 C16            8.6188     6.2002    -0.4092 C.3     
  17 C17            9.4086     5.6391    -1.5934 C.3     
  18 C18            9.4160     5.9923     0.8800 C.3     
  19 N19           10.6399     6.4131    -1.7699 N.am    
  20 S20           11.8610     5.8213    -2.7190 S.o2    
  21 C21           11.1546     5.7757    -4.3892 C.3     
  22 C22           10.7402     7.1882    -4.8064 C.3     
  23 C23           12.1992     5.2399    -5.3703 C.3     
  24 O24           12.8797     6.8085    -2.6353 O.2     
  25 O25           12.0760     4.5037    -2.2324 O.2     
  26 C26           -2.3320     0.9430    -0.6604 C.3     
  27 C27           -3.2346     1.4850     0.4497 C.3     
  28 N28           -4.4918     0.7256     0.4732 N.3     
  29 S29           -5.3752     1.0109     1.9743 S.o2    
  30 C30           -4.5028     0.5674     3.1809 C.2     
  31 C31           -5.7047     2.5237     2.1018 C.2     
  32 C32           -6.9171     0.0554     1.9595 C.3     
  33 H33           -0.0580     0.4161     0.6929 H       
  34 H34           -1.7795     3.1807    -2.0632 H       
  35 H35            0.3216     4.4584    -2.1113 H       
  36 H36            2.0532     1.6774     0.6569 H       
  37 H37            3.5452     2.7531     0.5893 H       
  38 H38            3.9814     6.1041    -0.3834 H       
  39 H39            6.1433     7.2676    -0.5540 H       
  40 H40            8.1899     3.5617    -0.0320 H       
  41 H41            6.0332     2.3896     0.1472 H       
  42 H42            8.4445     7.2655    -0.5608 H       
  43 H43            9.6597     4.5960    -1.4011 H       
  44 H44            8.8042     5.7065    -2.4979 H       
  45 H45            9.5902     4.9270     1.0316 H       
  46 H46           10.3723     6.5096     0.8033 H       
  47 H47            8.8532     6.3920     1.7236 H       
  48 H48           10.7398     7.2722    -1.3308 H       
  49 H49           10.2811     5.1237    -4.3966 H       
  50 H50           10.3157     7.1608    -5.8100 H       
  51 H51            9.9960     7.5699    -4.1075 H       
  52 H52           11.6137     7.8402    -4.7991 H       
  53 H53           12.4944     4.2336    -5.0731 H       
  54 H54           11.7747     5.2125    -6.3739 H       
  55 H55           13.0726     5.8919    -5.3630 H       
  56 H56           -2.8364     1.0455    -1.6213 H       
  57 H57           -2.1175    -0.1091    -0.4731 H       
  58 H58           -2.7302     1.3826     1.4106 H       
  59 H59           -3.4491     2.5372     0.2624 H       
  60 H60           -5.0622     0.9457    -0.3295 H       
  61 H61           -3.5173     0.1586     3.0133 H       
  62 H62           -4.8818     0.6680     4.1872 H       
  63 H63           -6.5927     2.8405     2.6286 H       
  64 H64           -5.0457     3.2587     1.6637 H       
  65 H65           -6.6859    -1.0060     1.8701 H       
  66 H66           -7.4626     0.2316     2.8866 H       
  67 H67           -7.5292     0.3665     1.1130 H       
@<TRIPOS>BOND
   1    1    2 ar
   2    1    6 ar
   3    1   33 1
   4    2    3 ar
   5    2   26 1
   6    3    4 ar
   7    3   34 1
   8    4    5 ar
   9    4   35 1
  10    5    6 ar
  11    5    7 1
  12    6   36 1
  13    7    8 am
  14    7    9 2
  15    8   10 1
  16    8   37 1
  17   10   11 ar
  18   10   15 ar
  19   11   12 ar
  20   11   38 1
  21   12   13 ar
  22   12   39 1
  23   13   14 ar
  24   13   16 1
  25   14   15 ar
  26   14   40 1
  27   15   41 1
  28   16   17 1
  29   16   18 1
  30   16   42 1
  31   17   19 1
  32   17   43 1
  33   17   44 1
  34   18   45 1
  35   18   46 1
  36   18   47 1
  37   19   20 am
  38   19   48 1
  39   20   21 1
  40   20   24 2
  41   20   25 2
  42   21   22 1
  43   21   23 1
  44   21   49 1
  45   22   50 1
  46   22   51 1
  47   22   52 1
  48   23   53 1
  49   23   54 1
  50   23   55 1
  51   26   27 1
  52   26   56 1
  53   26   57 1
  54   27   28 1
  55   27   58 1
  56   27   59 1
  57   28   29 1
  58   28   60 1
  59   29   30 2
  60   29   31 2
  61   29   32 1
  62   30   61 1
  63   30   62 1
  64   31   63 1
  65   31   64 1
  66   32   65 1
  67   32   66 1
  68   32   67 1

#	End of record

