#	Name: ASD03731377
#	Creating user name:	WinNT
#	Creation time:	15. 06. 2019 20:45

#	Modifying user name:	WinNT
#	Modification time:	15. 06. 2019 20:45

#	Program:	/corina/corina34_cracker 3.40 0067  02.08.2006

@<TRIPOS>MOLECULE
ASD03731377
  69   75    0    0    0
SMALL
NO_CHARGES


@<TRIPOS>ATOM
   1 O1            -2.7458     1.8120     0.0564 O.3     
   2 C2            -3.1840     0.4405     0.0570 C.3     
   3 O3            -2.0372    -0.2857    -0.4228 O.3     
   4 C4            -0.9543     0.4715    -0.0780 C.ar    
   5 C5            -1.3905     1.7615     0.2155 C.ar    
   6 C6             0.3902     0.1588     0.0113 C.ar    
   7 C7             1.3152     1.1263     0.3919 C.ar    
   8 C8             0.8687     2.4136     0.6746 C.ar    
   9 C9            -0.4721     2.7269     0.5925 C.ar    
  10 O10            2.6652     1.0245     0.5565 O.3     
  11 C11            2.0887     3.2240     1.0218 C.3     
  12 C12            3.2471     2.3423     0.5359 C.3     
  13 N13            2.1675     5.4869     1.3340 N.am    
  14 C14            2.0884     4.5676     0.3513 C.2     
  15 C15            2.1829     3.5126     2.4908 C.ar    
  16 C16            2.2278     2.7188     3.6151 C.ar    
  17 C17            2.3177     3.2974     4.8686 C.ar    
  18 C18            2.3624     4.6744     4.9893 C.ar    
  19 C19            2.3169     5.4738     3.8662 C.ar    
  20 C20            2.2266     4.9001     2.6003 C.ar    
  21 O21            2.0290     4.7833    -0.8407 O.2     
  22 C22            2.1897     6.9331     1.1011 C.3     
  23 C23            0.7578     7.4721     1.1033 C.3     
  24 C24            0.7810     8.9825     0.8600 C.3     
  25 N25           -0.5938     9.5000     0.8622 N.3     
  26 C26           -1.2033     9.3696     2.1924 C.3     
  27 C27           -2.6970     9.5340     2.0789 C.ar    
  28 C28           -3.4881     8.4510     1.7439 C.ar    
  29 C29           -4.8582     8.6018     1.6397 C.ar    
  30 C30           -5.4373     9.8355     1.8710 C.ar    
  31 C31           -4.6463    10.9183     2.2069 C.ar    
  32 C32           -3.2766    10.7665     2.3153 C.ar    
  33 C33           -0.6324    10.8937     0.3997 C.3     
  34 C34           -0.4630    10.9312    -1.0972 C.ar    
  35 C35           -1.5608    10.7679    -1.9213 C.ar    
  36 C36           -1.4054    10.8022    -3.2945 C.ar    
  37 C37           -0.1523    11.0003    -3.8435 C.ar    
  38 C38            0.9453    11.1645    -3.0194 C.ar    
  39 C39            0.7892    11.1345    -1.6462 C.ar    
  40 H40           -3.4440     0.1220     1.0665 H       
  41 H41           -4.0303     0.3086    -0.6171 H       
  42 H42            0.7242    -0.8429    -0.2154 H       
  43 H43           -0.8064     3.7278     0.8222 H       
  44 H44            4.0932     2.4027     1.2204 H       
  45 H45            3.5455     2.6179    -0.4756 H       
  46 H46            2.1923     1.6437     3.5184 H       
  47 H47            2.3526     2.6753     5.7507 H       
  48 H48            2.4330     5.1260     5.9678 H       
  49 H49            2.3514     6.5484     3.9688 H       
  50 H50            2.7623     7.4196     1.8907 H       
  51 H51            2.6538     7.1386     0.1364 H       
  52 H52            0.1852     6.9856     0.3136 H       
  53 H53            0.2937     7.2666     2.0679 H       
  54 H54            1.3536     9.4689     1.6497 H       
  55 H55            1.2451     9.1880    -0.1046 H       
  56 H56           -0.9762     8.3850     2.6012 H       
  57 H57           -0.8023    10.1385     2.8527 H       
  58 H58           -3.0356     7.4871     1.5632 H       
  59 H59           -5.4762     7.7559     1.3773 H       
  60 H60           -6.5077     9.9535     1.7889 H       
  61 H61           -5.0988    11.8822     2.3872 H       
  62 H62           -2.6590    11.6116     2.5813 H       
  63 H63           -1.5903    11.3393     0.6683 H       
  64 H64            0.1743    11.4553     0.8708 H       
  65 H65           -2.5398    10.6131    -1.4924 H       
  66 H66           -2.2629    10.6738    -3.9383 H       
  67 H67           -0.0308    11.0264    -4.9164 H       
  68 H68            1.9243    11.3190    -3.4484 H       
  69 H69            1.6462    11.2665    -1.0024 H       
@<TRIPOS>BOND
   1    1    2 1
   2    1    5 1
   3    2    3 1
   4    2   40 1
   5    2   41 1
   6    3    4 1
   7    4    5 ar
   8    4    6 ar
   9    5    9 ar
  10    6    7 ar
  11    6   42 1
  12    7    8 ar
  13    7   10 1
  14    8    9 ar
  15    8   11 1
  16    9   43 1
  17   10   12 1
  18   11   12 1
  19   11   14 1
  20   11   15 1
  21   12   44 1
  22   12   45 1
  23   13   14 am
  24   13   20 1
  25   13   22 1
  26   14   21 2
  27   15   16 ar
  28   15   20 ar
  29   16   17 ar
  30   16   46 1
  31   17   18 ar
  32   17   47 1
  33   18   19 ar
  34   18   48 1
  35   19   20 ar
  36   19   49 1
  37   22   23 1
  38   22   50 1
  39   22   51 1
  40   23   24 1
  41   23   52 1
  42   23   53 1
  43   24   25 1
  44   24   54 1
  45   24   55 1
  46   25   26 1
  47   25   33 1
  48   26   27 1
  49   26   56 1
  50   26   57 1
  51   27   28 ar
  52   27   32 ar
  53   28   29 ar
  54   28   58 1
  55   29   30 ar
  56   29   59 1
  57   30   31 ar
  58   30   60 1
  59   31   32 ar
  60   31   61 1
  61   32   62 1
  62   33   34 1
  63   33   63 1
  64   33   64 1
  65   34   35 ar
  66   34   39 ar
  67   35   36 ar
  68   35   65 1
  69   36   37 ar
  70   36   66 1
  71   37   38 ar
  72   37   67 1
  73   38   39 ar
  74   38   68 1
  75   39   69 1

#	End of record

