#	Name: ASD01200017
#	Creating user name:	WinNT
#	Creation time:	15. 06. 2019 19:08

#	Modifying user name:	WinNT
#	Modification time:	15. 06. 2019 19:08

#	Program:	/corina/corina34_cracker 3.40 0067  02.08.2006

@<TRIPOS>MOLECULE
ASD01200017
  40   42    0    0    0
SMALL
NO_CHARGES


@<TRIPOS>ATOM
   1 C1            -0.0170     1.3951     0.0084 C.ar    
   2 N2             0.0021    -0.0041     0.0020 N.am    
   3 C3             1.1728    -0.6615    -0.1144 C.2     
   4 N4             1.2031    -2.0057    -0.0208 N.am    
   5 C5             2.4109    -2.6839    -0.1409 C.2     
   6 O6             2.2017    -0.0420    -0.3040 O.2     
   7 S7             2.5947    -4.3808    -0.0431 S.3     
   8 C8             4.3302    -4.2187    -0.2985 C.2     
   9 C9             4.6094    -2.9200    -0.4323 C.2     
  10 N10            3.5599    -2.1220    -0.3488 N.2     
  11 C11           -0.3746     2.0809     1.1618 C.ar    
  12 C12           -0.3925     3.4619     1.1648 C.ar    
  13 C13           -0.0553     4.1617     0.0208 C.ar    
  14 C14            0.3007     3.4818    -1.1295 C.ar    
  15 C15            0.3271     2.1009    -1.1370 C.ar    
  16 S16           -0.0800     5.9235     0.0286 S.o2    
  17 C17           -1.2505    -0.7543     0.1219 C.3     
  18 C18           -1.8181    -1.0070    -1.2510 C.2     
  19 C19           -1.5525    -2.0721    -2.0088 C.2     
  20 C20           -2.1918    -2.0885    -3.2365 C.2     
  21 C21           -2.9765    -1.0368    -3.4757 C.2     
  22 S22           -2.9380     0.0537    -2.0962 S.3     
  23 O23           -0.3062     6.2768    -1.3291 O.2     
  24 O24           -1.0222     6.2563     1.0389 O.2     
  25 C25            1.5949     6.3974     0.5391 C.3     
  26 Cl26           5.4771    -5.5202    -0.3647 Cl      
  27 H27            0.3823    -2.4999     0.1304 H       
  28 H28            5.6109    -2.5521    -0.5993 H       
  29 H29           -0.6387     1.5349     2.0554 H       
  30 H30           -0.6705     3.9958     2.0615 H       
  31 H31            0.5629     4.0312    -2.0216 H       
  32 H32            0.6053     1.5704    -2.0357 H       
  33 H33           -1.0579    -1.7064     0.6164 H       
  34 H34           -1.9646    -0.1776     0.7098 H       
  35 H35           -0.8887    -2.8617    -1.6889 H       
  36 H36           -2.0645    -2.8919    -3.9470 H       
  37 H37           -3.5505    -0.8804    -4.3771 H       
  38 H38            2.3176     6.0037    -0.1756 H       
  39 H39            1.6710     7.4842     0.5716 H       
  40 H40            1.8025     5.9890     1.5282 H       
@<TRIPOS>BOND
   1    1    2 1
   2    1   11 ar
   3    1   15 ar
   4    2    3 am
   5    2   17 1
   6    3    4 am
   7    3    6 2
   8    4    5 1
   9    4   27 1
  10    5    7 1
  11    5   10 2
  12    7    8 1
  13    8    9 2
  14    8   26 1
  15    9   10 1
  16    9   28 1
  17   11   12 ar
  18   11   29 1
  19   12   13 ar
  20   12   30 1
  21   13   14 ar
  22   13   16 1
  23   14   15 ar
  24   14   31 1
  25   15   32 1
  26   16   23 2
  27   16   24 2
  28   16   25 1
  29   17   18 1
  30   17   33 1
  31   17   34 1
  32   18   19 2
  33   18   22 1
  34   19   20 1
  35   19   35 1
  36   20   21 2
  37   20   36 1
  38   21   22 1
  39   21   37 1
  40   25   38 1
  41   25   39 1
  42   25   40 1

#	End of record

