#	Name: ASD08830135
#	Creating user name:	WinNT
#	Creation time:	15. 06. 2019 21:19

#	Modifying user name:	WinNT
#	Modification time:	15. 06. 2019 21:19

#	Program:	/corina/corina34_cracker 3.40 0067  02.08.2006

@<TRIPOS>MOLECULE
ASD08830135
  33   34    0    0    0
SMALL
NO_CHARGES


@<TRIPOS>ATOM
   1 C1            -0.0178     1.4641     0.0101 C.ar    
   2 C2             0.0021    -0.0041     0.0020 C.2     
   3 C3             1.3172    -0.7397    -0.0145 C.3     
   4 C4             1.0581    -2.2476    -0.0201 C.3     
   5 N5             2.3401    -2.9647    -0.0362 N.3     
   6 O6            -1.0400    -0.6248     0.0086 O.2     
   7 C7             1.1828     2.1841     0.0025 C.ar    
   8 C8            -0.0550     4.2366     0.0259 C.ar    
   9 C9            -1.2490     3.5332     0.0272 C.ar    
  10 C10            2.1422    -4.4028     0.1963 C.3     
  11 C11            3.4931    -5.1184     0.1121 C.3     
  12 O12            4.3950    -4.5362     1.0571 O.3     
  13 C13            4.6112    -3.1363     0.8596 C.3     
  14 C14            3.2717    -2.4007     0.9513 C.3     
  15 C15            1.1571     3.5605     0.0102 C.ar    
  16 F16           -0.0709     5.5874     0.0333 F       
  17 C17           -1.2397     2.1523     0.0196 C.ar    
  18 F18           -2.4038     1.4667     0.0209 F       
  19 H19            1.8766    -0.4639    -0.9084 H       
  20 H20            1.8936    -0.4734     0.8715 H       
  21 H21            0.4987    -2.5235     0.8738 H       
  22 H22            0.4817    -2.5139    -0.9061 H       
  23 H23            2.1275     1.6607    -0.0090 H       
  24 H24           -2.1884     4.0659     0.0345 H       
  25 H25            1.7104    -4.5556     1.1854 H       
  26 H26            1.4696    -4.8048    -0.5613 H       
  27 H27            3.3596    -6.1759     0.3402 H       
  28 H28            3.8999    -5.0108    -0.8933 H       
  29 H29            5.2863    -2.7603     1.6283 H       
  30 H30            5.0505    -2.9711    -0.1242 H       
  31 H31            3.4234    -1.3412     0.7449 H       
  32 H32            2.8579    -2.5214     1.9525 H       
  33 H33            2.0832     4.1161     0.0043 H       
@<TRIPOS>BOND
   1    1    2 1
   2    1    7 ar
   3    1   17 ar
   4    2    3 1
   5    2    6 2
   6    3    4 1
   7    3   19 1
   8    3   20 1
   9    4    5 1
  10    4   21 1
  11    4   22 1
  12    5   10 1
  13    5   14 1
  14    7   15 ar
  15    7   23 1
  16    8    9 ar
  17    8   16 1
  18    8   15 ar
  19    9   17 ar
  20    9   24 1
  21   10   11 1
  22   10   25 1
  23   10   26 1
  24   11   12 1
  25   11   27 1
  26   11   28 1
  27   12   13 1
  28   13   14 1
  29   13   29 1
  30   13   30 1
  31   14   31 1
  32   14   32 1
  33   15   33 1
  34   17   18 1

#	End of record

