#	Name: ASD01882380
#	Creating user name:	WinNT
#	Creation time:	15. 06. 2019 19:44

#	Modifying user name:	WinNT
#	Modification time:	15. 06. 2019 19:44

#	Program:	/corina/corina34_cracker 3.40 0067  02.08.2006

@<TRIPOS>MOLECULE
ASD01882380
  55   60    0    0    0
SMALL
NO_CHARGES


@<TRIPOS>ATOM
   1 C1             1.8472     1.4016     1.1874 C.2     
   2 C2             1.8377     0.0025     1.0568 C.2     
   3 C3             1.2231    -0.5618    -0.0279 C.2     
   4 C4             0.6120     0.2684    -0.9927 C.2     
   5 C5             0.6331     1.6077    -0.8476 C.2     
   6 N6             1.2432     2.1803     0.2302 N.pl3   
   7 N7             2.0845     3.4422     1.7599 N.2     
   8 N8             2.3400     2.2274     2.0980 N.2     
   9 C9             1.4201     3.4709     0.6348 C.2     
  10 C10            2.4963    -0.8655     2.0979 C.3     
  11 F11            3.8233    -1.1108     1.7289 F       
  12 F12            2.4694    -0.2121     3.3347 F       
  13 F13            1.8077    -2.0793     2.1966 F       
  14 N14            1.2010    -1.9450    -0.1792 N.pl3   
  15 C15            2.3726    -2.7978    -0.4147 C.3     
  16 C16            1.8770    -4.2448    -0.5866 C.3     
  17 C17            0.3599    -4.0708    -0.9173 C.3     
  18 C18           -0.0000    -2.7940    -0.1231 C.3     
  19 N19            1.5143    -4.5207    -2.9769 N.3     
  20 C20            2.4592    -4.8242    -1.8888 C.3     
  21 C21            0.3949    -3.7322    -2.4238 C.3     
  22 C22            2.1499    -3.8296    -4.0152 C.ar    
  23 C23            2.2908    -4.4248    -5.2644 C.ar    
  24 C24            2.9186    -3.7395    -6.2878 C.ar    
  25 C25            3.4065    -2.4618    -6.0691 C.ar    
  26 C26            3.2668    -1.8684    -4.8265 C.ar    
  27 C27            2.6353    -2.5474    -3.8015 C.ar    
  28 F28            4.0201    -1.7937    -7.0703 F       
  29 F29            1.8152    -5.6713    -5.4771 F       
  30 C30            0.9361     4.7042    -0.0833 C.3     
  31 C31           -0.4683     5.0618     0.4072 C.3     
  32 C32           -1.0917     6.3566    -0.1180 C.3     
  33 C33           -1.6085     5.0037    -0.6114 C.3     
  34 H34            0.1260    -0.1720    -1.8508 H       
  35 H35            0.1630     2.2339    -1.5915 H       
  36 H36            2.8883    -2.4746    -1.3190 H       
  37 H37            3.0495    -2.7384     0.4376 H       
  38 H38            2.0595    -4.8663     0.2900 H       
  39 H39           -0.2543    -4.9340    -0.6609 H       
  40 H40           -0.2364    -3.0446     0.9110 H       
  41 H41           -0.8432    -2.2853    -0.5904 H       
  42 H42            3.4246    -4.3636    -2.0988 H       
  43 H43            2.5773    -5.9035    -1.7925 H       
  44 H44           -0.5424    -4.0233    -2.8980 H       
  45 H45            0.5765    -2.6670    -2.5672 H       
  46 H46            3.0289    -4.2007    -7.2581 H       
  47 H47            3.6482    -0.8720    -4.6587 H       
  48 H48            2.5234    -2.0817    -2.8335 H       
  49 H49            1.6142     5.5330     0.1206 H       
  50 H50            0.9086     4.5128    -1.1560 H       
  51 H51           -0.6951     4.7744     1.4339 H       
  52 H52           -1.7288     6.9208     0.5631 H       
  53 H53           -0.5012     6.9537    -0.8129 H       
  54 H54           -1.3580     4.7107    -1.6310 H       
  55 H55           -2.5856     4.6778    -0.2550 H       
@<TRIPOS>BOND
   1    1    2 1
   2    1    6 1
   3    1    8 2
   4    2    3 2
   5    2   10 1
   6    3    4 1
   7    3   14 1
   8    4    5 2
   9    4   34 1
  10    5    6 1
  11    5   35 1
  12    6    9 1
  13    7    8 1
  14    7    9 2
  15    9   30 1
  16   10   11 1
  17   10   12 1
  18   10   13 1
  19   14   15 1
  20   14   18 1
  21   15   16 1
  22   15   36 1
  23   15   37 1
  24   16   17 1
  25   16   20 1
  26   16   38 1
  27   17   18 1
  28   17   21 1
  29   17   39 1
  30   18   40 1
  31   18   41 1
  32   19   20 1
  33   19   21 1
  34   19   22 1
  35   20   42 1
  36   20   43 1
  37   21   44 1
  38   21   45 1
  39   22   23 ar
  40   22   27 ar
  41   23   24 ar
  42   23   29 1
  43   24   25 ar
  44   24   46 1
  45   25   26 ar
  46   25   28 1
  47   26   27 ar
  48   26   47 1
  49   27   48 1
  50   30   31 1
  51   30   49 1
  52   30   50 1
  53   31   32 1
  54   31   33 1
  55   31   51 1
  56   32   33 1
  57   32   52 1
  58   32   53 1
  59   33   54 1
  60   33   55 1

#	End of record

