#	Name: ASD01885846
#	Creating user name:	WinNT
#	Creation time:	15. 06. 2019 19:50

#	Modifying user name:	WinNT
#	Modification time:	15. 06. 2019 19:50

#	Program:	/corina/corina34_cracker 3.40 0067  02.08.2006

@<TRIPOS>MOLECULE
ASD01885846
  46   49    0    0    0
SMALL
NO_CHARGES


@<TRIPOS>ATOM
   1 C1            -0.0195     1.4016    -0.2098 C.ar    
   2 C2            -0.0144     0.0042     0.0298 C.ar    
   3 C3            -1.2466    -0.6969     0.0417 C.ar    
   4 C4            -2.4088     0.0279    -0.1844 C.ar    
   5 C5            -2.3280     1.4061    -0.4132 C.ar    
   6 N6            -1.1712     2.0412    -0.4148 N.ar    
   7 C7             1.2054     2.0967    -0.2214 C.ar    
   8 C8             2.3663     1.4219    -0.0040 C.ar    
   9 C9             2.3662     0.0482     0.2312 C.ar    
  10 C10            1.2008    -0.6574     0.2502 C.ar    
  11 C11           -1.2925    -2.1565     0.2870 C.ar    
  12 C12           -3.5739     2.1731    -0.6543 C.2     
  13 N13           -3.5154     3.5012    -0.8765 N.am    
  14 O14           -4.6476     1.6044    -0.6516 O.2     
  15 C15            3.6735     2.1716    -0.0181 C.3     
  16 C16           -2.1662    -2.6787     1.2411 C.ar    
  17 C17           -2.2054    -4.0389     1.4656 C.ar    
  18 C18           -1.3785    -4.8866     0.7455 C.ar    
  19 C19           -0.5088    -4.3726    -0.2035 C.ar    
  20 C20           -0.4662    -3.0145    -0.4393 C.ar    
  21 F21           -1.4167    -6.2177     0.9729 F       
  22 C22            4.0646     2.5262     1.3934 C.ar    
  23 C23            3.5629     3.6708     1.9945 C.ar    
  24 C24            3.9501     3.9572     3.2944 C.ar    
  25 C25            4.8172     3.0985     3.9436 C.ar    
  26 N26            5.2744     2.0187     3.3407 N.ar    
  27 C27            4.9231     1.7119     2.1071 C.ar    
  28 C28            2.6197     4.5819     1.2520 C.3     
  29 H29           -3.3681    -0.4682    -0.1840 H       
  30 H30            1.2229     3.1613    -0.4025 H       
  31 H31            3.3020    -0.4636     0.4007 H       
  32 H32            1.2137    -1.7216     0.4340 H       
  33 H33           -2.6582     3.9552    -0.8787 H       
  34 H34           -4.3304     4.0029    -1.0342 H       
  35 H35            4.4468     1.5453    -0.4629 H       
  36 H36            3.5629     3.0838    -0.6045 H       
  37 H37           -2.8104    -2.0189     1.8032 H       
  38 H38           -2.8815    -4.4441     2.2039 H       
  39 H39            0.1336    -5.0373    -0.7620 H       
  40 H40            0.2089    -2.6154    -1.1819 H       
  41 H41            3.5792     4.8403     3.7934 H       
  42 H42            5.1239     3.3147     4.9563 H       
  43 H43            5.3181     0.8186     1.6461 H       
  44 H44            1.6002     4.2096     1.3529 H       
  45 H45            2.6822     5.5872     1.6686 H       
  46 H46            2.8943     4.6079     0.1975 H       
@<TRIPOS>BOND
   1    1    2 ar
   2    1    7 ar
   3    1    6 ar
   4    2    3 ar
   5    2   10 ar
   6    3    4 ar
   7    3   11 1
   8    4    5 ar
   9    4   29 1
  10    5    6 ar
  11    5   12 1
  12    7    8 ar
  13    7   30 1
  14    8   15 1
  15    8    9 ar
  16    9   10 ar
  17    9   31 1
  18   10   32 1
  19   11   16 ar
  20   11   20 ar
  21   12   13 am
  22   12   14 2
  23   13   33 1
  24   13   34 1
  25   15   22 1
  26   15   35 1
  27   15   36 1
  28   16   17 ar
  29   16   37 1
  30   17   18 ar
  31   17   38 1
  32   18   19 ar
  33   18   21 1
  34   19   20 ar
  35   19   39 1
  36   20   40 1
  37   22   23 ar
  38   22   27 ar
  39   23   24 ar
  40   23   28 1
  41   24   25 ar
  42   24   41 1
  43   25   26 ar
  44   25   42 1
  45   26   27 ar
  46   27   43 1
  47   28   44 1
  48   28   45 1
  49   28   46 1

#	End of record

