#	Name: ASD01028036
#	Creating user name:	WinNT
#	Creation time:	15. 06. 2019 18:56

#	Modifying user name:	WinNT
#	Modification time:	15. 06. 2019 18:56

#	Program:	/corina/corina34_cracker 3.40 0067  02.08.2006

@<TRIPOS>MOLECULE
ASD01028036
  67   72    0    0    0
SMALL
NO_CHARGES


@<TRIPOS>ATOM
   1 C1             3.4294    -0.3999    -1.8636 C.3     
   2 C2             3.7961    -1.8663    -1.6216 C.3     
   3 C3             2.8051    -2.4987    -0.6455 C.3     
   4 C4             3.9575     1.7271    -0.6725 C.3     
   5 C5             4.5606     0.5075    -1.3720 C.3     
   6 N6             5.0210     2.5959    -0.1558 N.3     
   7 N7             5.5877    -0.0305     2.4943 N.pl3   
   8 C8             5.9405     1.2654     2.9343 C.ar    
   9 C9             6.1830     2.2173     1.9499 C.ar    
  10 C10            6.0829     1.8209     0.4961 C.3     
  11 C11            6.0503     1.5965     4.2790 C.ar    
  12 C12            6.3877     2.8983     4.6314 C.ar    
  13 C13            6.6135     3.8557     3.6490 C.ar    
  14 C14            6.5106     3.5114     2.3081 C.ar    
  15 O15            3.3730    -3.6596    -0.0320 O.3     
  16 C16            3.7596    -3.5364     1.2698 C.ar    
  17 C17            4.3390    -2.3658     1.6731 C.ar    
  18 C18            4.7214    -2.2069     3.0116 C.ar    
  19 C19            5.3203    -1.0000     3.4614 C.ar    
  20 N20            5.6035    -0.8757     4.7410 N.ar    
  21 O21            5.8900     0.8657     5.4146 O.3     
  22 C22            6.1547     1.7196     6.5335 C.3     
  23 O23            6.4398     3.0105     5.9893 O.3     
  24 C24            3.5811    -4.5919     2.1790 C.ar    
  25 C25            3.9573    -4.4551     3.4992 C.ar    
  26 C26            4.5130    -3.2484     3.9426 C.ar    
  27 N27            4.8499    -3.0297     5.2239 N.ar    
  28 C28            5.3641    -1.8764     5.5804 C.ar    
  29 O29            3.0328    -5.7598     1.7538 O.3     
  30 O30            6.9349     5.1297     4.0016 O.3     
  31 C31            2.8773    -6.7953     2.7261 C.3     
  32 C32            7.0402     6.0575     3.0145 C.ar    
  33 C33            5.9285     6.7809     2.6073 C.ar    
  34 C34            8.2658     6.2999     2.4013 C.ar    
  35 C35            8.3233     7.2554     1.3999 C.ar    
  36 N36            6.0259     7.6818     1.6497 N.ar    
  37 C37            7.1707     7.9315     1.0451 C.ar    
  38 C38            7.2249     8.9728    -0.0430 C.3     
  39 H39            3.2720    -0.2372    -2.9298 H       
  40 H40            2.5133    -0.1618    -1.3230 H       
  41 H41            3.7673    -2.4071    -2.5676 H       
  42 H42            4.8014    -1.9237    -1.2044 H       
  43 H43            2.5488    -1.7733     0.1266 H       
  44 H44            1.9015    -2.7830    -1.1847 H       
  45 H45            3.3484     2.2860    -1.3830 H       
  46 H46            3.3295     1.3949     0.1541 H       
  47 H47            5.1890    -0.0411    -0.6705 H       
  48 H48            5.1606     0.8344    -2.2213 H       
  49 H49            5.3971     3.1810    -0.8868 H       
  50 H50            5.5328    -0.2394     1.5486 H       
  51 H51            5.8519     0.7580     0.4251 H       
  52 H52            7.0330     2.0188     0.0000 H       
  53 H53            6.6870     4.2548     1.5447 H       
  54 H54            4.5014    -1.5678     0.9637 H       
  55 H55            5.2798     1.7706     7.1816 H       
  56 H56            7.0145     1.3499     7.0923 H       
  57 H57            3.8230    -5.2755     4.1887 H       
  58 H58            5.6088    -1.7321     6.6224 H       
  59 H59            3.8529    -7.0610     3.1332 H       
  60 H60            2.2312    -6.4442     3.5308 H       
  61 H61            2.4291    -7.6708     2.2561 H       
  62 H62            4.9734     6.6040     3.0795 H       
  63 H63            9.1505     5.7567     2.6992 H       
  64 H64            9.2576     7.4698     0.9025 H       
  65 H65            7.0304     8.5018    -1.0066 H       
  66 H66            6.4708     9.7365     0.1470 H       
  67 H67            8.2129     9.4331    -0.0565 H       
@<TRIPOS>BOND
   1    1    2 1
   2    1    5 1
   3    1   39 1
   4    1   40 1
   5    2    3 1
   6    2   41 1
   7    2   42 1
   8    3   15 1
   9    3   43 1
  10    3   44 1
  11    4    5 1
  12    4    6 1
  13    4   45 1
  14    4   46 1
  15    5   47 1
  16    5   48 1
  17    6   10 1
  18    6   49 1
  19    7    8 1
  20    7   19 1
  21    7   50 1
  22    8    9 ar
  23    8   11 ar
  24    9   10 1
  25    9   14 ar
  26   10   51 1
  27   10   52 1
  28   11   12 ar
  29   11   21 1
  30   12   13 ar
  31   12   23 1
  32   13   14 ar
  33   13   30 1
  34   14   53 1
  35   15   16 1
  36   16   17 ar
  37   16   24 ar
  38   17   18 ar
  39   17   54 1
  40   18   19 ar
  41   18   26 ar
  42   19   20 ar
  43   20   28 ar
  44   21   22 1
  45   22   23 1
  46   22   55 1
  47   22   56 1
  48   24   25 ar
  49   24   29 1
  50   25   26 ar
  51   25   57 1
  52   26   27 ar
  53   27   28 ar
  54   28   58 1
  55   29   31 1
  56   30   32 1
  57   31   59 1
  58   31   60 1
  59   31   61 1
  60   32   33 ar
  61   32   34 ar
  62   33   36 ar
  63   33   62 1
  64   34   35 ar
  65   34   63 1
  66   35   37 ar
  67   35   64 1
  68   36   37 ar
  69   37   38 1
  70   38   65 1
  71   38   66 1
  72   38   67 1

#	End of record

