#	Name: ASD09890031
#	Creating user name:	WinNT
#	Creation time:	15. 06. 2019 21:24

#	Modifying user name:	WinNT
#	Modification time:	15. 06. 2019 21:24

#	Program:	/corina/corina34_cracker 3.40 0067  02.08.2006

@<TRIPOS>MOLECULE
ASD09890031
  42   44    0    0    0
SMALL
NO_CHARGES


@<TRIPOS>ATOM
   1 C1            -0.0167     1.3784     0.0096 C.ar    
   2 C2             0.0021    -0.0041     0.0020 C.ar    
   3 C3             1.2074    -0.6814    -0.0127 C.ar    
   4 C4             2.3963     0.0221    -0.0203 C.ar    
   5 C5             2.3802     1.4093    -0.0132 C.ar    
   6 C6             1.1695     2.0865     0.0021 C.ar    
   7 O7             3.5484     2.1036    -0.0202 O.3     
   8 C8             3.4557     3.5296    -0.0122 C.3     
   9 C9             4.8408     4.1231    -0.0217 C.2     
  10 N10            5.5771     4.4484    -1.1298 N.pl3   
  11 C11            6.7571     4.9507    -0.6543 C.2     
  12 N12            6.6908     4.9111     0.6565 N.2     
  13 N13            5.5580     4.4273     1.0230 N.2     
  14 S14            8.1099     5.5387    -1.6179 S.3     
  15 C15            9.2516     6.0177    -0.2976 C.3     
  16 C16            5.1997     4.2975    -2.4729 C.ar    
  17 C17            9.6811     4.7730     0.4816 C.3     
  18 C18           10.4843     6.6881    -0.9075 C.3     
  19 C19            5.0293     5.4162    -3.2767 C.ar    
  20 C20            4.6578     5.2657    -4.5984 C.ar    
  21 C21            4.4548     3.9998    -5.1216 C.ar    
  22 C22            4.6243     2.8826    -4.3212 C.ar    
  23 C23            5.0018     3.0291    -3.0007 C.ar    
  24 F24            4.0906     3.8545    -6.4145 F       
  25 H25           -0.9595     1.9052     0.0170 H       
  26 H26           -0.9263    -0.5558     0.0080 H       
  27 H27            1.2194    -1.7613    -0.0179 H       
  28 H28            3.3375    -0.5074    -0.0315 H       
  29 H29            1.1543     3.1664     0.0073 H       
  30 H30            2.9113     3.8632    -0.8956 H       
  31 H31            2.9274     3.8543     0.8842 H       
  32 H32            8.7550     6.7152     0.3769 H       
  33 H33           10.1778     4.0755    -0.1929 H       
  34 H34           10.3687     5.0614     1.2768 H       
  35 H35            8.8030     4.2954     0.9162 H       
  36 H36           10.1783     7.5749    -1.4626 H       
  37 H37           11.1718     6.9766    -0.1124 H       
  38 H38           10.9809     5.9906    -1.5820 H       
  39 H39            5.1868     6.4037    -2.8687 H       
  40 H40            4.5252     6.1360    -5.2241 H       
  41 H41            4.4653     1.8961    -4.7308 H       
  42 H42            5.1339     2.1575    -2.3766 H       
@<TRIPOS>BOND
   1    1    2 ar
   2    1    6 ar
   3    1   25 1
   4    2    3 ar
   5    2   26 1
   6    3    4 ar
   7    3   27 1
   8    4    5 ar
   9    4   28 1
  10    5    6 ar
  11    5    7 1
  12    6   29 1
  13    7    8 1
  14    8    9 1
  15    8   30 1
  16    8   31 1
  17    9   10 1
  18    9   13 2
  19   10   11 1
  20   10   16 1
  21   11   12 2
  22   11   14 1
  23   12   13 1
  24   14   15 1
  25   15   17 1
  26   15   18 1
  27   15   32 1
  28   16   19 ar
  29   16   23 ar
  30   17   33 1
  31   17   34 1
  32   17   35 1
  33   18   36 1
  34   18   37 1
  35   18   38 1
  36   19   20 ar
  37   19   39 1
  38   20   21 ar
  39   20   40 1
  40   21   22 ar
  41   21   24 1
  42   22   23 ar
  43   22   41 1
  44   23   42 1

#	End of record

