#	Name: ASD02588017
#	Creating user name:	WinNT
#	Creation time:	15. 06. 2019 20:25

#	Modifying user name:	WinNT
#	Modification time:	15. 06. 2019 20:25

#	Program:	/corina/corina34_cracker 3.40 0067  02.08.2006

@<TRIPOS>MOLECULE
ASD02588017
  74   79    0    0    0
SMALL
NO_CHARGES


@<TRIPOS>ATOM
   1 C1            -0.1244     1.6013     0.0858 C.2     
   2 N2             0.0149     0.2411     0.0422 N.pl3   
   3 N3            -1.1407    -0.5523     0.1081 N.2     
   4 C4            -2.3232     0.0145     0.2094 C.2     
   5 N5            -2.4680     1.3421     0.2522 N.2     
   6 C6            -1.4259     2.1496     0.2007 C.2     
   7 C7             1.1493     2.1784     0.0058 C.2     
   8 C8             2.0761     1.1141    -0.0887 C.2     
   9 C9             1.3410    -0.0708    -0.0634 C.2     
  10 N10           -1.6030     3.5185     0.2472 N.pl3   
  11 C11            1.4628     3.6148     0.0174 C.2     
  12 C12            3.5452     1.2349    -0.1943 C.2     
  13 C13           -3.5302    -0.8443     0.2775 C.2     
  14 N14            4.1291     1.3184    -1.4061 N.am    
  15 O15            4.2269     1.2588     0.8118 O.2     
  16 N16            1.5206     4.3013    -1.1410 N.am    
  17 O17            1.6700     4.1837     1.0727 O.2     
  18 O18           -4.6312    -0.3387     0.3713 O.2     
  19 N19           -3.4061    -2.1857     0.2355 N.am    
  20 C20            5.5036     1.5544    -1.5050 C.ar    
  21 C21            1.7223     5.6849    -1.1244 C.ar    
  22 C22           -4.5305    -2.9977     0.4120 C.ar    
  23 C23            6.2047     1.1253    -2.6247 C.ar    
  24 C24            7.5623     1.3604    -2.7195 C.ar    
  25 C25            8.2238     2.0218    -1.7010 C.ar    
  26 C26            7.5289     2.4499    -0.5847 C.ar    
  27 C27            6.1701     2.2235    -0.4864 C.ar    
  28 C28            2.5391     6.2577    -0.1580 C.ar    
  29 C29            2.7361     7.6245    -0.1444 C.ar    
  30 C30            2.1209     8.4228    -1.0913 C.ar    
  31 C31            1.3070     7.8557    -2.0548 C.ar    
  32 C32            1.1107     6.4888    -2.0777 C.ar    
  33 C33           -5.5399    -2.6090     1.2834 C.ar    
  34 C34           -6.6492    -3.4134     1.4555 C.ar    
  35 C35           -6.7558    -4.6047     0.7613 C.ar    
  36 C36           -5.7527    -4.9946    -0.1071 C.ar    
  37 C37           -4.6433    -4.1921    -0.2881 C.ar    
  38 C38            1.8983    -1.4252    -0.1369 C.2     
  39 O39            3.1003    -1.5839    -0.2287 O.2     
  40 O40            1.0774    -2.4950    -0.1025 O.3     
  41 C41            1.6985    -3.8052    -0.1795 C.3     
  42 C42            0.6334    -4.8699    -0.1272 C.ar    
  43 C43            0.0574    -5.3295    -1.2968 C.ar    
  44 C44           -0.9197    -6.3062    -1.2488 C.ar    
  45 C45           -1.3205    -6.8236    -0.0312 C.ar    
  46 C46           -0.7440    -6.3646     1.1383 C.ar    
  47 C47            0.2362    -5.3911     1.0900 C.ar    
  48 H48           -2.4963     3.8898     0.3180 H       
  49 H49           -0.8340     4.1085     0.2090 H       
  50 H50            3.5957     1.2149    -2.2097 H       
  51 H51            1.4224     3.8355    -1.9862 H       
  52 H52           -2.5366    -2.5878     0.0827 H       
  53 H53            5.6888     0.6081    -3.4202 H       
  54 H54            8.1080     1.0271    -3.5898 H       
  55 H55            9.2856     2.2041    -1.7774 H       
  56 H56            8.0486     2.9655     0.2093 H       
  57 H57            5.6279     2.5581     0.3856 H       
  58 H58            3.0194     5.6349     0.5822 H       
  59 H59            3.3712     8.0705     0.6067 H       
  60 H60            2.2760     9.4915    -1.0780 H       
  61 H61            0.8277     8.4819    -2.7927 H       
  62 H62            0.4750     6.0465    -2.8305 H       
  63 H63           -5.4571    -1.6790     1.8261 H       
  64 H64           -7.4342    -3.1120     2.1332 H       
  65 H65           -7.6241    -5.2321     0.8979 H       
  66 H66           -5.8389    -5.9256    -0.6477 H       
  67 H67           -3.8604    -4.4970    -0.9667 H       
  68 H68            2.2519    -3.8905    -1.1147 H       
  69 H69            2.3819    -3.9333     0.6600 H       
  70 H70            0.3706    -4.9253    -2.2481 H       
  71 H71           -1.3701    -6.6648    -2.1625 H       
  72 H72           -2.0844    -7.5861     0.0064 H       
  73 H73           -1.0574    -6.7686     2.0896 H       
  74 H74            0.6893    -5.0352     2.0035 H       
@<TRIPOS>BOND
   1    1    2 1
   2    1    7 2
   3    1    6 1
   4    2    3 1
   5    2    9 1
   6    3    4 2
   7    4    5 1
   8    4   13 1
   9    5    6 2
  10    6   10 1
  11    7    8 1
  12    7   11 1
  13    8    9 2
  14    8   12 1
  15    9   38 1
  16   10   48 1
  17   10   49 1
  18   11   16 am
  19   11   17 2
  20   12   14 am
  21   12   15 2
  22   13   18 2
  23   13   19 am
  24   14   20 1
  25   14   50 1
  26   16   21 1
  27   16   51 1
  28   19   22 1
  29   19   52 1
  30   20   23 ar
  31   20   27 ar
  32   21   28 ar
  33   21   32 ar
  34   22   33 ar
  35   22   37 ar
  36   23   24 ar
  37   23   53 1
  38   24   25 ar
  39   24   54 1
  40   25   26 ar
  41   25   55 1
  42   26   27 ar
  43   26   56 1
  44   27   57 1
  45   28   29 ar
  46   28   58 1
  47   29   30 ar
  48   29   59 1
  49   30   31 ar
  50   30   60 1
  51   31   32 ar
  52   31   61 1
  53   32   62 1
  54   33   34 ar
  55   33   63 1
  56   34   35 ar
  57   34   64 1
  58   35   36 ar
  59   35   65 1
  60   36   37 ar
  61   36   66 1
  62   37   67 1
  63   38   39 2
  64   38   40 1
  65   40   41 1
  66   41   42 1
  67   41   68 1
  68   41   69 1
  69   42   43 ar
  70   42   47 ar
  71   43   44 ar
  72   43   70 1
  73   44   45 ar
  74   44   71 1
  75   45   46 ar
  76   45   72 1
  77   46   47 ar
  78   46   73 1
  79   47   74 1

#	End of record

