#	Name: ASD03240783
#	Creating user name:	WinNT
#	Creation time:	15. 06. 2019 20:35

#	Modifying user name:	WinNT
#	Modification time:	15. 06. 2019 20:35

#	Program:	/corina/corina34_cracker 3.40 0067  02.08.2006

@<TRIPOS>MOLECULE
ASD03240783
  83   89    0    0    0
SMALL
NO_CHARGES


@<TRIPOS>ATOM
   1 N1            -0.0178     1.4642     0.0101 N.3     
   2 C2             0.0021    -0.0041     0.0020 C.3     
   3 C3             0.7039    -0.5130     1.2631 C.3     
   4 C4             2.1331     0.0352     1.3025 C.3     
   5 C5             2.0858     1.5651     1.2611 C.3     
   6 C6             1.3439     2.0138     0.0000 C.3     
   7 C7             2.8099    -0.4136     2.5720 C.2     
   8 O8             2.2093    -1.1040     3.3679 O.2     
   9 N9             4.0825    -0.0476     2.8228 N.am    
  10 C10           -0.8045     1.9863    -1.1153 C.3     
  11 C11           -1.0092     3.4690    -0.9402 C.ar    
  12 C12           -0.0910     4.3584    -1.4693 C.ar    
  13 C13           -0.2730     5.7171    -1.3127 C.ar    
  14 C14           -1.3857     6.1934    -0.6192 C.ar    
  15 C15           -2.3079     5.2916    -0.0881 C.ar    
  16 C16           -2.1175     3.9353    -0.2560 C.ar    
  17 C17            0.2757    11.9092     0.1996 C.2     
  18 N18           -0.9399    12.4844     0.2013 N.2     
  19 C19           -2.0370    11.7884     0.0495 C.2     
  20 C20           -1.9409    10.3410    -0.1283 C.ar    
  21 C21           -0.6623     9.7434    -0.1287 C.ar    
  22 N22            0.4396    10.5599     0.0390 N.pl3   
  23 C23           -3.0775     9.5434    -0.2957 C.ar    
  24 C24           -2.8941     8.1738    -0.4578 C.ar    
  25 C25           -1.5868     7.6504    -0.4471 C.ar    
  26 N26           -0.5336     8.4377    -0.2864 N.ar    
  27 N27            1.8119    10.2859     0.0849 N.2     
  28 C28            2.4617    11.4107     0.2650 C.2     
  29 C29            1.5451    12.4513     0.3479 C.2     
  30 C30           -4.0604     7.2766    -0.6389 C.ar    
  31 C31           -5.1405     7.3471     0.2395 C.ar    
  32 C32           -6.2236     6.5098     0.0657 C.ar    
  33 C33           -6.2387     5.6014    -0.9775 C.ar    
  34 C34           -5.1695     5.5267    -1.8521 C.ar    
  35 C35           -4.0837     6.3632    -1.6918 C.ar    
  36 C36            3.9584    11.5507     0.3705 C.3     
  37 C37            4.8079     0.7865     1.8614 C.3     
  38 C38            4.7405    -0.4839     4.0569 C.3     
  39 C39            5.9788    -1.3125     3.7092 C.3     
  40 C40            6.6659    -1.7681     4.9981 C.3     
  41 C41            7.0845    -0.5430     5.8135 C.3     
  42 C42            5.8461     0.2855     6.1612 C.3     
  43 C43            5.1590     0.7412     4.8723 C.3     
  44 H44           -1.0204    -0.3810    -0.0218 H       
  45 H45            0.5390    -0.3552    -0.8792 H       
  46 H46            0.1597    -0.1738     2.1445 H       
  47 H47            0.7324    -1.6025     1.2493 H       
  48 H48            2.6892    -0.3354     0.4414 H       
  49 H49            1.5633     1.9370     2.1425 H       
  50 H50            3.1015     1.9603     1.2458 H       
  51 H51            1.8745     1.6533    -0.8812 H       
  52 H52            1.2960     3.1025    -0.0252 H       
  53 H53           -0.2719     1.8007    -2.0480 H       
  54 H54           -1.7729     1.4868    -1.1444 H       
  55 H55            0.7703     3.9884    -2.0056 H       
  56 H56            0.4446     6.4104    -1.7258 H       
  57 H57           -3.1712     5.6543     0.4501 H       
  58 H58           -2.8330     3.2363     0.1512 H       
  59 H59           -3.0004    12.2766     0.0553 H       
  60 H60           -4.0666     9.9770    -0.2984 H       
  61 H61            1.7784    13.4950     0.4987 H       
  62 H62           -5.1296     8.0554     1.0547 H       
  63 H63           -7.0610     6.5635     0.7456 H       
  64 H64           -7.0883     4.9479    -1.1095 H       
  65 H65           -5.1865     4.8153    -2.6645 H       
  66 H66           -3.2514     6.3071    -2.3778 H       
  67 H67            4.3790    11.7134    -0.6218 H       
  68 H68            4.1997    12.3991     1.0109 H       
  69 H69            4.3792    10.6410     0.7988 H       
  70 H70            4.6506     1.8380     2.1013 H       
  71 H71            5.8724     0.5575     1.9122 H       
  72 H72            4.4405     0.5845     0.8553 H       
  73 H73            4.0496    -1.0910     4.6419 H       
  74 H74            5.6806    -2.1852     3.1283 H       
  75 H75            6.6697    -0.7054     3.1242 H       
  76 H76            5.9751    -2.3752     5.5831 H       
  77 H77            7.5481    -2.3584     4.7503 H       
  78 H78            7.5740    -0.8676     6.7317 H       
  79 H79            7.7753     0.0641     5.2284 H       
  80 H80            5.1553    -0.3216     6.7462 H       
  81 H81            6.1443     1.1583     6.7421 H       
  82 H82            5.8499     1.3483     4.2873 H       
  83 H83            4.2768     1.3315     5.1200 H       
@<TRIPOS>BOND
   1    1    2 1
   2    1    6 1
   3    1   10 1
   4    2    3 1
   5    2   44 1
   6    2   45 1
   7    3    4 1
   8    3   46 1
   9    3   47 1
  10    4    5 1
  11    4    7 1
  12    4   48 1
  13    5    6 1
  14    5   49 1
  15    5   50 1
  16    6   51 1
  17    6   52 1
  18    7    8 2
  19    7    9 am
  20    9   37 1
  21    9   38 1
  22   10   11 1
  23   10   53 1
  24   10   54 1
  25   11   12 ar
  26   11   16 ar
  27   12   13 ar
  28   12   55 1
  29   13   14 ar
  30   13   56 1
  31   14   15 ar
  32   14   25 1
  33   15   16 ar
  34   15   57 1
  35   16   58 1
  36   17   18 1
  37   17   22 1
  38   17   29 2
  39   18   19 2
  40   19   20 1
  41   19   59 1
  42   20   21 ar
  43   20   23 ar
  44   21   22 1
  45   21   26 ar
  46   22   27 1
  47   23   24 ar
  48   23   60 1
  49   24   25 ar
  50   24   30 1
  51   25   26 ar
  52   27   28 2
  53   28   29 1
  54   28   36 1
  55   29   61 1
  56   30   31 ar
  57   30   35 ar
  58   31   32 ar
  59   31   62 1
  60   32   33 ar
  61   32   63 1
  62   33   34 ar
  63   33   64 1
  64   34   35 ar
  65   34   65 1
  66   35   66 1
  67   36   67 1
  68   36   68 1
  69   36   69 1
  70   37   70 1
  71   37   71 1
  72   37   72 1
  73   38   39 1
  74   38   43 1
  75   38   73 1
  76   39   40 1
  77   39   74 1
  78   39   75 1
  79   40   41 1
  80   40   76 1
  81   40   77 1
  82   41   42 1
  83   41   78 1
  84   41   79 1
  85   42   43 1
  86   42   80 1
  87   42   81 1
  88   43   82 1
  89   43   83 1

#	End of record

