#	Name: ASD05430015
#	Creating user name:	WinNT
#	Creation time:	15. 06. 2019 20:59

#	Modifying user name:	WinNT
#	Modification time:	15. 06. 2019 20:59

#	Program:	/corina/corina34_cracker 3.40 0067  02.08.2006

@<TRIPOS>MOLECULE
ASD05430015
  65   70    0    0    0
SMALL
NO_CHARGES


@<TRIPOS>ATOM
   1 C1            -0.7103     0.8284    -0.9974 C.ar    
   2 C2            -0.8643    -0.5428    -1.1573 C.ar    
   3 C3            -2.1522    -1.0894    -1.0782 C.ar    
   4 C4            -3.2183    -0.2465    -0.8448 C.ar    
   5 C5            -2.9841     1.1237    -0.6943 C.ar    
   6 N6            -1.7486     1.6071    -0.7705 N.ar    
   7 C7            -2.4832     3.8911     0.0338 C.3     
   8 C8            -3.8821     3.3369    -0.1906 C.2     
   9 C9            -4.1123     2.0356    -0.4447 C.2     
  10 C10           -2.5274     4.8630     1.2101 C.3     
  11 C11           -3.4379     6.0548     0.9263 C.3     
  12 N12           -4.7499     5.5750     0.5009 N.pl3   
  13 C13           -4.9716     4.3364    -0.1080 C.2     
  14 C14           -6.0610     6.2147     0.6178 C.3     
  15 O15           -6.8730     5.4772    -0.3200 O.3     
  16 N16           -6.1781     4.2600    -0.5567 N.2     
  17 C17           -6.6005     6.0700     2.0174 C.ar    
  18 C18           -5.7330     6.0439     3.0934 C.ar    
  19 C19           -7.9634     5.9690     2.2258 C.ar    
  20 C20           -8.4583     5.8363     3.5097 C.ar    
  21 C21           -7.5904     5.8040     4.5851 C.ar    
  22 C22           -6.2280     5.9111     4.3772 C.ar    
  23 C23           -5.9798     7.6895     0.2186 C.3     
  24 C24            0.7610     1.1598    -1.1257 C.3     
  25 C25            1.4414    -0.1950    -1.3806 C.3     
  26 N26            0.3543    -1.1775    -1.3815 N.am    
  27 S27            0.5472    -2.8057    -1.6143 S.o2    
  28 O28           -0.7015    -3.2350    -2.1392 O.2     
  29 O29            1.7393    -2.9113    -2.3805 O.2     
  30 C30            0.8008    -3.4744     0.0528 C.3     
  31 C31           -2.9932     4.1320     2.4832 C.3     
  32 C32           -1.7909     4.2609     3.4465 C.3     
  33 O33           -1.0724     5.4268     2.9869 O.3     
  34 C34           -1.1057     5.3526     1.5438 C.3     
  35 C35           -8.1300     5.6598     5.9848 C.3     
  36 F36           -8.2166     4.3028     6.3137 F       
  37 F37           -7.2729     6.3037     6.8837 F       
  38 F38           -9.4014     6.2390     6.0564 F       
  39 H39           -2.3071    -2.1515    -1.1983 H       
  40 H40           -4.2220    -0.6398    -0.7793 H       
  41 H41           -1.7979     3.0741     0.2598 H       
  42 H42           -2.1492     4.4152    -0.8616 H       
  43 H43           -5.1248     1.6603    -0.4654 H       
  44 H44           -3.5457     6.6532     1.8310 H       
  45 H45           -3.0009     6.6659     0.1366 H       
  46 H46           -4.6685     6.1269     2.9309 H       
  47 H47           -8.6414     5.9943     1.3856 H       
  48 H48           -9.5231     5.7581     3.6725 H       
  49 H49           -5.5499     5.8859     5.2174 H       
  50 H50           -5.6399     7.7682    -0.8141 H       
  51 H51           -6.9650     8.1462     0.3127 H       
  52 H52           -5.2765     8.2048     0.8728 H       
  53 H53            0.9273     1.8330    -1.9666 H       
  54 H54            1.1327     1.6042    -0.2024 H       
  55 H55            1.9461    -0.1887    -2.3468 H       
  56 H56            2.1513    -0.4173    -0.5839 H       
  57 H57           -0.0698    -3.2519     0.6698 H       
  58 H58            0.9382    -4.5541    -0.0058 H       
  59 H59            1.6863    -3.0189     0.4962 H       
  60 H60           -3.8736     4.6185     2.9031 H       
  61 H61           -3.2004     3.0837     2.2682 H       
  62 H62           -2.1382     4.4079     4.4692 H       
  63 H63           -1.1577     3.3758     3.3835 H       
  64 H64           -0.3641     4.6398     1.1830 H       
  65 H65           -0.9310     6.3366     1.1087 H       
@<TRIPOS>BOND
   1    1    2 ar
   2    1   24 1
   3    1    6 ar
   4    2    3 ar
   5    2   26 1
   6    3    4 ar
   7    3   39 1
   8    4    5 ar
   9    4   40 1
  10    5    6 ar
  11    5    9 1
  12    7    8 1
  13    7   10 1
  14    7   41 1
  15    7   42 1
  16    8    9 2
  17    8   13 1
  18    9   43 1
  19   10   11 1
  20   10   31 1
  21   10   34 1
  22   11   12 1
  23   11   44 1
  24   11   45 1
  25   12   13 1
  26   12   14 1
  27   13   16 2
  28   14   15 1
  29   14   17 1
  30   14   23 1
  31   15   16 1
  32   17   18 ar
  33   17   19 ar
  34   18   22 ar
  35   18   46 1
  36   19   20 ar
  37   19   47 1
  38   20   21 ar
  39   20   48 1
  40   21   22 ar
  41   21   35 1
  42   22   49 1
  43   23   50 1
  44   23   51 1
  45   23   52 1
  46   24   25 1
  47   24   53 1
  48   24   54 1
  49   25   26 1
  50   25   55 1
  51   25   56 1
  52   26   27 am
  53   27   28 2
  54   27   29 2
  55   27   30 1
  56   30   57 1
  57   30   58 1
  58   30   59 1
  59   31   32 1
  60   31   60 1
  61   31   61 1
  62   32   33 1
  63   32   62 1
  64   32   63 1
  65   33   34 1
  66   34   64 1
  67   34   65 1
  68   35   36 1
  69   35   37 1
  70   35   38 1

#	End of record

