#	Name: ASD00840326
#	Creating user name:	WinNT
#	Creation time:	15. 06. 2019 18:38

#	Modifying user name:	WinNT
#	Modification time:	15. 06. 2019 18:38

#	Program:	/corina/corina34_cracker 3.40 0067  02.08.2006

@<TRIPOS>MOLECULE
ASD00840326
  96  101    0    0    0
SMALL
NO_CHARGES


@<TRIPOS>ATOM
   1 F1            -0.1209    -3.1644     4.7110 F       
   2 N2            -0.0140     1.3153     0.0263 N.ar    
   3 C3             0.0029    -0.0070     0.0116 C.ar    
   4 C4             1.2072    -0.6993    -0.0062 C.ar    
   5 C5             2.3934     0.0133    -0.0085 C.ar    
   6 C6             2.3327     1.4002     0.0072 C.ar    
   7 C7             1.1004     2.0221     0.0245 C.ar    
   8 C8             1.2216    -2.2061    -0.0223 C.3     
   9 C9             0.4762    -2.7307    -1.2311 C.2     
  10 N10            2.5989    -2.7051    -0.0123 N.am    
  11 C11            3.4466    -2.3635    -1.0029 C.2     
  12 N12            4.7401    -2.7371    -0.9417 N.am    
  13 O13            3.0444    -1.7183    -1.9518 O.2     
  14 C14            5.2677    -3.4158     0.2497 C.3     
  15 C15            6.4985    -2.6518     0.7480 C.3     
  16 C16            7.5064    -2.5150    -0.3954 C.3     
  17 C17            6.8758    -1.7203    -1.5412 C.3     
  18 C18            5.6479    -2.4788    -2.0677 C.3     
  19 C19            8.7519    -1.7826     0.1079 C.3     
  20 C20            9.3850    -2.5774     1.2533 C.3     
  21 C21           10.6633    -1.8719     1.7117 C.3     
  22 N22           11.5998    -1.7722     0.5850 N.3     
  23 C23           11.0320    -0.9732    -0.5084 C.3     
  24 C24            9.7647    -1.6518    -1.0330 C.3     
  25 C25           12.8916    -1.2251     1.0210 C.3     
  26 O26            0.7576    -2.5301    -2.3937 O.2     
  27 N27           -0.5550    -3.4608    -0.7741 N.am    
  28 C28            0.4478    -2.7556     1.1540 C.ar    
  29 C29           -0.6003    -3.4957     0.6212 C.ar    
  30 C30            0.6113    -2.6428     2.5163 C.ar    
  31 C31           -0.2771    -3.2727     3.3734 C.ar    
  32 C32           -1.3264    -4.0136     2.8537 C.ar    
  33 C33           -1.4903    -4.1267     1.4874 C.ar    
  34 Cl34          -2.4404    -4.8034     3.9256 Cl      
  35 C35           -1.0201    -5.8469    -2.0643 C.ar    
  36 C36            0.1578    -6.0089    -2.7787 C.ar    
  37 C37           -1.6982    -6.9543    -1.5921 C.ar    
  38 C38           -1.2035    -8.2229    -1.8309 C.ar    
  39 C39           -0.0294    -8.3871    -2.5429 C.ar    
  40 C40            0.6520    -7.2833    -3.0173 C.ar    
  41 H41            0.3551    -9.3792    -2.7281 H       
  42 O42            0.8264    -4.9213    -3.2445 O.3     
  43 C43            2.0323    -5.1636    -3.9720 C.3     
  44 C44            2.6389    -3.8298    -4.4123 C.3     
  45 C45           13.9130    -1.3668    -0.1093 C.3     
  46 C46           15.2584    -0.7970     0.3448 C.3     
  47 O47           -1.1671    -0.6940     0.0146 O.3     
  48 C48           -3.5776    -0.8655     0.0342 C.3     
  49 C49           -2.3711     0.0754     0.0337 C.3     
  50 S50           -1.6471    -4.2300    -1.7528 S.o2    
  51 O51           -2.8281    -4.3994    -0.9808 O.2     
  52 O52           -1.6237    -3.5440    -2.9970 O.2     
  53 H53            3.3447    -0.4978    -0.0219 H       
  54 H54            3.2399     1.9862     0.0062 H       
  55 H55            1.0477     3.1007     0.0364 H       
  56 H56            2.9009    -3.2813     0.7072 H       
  57 H57            4.5061    -3.4301     1.0294 H       
  58 H58            5.5504    -4.4369    -0.0065 H       
  59 H59            6.1982    -1.6610     1.0889 H       
  60 H60            6.9561    -3.1977     1.5730 H       
  61 H61            7.7875    -3.5058    -0.7523 H       
  62 H62            6.5720    -0.7382    -1.1788 H       
  63 H63            7.6020    -1.6031    -2.3456 H       
  64 H64            5.9643    -3.4221    -2.5128 H       
  65 H65            5.1371    -1.8726    -2.8158 H       
  66 H66            8.4724    -0.7909     0.4636 H       
  67 H67            8.6839    -2.6373     2.0857 H       
  68 H68            9.6278    -3.5824     0.9082 H       
  69 H69           10.4179    -0.8720     2.0695 H       
  70 H70           11.1243    -2.4429     2.5177 H       
  71 H71           10.7849     0.0225    -0.1401 H       
  72 H72           11.7607    -0.8915    -1.3149 H       
  73 H73           10.0134    -2.6423    -1.4141 H       
  74 H74            9.3348    -1.0505    -1.8341 H       
  75 H75           12.7732    -0.1715     1.2738 H       
  76 H76           13.2407    -1.7719     1.8969 H       
  77 H77            1.4309    -2.0645     2.9164 H       
  78 H78           -2.3104    -4.7058     1.0893 H       
  79 H79           -2.6153    -6.8287    -1.0358 H       
  80 H80           -1.7346    -9.0872    -1.4604 H       
  81 H81            1.5685    -7.4121    -3.5739 H       
  82 H82            2.7411    -5.6923    -3.3347 H       
  83 H83            1.8111    -5.7698    -4.8504 H       
  84 H84            1.9301    -3.3010    -5.0496 H       
  85 H85            2.8601    -3.2236    -3.5339 H       
  86 H86            3.5587    -4.0146    -4.9672 H       
  87 H87           14.0314    -2.4205    -0.3621 H       
  88 H88           13.5639    -0.8200    -0.9852 H       
  89 H89           15.1401     0.2566     0.5976 H       
  90 H90           15.6076    -1.3438     1.2207 H       
  91 H91           15.9861    -0.8980    -0.4604 H       
  92 H92           -4.4960    -0.2786     0.0488 H       
  93 H93           -3.5561    -1.4843    -0.8629 H       
  94 H94           -3.5402    -1.5038     0.9169 H       
  95 H95           -2.3926     0.6942     0.9307 H       
  96 H96           -2.4085     0.7137    -0.8490 H       
@<TRIPOS>BOND
   1    1   31 1
   2    2    3 ar
   3    2    7 ar
   4    3    4 ar
   5    3   47 1
   6    4    5 ar
   7    4    8 1
   8    5    6 ar
   9    5   53 1
  10    6    7 ar
  11    6   54 1
  12    7   55 1
  13    8    9 1
  14    8   10 1
  15    8   28 1
  16    9   26 2
  17    9   27 am
  18   10   11 am
  19   10   56 1
  20   11   12 am
  21   11   13 2
  22   12   14 1
  23   12   18 1
  24   14   15 1
  25   14   57 1
  26   14   58 1
  27   15   16 1
  28   15   59 1
  29   15   60 1
  30   16   17 1
  31   16   19 1
  32   16   61 1
  33   17   18 1
  34   17   62 1
  35   17   63 1
  36   18   64 1
  37   18   65 1
  38   19   20 1
  39   19   24 1
  40   19   66 1
  41   20   21 1
  42   20   67 1
  43   20   68 1
  44   21   22 1
  45   21   69 1
  46   21   70 1
  47   22   23 1
  48   22   25 1
  49   23   24 1
  50   23   71 1
  51   23   72 1
  52   24   73 1
  53   24   74 1
  54   25   45 1
  55   25   75 1
  56   25   76 1
  57   27   50 am
  58   27   29 1
  59   28   29 ar
  60   28   30 ar
  61   29   33 ar
  62   30   31 ar
  63   30   77 1
  64   31   32 ar
  65   32   33 ar
  66   32   34 1
  67   33   78 1
  68   35   36 ar
  69   35   37 ar
  70   35   50 1
  71   36   42 1
  72   36   40 ar
  73   37   38 ar
  74   37   79 1
  75   38   39 ar
  76   38   80 1
  77   39   40 ar
  78   39   41 1
  79   40   81 1
  80   42   43 1
  81   43   44 1
  82   43   82 1
  83   43   83 1
  84   44   84 1
  85   44   85 1
  86   44   86 1
  87   45   46 1
  88   45   87 1
  89   45   88 1
  90   46   89 1
  91   46   90 1
  92   46   91 1
  93   47   49 1
  94   48   49 1
  95   48   92 1
  96   48   93 1
  97   48   94 1
  98   49   95 1
  99   49   96 1
 100   50   51 2
 101   50   52 2

#	End of record

