#	Name: ASD03320041
#	Creating user name:	WinNT
#	Creation time:	15. 06. 2019 20:36

#	Modifying user name:	WinNT
#	Modification time:	15. 06. 2019 20:36

#	Program:	/corina/corina34_cracker 3.40 0067  02.08.2006

@<TRIPOS>MOLECULE
ASD03320041
  53   56    0    0    0
SMALL
NO_CHARGES


@<TRIPOS>ATOM
   1 C1            -0.0181     1.4707     0.0148 C.2     
   2 C2             0.0015    -0.0045     0.0117 C.ar    
   3 C3             1.2193    -0.6863     0.0012 C.ar    
   4 C4             1.2325    -2.0757    -0.0011 C.ar    
   5 C5             0.0205    -2.7848     0.0071 C.ar    
   6 C6            -1.1872    -2.0968     0.0175 C.ar    
   7 C7            -1.2003    -0.7199     0.0252 C.ar    
   8 O8             1.0269     2.0926     0.0081 O.2     
   9 N9            -1.1941     2.1290     0.0193 N.am    
  10 C10           -1.2149     3.5246     0.1327 C.ar    
  11 C11           -2.1832     4.2616    -0.5363 C.ar    
  12 C12           -2.2033     5.6377    -0.4236 C.ar    
  13 C13           -1.2562     6.2840     0.3573 C.ar    
  14 C14           -0.2883     5.5485     1.0255 C.ar    
  15 C15           -0.2707     4.1718     0.9187 C.ar    
  16 O16           -1.2764     7.6391     0.4674 O.3     
  17 C17           -0.2715     8.2383     1.2878 C.3     
  18 F18           -0.3864     7.7532     2.5950 F       
  19 F19            0.9937     7.9211     0.7822 F       
  20 Cl20          -0.4862    10.0285     1.2901 Cl      
  21 N21            2.8122    -3.9368     0.6885 N.pl3   
  22 N22            4.1337    -4.2929     0.3903 N.2     
  23 C23            4.6198    -3.4179    -0.4530 C.2     
  24 C24            3.6341    -2.4698    -0.7281 C.2     
  25 C25            2.5190    -2.8054    -0.0127 C.2     
  26 N26            0.0285    -4.1735     0.0044 N.3     
  27 C27           -0.6473    -4.7081     1.2008 C.3     
  28 C28           -1.7818    -5.6322     0.7105 C.3     
  29 C29           -1.3259    -6.0156    -0.7220 C.3     
  30 C30           -0.6504    -4.7048    -1.1967 C.3     
  31 C31           -1.8874    -6.8757     1.5956 C.3     
  32 O32           -3.0160    -7.6535     1.1916 O.3     
  33 H33            2.1484    -0.1356    -0.0054 H       
  34 H34           -2.1184    -2.6439     0.0235 H       
  35 H35           -2.1417    -0.1906     0.0378 H       
  36 H36           -2.0262     1.6361    -0.0560 H       
  37 H37           -2.9202     3.7587    -1.1448 H       
  38 H38           -2.9564     6.2110    -0.9438 H       
  39 H39            0.4492     6.0524     1.6326 H       
  40 H40            0.4800     3.5990     1.4428 H       
  41 H41            2.2121    -4.4124     1.2839 H       
  42 H42            5.6174    -3.4280    -0.8666 H       
  43 H43            3.7344    -1.6213    -1.3886 H       
  44 H44            0.0606    -5.2776     1.8031 H       
  45 H45           -1.0633    -3.8898     1.7884 H       
  46 H46           -2.7305    -5.0961     0.6824 H       
  47 H47           -0.6098    -6.8370    -0.6971 H       
  48 H48           -2.1810    -6.2640    -1.3506 H       
  49 H49           -1.4007    -3.9985    -1.5522 H       
  50 H50            0.0762    -4.9150    -1.9816 H       
  51 H51           -0.9804    -7.4717     1.4945 H       
  52 H52           -2.0087    -6.5722     2.6355 H       
  53 H53           -3.1446    -8.4591     1.7108 H       
@<TRIPOS>BOND
   1    1    2 1
   2    1    8 2
   3    1    9 am
   4    2    3 ar
   5    2    7 ar
   6    3    4 ar
   7    3   33 1
   8    4    5 ar
   9    4   25 1
  10    5    6 ar
  11    5   26 1
  12    6    7 ar
  13    6   34 1
  14    7   35 1
  15    9   10 1
  16    9   36 1
  17   10   11 ar
  18   10   15 ar
  19   11   12 ar
  20   11   37 1
  21   12   13 ar
  22   12   38 1
  23   13   14 ar
  24   13   16 1
  25   14   15 ar
  26   14   39 1
  27   15   40 1
  28   16   17 1
  29   17   18 1
  30   17   19 1
  31   17   20 1
  32   21   22 1
  33   21   25 1
  34   21   41 1
  35   22   23 2
  36   23   24 1
  37   23   42 1
  38   24   25 2
  39   24   43 1
  40   26   27 1
  41   26   30 1
  42   27   28 1
  43   27   44 1
  44   27   45 1
  45   28   29 1
  46   28   31 1
  47   28   46 1
  48   29   30 1
  49   29   47 1
  50   29   48 1
  51   30   49 1
  52   30   50 1
  53   31   32 1
  54   31   51 1
  55   31   52 1
  56   32   53 1

#	End of record

