#	Name: ASD03090426
#	Creating user name:	WinNT
#	Creation time:	15. 06. 2019 20:28

#	Modifying user name:	WinNT
#	Modification time:	15. 06. 2019 20:28

#	Program:	/corina/corina34_cracker 3.40 0067  02.08.2006

@<TRIPOS>MOLECULE
ASD03090426
  36   38    0    0    0
SMALL
NO_CHARGES


@<TRIPOS>ATOM
   1 C1            -0.0168     1.3905     0.0097 C.ar    
   2 C2             0.0021    -0.0041     0.0020 C.ar    
   3 C3             1.2193    -0.6609    -0.0132 C.ar    
   4 C4             2.3843     0.1015    -0.0203 C.ar    
   5 C5             2.2880     1.4904    -0.0119 C.ar    
   6 N6             1.1158     2.0836     0.0026 N.ar    
   7 C7            -1.3121     2.1049     0.0197 C.2     
   8 O8            -2.3527     1.4767     0.0212 O.2     
   9 N9            -1.3385     3.4524     0.0271 N.am    
  10 O10            3.5997    -0.5023    -0.0347 O.3     
  11 C11            4.7471     0.3494    -0.0412 C.3     
  12 F12            4.7393     1.1511     1.1053 F       
  13 F13            5.9076    -0.4318    -0.0560 F       
  14 F14            4.7179     1.1626    -1.1791 F       
  15 C15           -2.6213     4.1599     0.0370 C.3     
  16 N16           -1.7054     9.7121    -0.2104 N.pl3   
  17 C17           -1.6841     9.8858    -1.5674 C.2     
  18 C18           -1.8812     8.7090    -2.1825 C.2     
  19 C19           -2.0419     7.6992    -1.1335 C.ar    
  20 C20           -2.2697     6.3216    -1.1392 C.ar    
  21 C21           -2.3749     5.6466     0.0440 C.ar    
  22 C22           -2.2571     6.3194     1.2526 C.ar    
  23 C23           -2.0327     7.6782     1.2813 C.ar    
  24 C24           -1.9222     8.3856     0.0884 C.ar    
  25 H25           -0.9216    -0.5638     0.0082 H       
  26 H26            1.2649    -1.7399    -0.0191 H       
  27 H27            3.1879     2.0875    -0.0169 H       
  28 H28           -0.5081     3.9537     0.0259 H       
  29 H29           -3.1918     3.8903    -0.8517 H       
  30 H30           -3.1834     3.8806     0.9282 H       
  31 H31           -1.5819    10.4177     0.4437 H       
  32 H32           -1.5316    10.8298    -2.0693 H       
  33 H33           -1.9150     8.5390    -3.2485 H       
  34 H34           -2.3633     5.7916    -2.0756 H       
  35 H35           -2.3426     5.7721     2.1797 H       
  36 H36           -1.9429     8.1927     2.2266 H       
@<TRIPOS>BOND
   1    1    2 ar
   2    1    6 ar
   3    1    7 1
   4    2    3 ar
   5    2   25 1
   6    3    4 ar
   7    3   26 1
   8    4    5 ar
   9    4   10 1
  10    5    6 ar
  11    5   27 1
  12    7    8 2
  13    7    9 am
  14    9   15 1
  15    9   28 1
  16   10   11 1
  17   11   12 1
  18   11   13 1
  19   11   14 1
  20   15   21 1
  21   15   29 1
  22   15   30 1
  23   16   17 1
  24   16   24 1
  25   16   31 1
  26   17   18 2
  27   17   32 1
  28   18   19 1
  29   18   33 1
  30   19   20 ar
  31   19   24 ar
  32   20   21 ar
  33   20   34 1
  34   21   22 ar
  35   22   23 ar
  36   22   35 1
  37   23   24 ar
  38   23   36 1

#	End of record

