#	Name: ASD00310075
#	Creating user name:	WinNT
#	Creation time:	15. 06. 2019 18:33

#	Modifying user name:	WinNT
#	Modification time:	15. 06. 2019 18:33

#	Program:	/corina/corina34_cracker 3.40 0067  02.08.2006

@<TRIPOS>MOLECULE
ASD00310075
  42   43    0    0    0
SMALL
NO_CHARGES


@<TRIPOS>ATOM
   1 C1            -0.0187     1.5258     0.0104 C.3     
   2 C2             0.0021    -0.0041     0.0020 C.3     
   3 C3             0.7182    -0.4975    -1.2568 C.3     
   4 O4             1.3220     2.0204     0.0003 O.3     
   5 C5             0.7421    -0.5109     1.2415 C.3     
   6 C6            -1.4117    -0.5257     0.0127 C.ar    
   7 C7            -1.6432    -1.8899     0.0076 C.ar    
   8 C8            -2.9356    -2.3730     0.0173 C.ar    
   9 C9            -4.0090    -1.4840     0.0328 C.ar    
  10 C10           -3.7700    -0.1107     0.0384 C.ar    
  11 C11           -2.4735     0.3613     0.0334 C.ar    
  12 O12           -6.5944    -1.1343     0.0593 O.3     
  13 B13           -5.4819    -2.0274     0.0435 Du      
  14 O14           -5.7479    -3.4290     0.0370 O.3     
  15 C15           -6.7113    -3.8032    -0.9556 C.3     
  16 C16           -7.9614    -2.9339    -0.7904 C.3     
  17 C17           -7.5763    -1.4584    -0.9328 C.3     
  18 C18           -8.9842    -3.3007    -1.8675 C.3     
  19 C19           -8.5692    -3.1715     0.5935 C.3     
  20 H20           -0.5459     1.8868    -0.8726 H       
  21 H21           -0.5289     1.8773     0.9072 H       
  22 H22            1.7408    -0.1202    -1.2645 H       
  23 H23            0.7330    -1.5874    -1.2628 H       
  24 H24            0.1910    -0.1364    -2.1398 H       
  25 H25            1.3852     2.9853     0.0049 H       
  26 H26            0.2319    -0.1594     2.1383 H       
  27 H27            0.7568    -1.6008     1.2356 H       
  28 H28            1.7647    -0.1336     1.2338 H       
  29 H29           -0.8107    -2.5778    -0.0044 H       
  30 H30           -3.1151    -3.4379     0.0126 H       
  31 H31           -4.5981     0.5825     0.0500 H       
  32 H32           -2.2872     1.4251     0.0415 H       
  33 H33           -6.2896    -3.6504    -1.9490 H       
  34 H34           -6.9774    -4.8525    -0.8283 H       
  35 H35           -8.4592    -0.8355    -0.7892 H       
  36 H36           -7.1626    -1.2837    -1.9260 H       
  37 H37           -9.2566    -4.3513    -1.7671 H       
  38 H38           -9.8737    -2.6819    -1.7497 H       
  39 H39           -8.5510    -3.1303    -2.8531 H       
  40 H40           -7.8404    -2.9091     1.3603 H       
  41 H41           -9.4588    -2.5527     0.7107 H       
  42 H42           -8.8414    -4.2221     0.6952 H       
@<TRIPOS>BOND
   1    1    2 1
   2    1    4 1
   3    1   20 1
   4    1   21 1
   5    2    3 1
   6    2    5 1
   7    2    6 1
   8    3   22 1
   9    3   23 1
  10    3   24 1
  11    4   25 1
  12    5   26 1
  13    5   27 1
  14    5   28 1
  15    6    7 ar
  16    6   11 ar
  17    7    8 ar
  18    7   29 1
  19    8    9 ar
  20    8   30 1
  21    9   10 ar
  22    9   13 1
  23   10   11 ar
  24   10   31 1
  25   11   32 1
  26   12   13 1
  27   12   17 1
  28   13   14 1
  29   14   15 1
  30   15   16 1
  31   15   33 1
  32   15   34 1
  33   16   17 1
  34   16   18 1
  35   16   19 1
  36   17   35 1
  37   17   36 1
  38   18   37 1
  39   18   38 1
  40   18   39 1
  41   19   40 1
  42   19   41 1
  43   19   42 1

#	End of record

