#	Name: ASD00840142
#	Creating user name:	WinNT
#	Creation time:	15. 06. 2019 18:37

#	Modifying user name:	WinNT
#	Modification time:	15. 06. 2019 18:37

#	Program:	/corina/corina34_cracker 3.40 0067  02.08.2006

@<TRIPOS>MOLECULE
ASD00840142
  22   23    0    0    0
SMALL
NO_CHARGES


@<TRIPOS>ATOM
   1 C1            -0.0167     1.3785     0.0096 C.ar    
   2 C2             0.0021    -0.0041     0.0020 C.ar    
   3 N3             1.1416    -0.6686    -0.0120 N.ar    
   4 C4             2.3056    -0.0522    -0.0198 C.ar    
   5 C5             2.3712     1.3395    -0.0134 C.ar    
   6 C6             1.1817     2.0721     0.0019 C.ar    
   7 C7             3.6838     2.0327    -0.0217 C.2     
   8 N8             3.8936     3.3220     0.0746 N.2     
   9 O9             5.0740     3.5813     0.0377 O.3     
  10 C10            5.8233     2.4771    -0.0907 C.2     
  11 C11            4.9682     1.4302    -0.1296 C.2     
  12 C12            7.3269     2.4143    -0.1703 C.3     
  13 N13            7.7473     2.5085    -1.5747 N.3     
  14 H14           -0.9559     1.9116     0.0170 H       
  15 H15           -0.9307    -0.5484     0.0080 H       
  16 H16            3.2175    -0.6308    -0.0309 H       
  17 H17            1.1964     3.1519     0.0069 H       
  18 H18            5.2050     0.3809    -0.2259 H       
  19 H19            7.7555     3.2427     0.3937 H       
  20 H20            7.6739     1.4704     0.2503 H       
  21 H21            7.3831     3.3449    -2.0058 H       
  22 H22            8.7523     2.4686    -1.6547 H       
@<TRIPOS>BOND
   1    1    2 ar
   2    1    6 ar
   3    1   14 1
   4    2    3 ar
   5    2   15 1
   6    3    4 ar
   7    4    5 ar
   8    4   16 1
   9    5    6 ar
  10    5    7 1
  11    6   17 1
  12    7    8 2
  13    7   11 1
  14    8    9 1
  15    9   10 1
  16   10   11 2
  17   10   12 1
  18   11   18 1
  19   12   13 1
  20   12   19 1
  21   12   20 1
  22   13   21 1
  23   13   22 1

#	End of record

