#	Name: ASD08070577
#	Creating user name:	WinNT
#	Creation time:	15. 06. 2019 21:15

#	Modifying user name:	WinNT
#	Modification time:	15. 06. 2019 21:15

#	Program:	/corina/corina34_cracker 3.40 0067  02.08.2006

@<TRIPOS>MOLECULE
ASD08070577
  39   40    0    0    0
SMALL
NO_CHARGES


@<TRIPOS>ATOM
   1 O1            -0.0161     1.3382     0.0094 O.3     
   2 C2             0.0021    -0.0041     0.0020 C.2     
   3 N3             1.2257    -0.4389    -0.0120 N.2     
   4 C4             2.0700     0.6290    -0.0143 C.ar    
   5 C5             1.2607     1.7778    -0.0004 C.ar    
   6 C6             3.4559     0.7611    -0.0269 C.ar    
   7 C7             4.0228     2.0327    -0.0255 C.ar    
   8 C8             3.2023     3.1671    -0.0111 C.ar    
   9 C9             1.8428     3.0385     0.0008 C.ar    
  10 C10            5.4920     2.1853    -0.0387 C.2     
  11 O11            6.2053     1.2009    -0.0508 O.2     
  12 N12            6.0418     3.4159    -0.0373 N.am    
  13 C13            7.4989     3.5672    -0.0504 C.3     
  14 C14            8.0054     3.5025    -1.4927 C.3     
  15 C15            7.7380     2.1091    -2.0652 C.3     
  16 C16            8.2445     2.0444    -3.5075 C.3     
  17 C17            7.8770     4.9169     0.5629 C.3     
  18 C18            7.4815     4.9343     2.0408 C.3     
  19 C19            7.8597     6.2840     2.6541 C.3     
  20 H20           -0.8760    -0.6329     0.0074 H       
  21 H21            4.0862    -0.1159    -0.0373 H       
  22 H22            3.6477     4.1510    -0.0093 H       
  23 H23            1.2186     3.9198     0.0115 H       
  24 H24            5.4727     4.2013    -0.0277 H       
  25 H25            7.9528     2.7642     0.5304 H       
  26 H26            7.4855     4.2483    -2.0941 H       
  27 H27            9.0765     3.7034    -1.5110 H       
  28 H28            8.2578     1.3633    -1.4638 H       
  29 H29            6.6668     1.9082    -2.0469 H       
  30 H30            7.7246     2.7902    -4.1089 H       
  31 H31            9.3156     2.2453    -3.5257 H       
  32 H32            8.0539     1.0517    -3.9153 H       
  33 H33            8.9526     5.0684     0.4728 H       
  34 H34            7.3524     5.7147     0.0370 H       
  35 H35            6.4059     4.7828     2.1309 H       
  36 H36            8.0061     4.1365     2.5666 H       
  37 H37            7.5779     6.2964     3.7070 H       
  38 H38            8.9353     6.4355     2.5640 H       
  39 H39            7.3351     7.0817     2.1282 H       
@<TRIPOS>BOND
   1    1    2 1
   2    1    5 1
   3    2    3 2
   4    2   20 1
   5    3    4 1
   6    4    5 ar
   7    4    6 ar
   8    5    9 ar
   9    6    7 ar
  10    6   21 1
  11    7    8 ar
  12    7   10 1
  13    8    9 ar
  14    8   22 1
  15    9   23 1
  16   10   11 2
  17   10   12 am
  18   12   13 1
  19   12   24 1
  20   13   14 1
  21   13   17 1
  22   13   25 1
  23   14   15 1
  24   14   26 1
  25   14   27 1
  26   15   16 1
  27   15   28 1
  28   15   29 1
  29   16   30 1
  30   16   31 1
  31   16   32 1
  32   17   18 1
  33   17   33 1
  34   17   34 1
  35   18   19 1
  36   18   35 1
  37   18   36 1
  38   19   37 1
  39   19   38 1
  40   19   39 1

#	End of record

