#	Name: ASD00170201
#	Creating user name:	WinNT
#	Creation time:	15. 06. 2019 18:31

#	Modifying user name:	WinNT
#	Modification time:	15. 06. 2019 18:31

#	Program:	/corina/corina34_cracker 3.40 0067  02.08.2006

@<TRIPOS>MOLECULE
ASD00170201
  42   45    0    0    0
SMALL
NO_CHARGES


@<TRIPOS>ATOM
   1 C1             0.0232     1.3121     0.0120 C.2     
   2 C2             0.0264    -0.0226     0.0072 C.2     
   3 C3            -1.3184    -0.5801     0.0219 C.2     
   4 C4            -2.3011     0.3741     0.0303 C.2     
   5 S5            -1.6219     1.9341     0.0285 S.3     
   6 C6             1.2598     2.1868     0.0101 C.3     
   7 C7             2.2409     1.7036    -1.0565 C.3     
   8 C8             3.1827     0.6713    -0.4427 C.3     
   9 C9             2.4429    -0.1370     0.6209 C.3     
  10 C10            1.2778    -0.8834    -0.0218 C.3     
  11 N11           -3.6553     0.1069     0.0430 N.pl3   
  12 C12           -1.5931    -2.0176     0.0266 C.2     
  13 C13           -1.8515    -2.7235    -1.2431 C.ar    
  14 O14           -1.6085    -2.6313     1.0788 O.2     
  15 C15           -2.0029    -4.1326    -1.2618 C.ar    
  16 C16           -2.2503    -4.7861    -2.4935 C.ar    
  17 C17           -2.3408    -4.0284    -3.6739 C.ar    
  18 C18           -2.1911    -2.6743    -3.6307 C.ar    
  19 C19           -1.9546    -2.0149    -2.4312 C.ar    
  20 C20           -1.9120    -4.8892    -0.0858 C.ar    
  21 C21           -2.0623    -6.2424    -0.1406 C.ar    
  22 C22           -2.3058    -6.8873    -1.3511 C.ar    
  23 C23           -2.4006    -6.1837    -2.5126 C.ar    
  24 H24            0.9738     3.2171    -0.2017 H       
  25 H25            1.7375     2.1398     0.9888 H       
  26 H26            1.6892     1.2491    -1.8795 H       
  27 H27            2.8199     2.5489    -1.4284 H       
  28 H28            3.5425     0.0002    -1.2226 H       
  29 H29            4.0306     1.1812     0.0146 H       
  30 H30            3.1278    -0.8541     1.0735 H       
  31 H31            2.0629     0.5362     1.3894 H       
  32 H32            1.0939    -1.8072     0.5267 H       
  33 H33            1.5280    -1.1226    -1.0553 H       
  34 H34           -3.9699    -0.8080    -0.0267 H       
  35 H35           -4.2924     0.8341     0.1217 H       
  36 H36           -2.5288    -4.5201    -4.6169 H       
  37 H37           -2.2628    -2.1034    -4.5446 H       
  38 H38           -1.8399    -0.9411    -2.4250 H       
  39 H39           -1.7233    -4.4022     0.8595 H       
  40 H40           -1.9914    -6.8232     0.7672 H       
  41 H41           -2.4213    -7.9610    -1.3683 H       
  42 H42           -2.5896    -6.6966    -3.4441 H       
@<TRIPOS>BOND
   1    1    2 2
   2    1    6 1
   3    1    5 1
   4    2    3 1
   5    2   10 1
   6    3    4 2
   7    3   12 1
   8    4    5 1
   9    4   11 1
  10    6    7 1
  11    6   24 1
  12    6   25 1
  13    7    8 1
  14    7   26 1
  15    7   27 1
  16    8    9 1
  17    8   28 1
  18    8   29 1
  19    9   10 1
  20    9   30 1
  21    9   31 1
  22   10   32 1
  23   10   33 1
  24   11   34 1
  25   11   35 1
  26   12   13 1
  27   12   14 2
  28   13   15 ar
  29   13   19 ar
  30   15   16 ar
  31   15   20 ar
  32   16   17 ar
  33   16   23 ar
  34   17   18 ar
  35   17   36 1
  36   18   19 ar
  37   18   37 1
  38   19   38 1
  39   20   21 ar
  40   20   39 1
  41   21   22 ar
  42   21   40 1
  43   22   23 ar
  44   22   41 1
  45   23   42 1

#	End of record

