#	Name: ASD01911698
#	Creating user name:	WinNT
#	Creation time:	15. 06. 2019 19:58

#	Modifying user name:	WinNT
#	Modification time:	15. 06. 2019 19:58

#	Program:	/corina/corina34_cracker 3.40 0067  02.08.2006

@<TRIPOS>MOLECULE
ASD01911698
  39   41    0    0    0
SMALL
NO_CHARGES


@<TRIPOS>ATOM
   1 N1             0.0374     1.1407    -0.7084 N.am    
   2 C2             0.0021    -0.0041     0.0020 C.2     
   3 C3            -1.2508    -0.7543     0.1205 C.2     
   4 C4            -1.3862    -2.1135     0.0310 C.2     
   5 S5            -2.8471    -0.0659     0.4110 S.3     
   6 C6            -3.5481    -1.6813     0.3766 C.2     
   7 N7            -2.6015    -2.5625     0.1688 N.2     
   8 C8            -4.9365    -1.9845     0.5531 C.1     
   9 C9            -6.0747    -2.2331     0.6978 C.1     
  10 C10           -7.4631    -2.5364     0.8742 C.ar    
  11 C11           -7.9041    -3.8624     0.8264 C.ar    
  12 C12           -9.2436    -4.1465     0.9979 C.ar    
  13 C13          -10.1496    -3.1216     1.2168 C.ar    
  14 C14           -9.7197    -1.8075     1.2652 C.ar    
  15 C15           -8.3833    -1.5086     1.1009 C.ar    
  16 O16            1.0110    -0.4146     0.5452 O.2     
  17 C17            1.2505     1.9716    -0.7414 C.3     
  18 C18           -1.1342     1.5890    -1.4763 C.3     
  19 C19           -1.4329     3.0449    -1.1028 C.3     
  20 N20           -0.2210     3.8536    -1.2900 N.3     
  21 C21            0.8628     3.4131    -0.3954 C.3     
  22 C22           -0.5084     5.2827    -1.1084 C.3     
  23 Cl23          -9.7945    -5.7917     0.9385 Cl      
  24 H24           -0.5446    -2.7679    -0.1420 H       
  25 H25           -7.1985    -4.6619     0.6555 H       
  26 H26          -11.1969    -3.3496     1.3499 H       
  27 H27          -10.4319    -1.0138     1.4362 H       
  28 H28           -8.0496    -0.4821     1.1389 H       
  29 H29            1.9688     1.6001    -0.0105 H       
  30 H30            1.6891     1.9397    -1.7388 H       
  31 H31           -0.9208     1.5211    -2.5430 H       
  32 H32           -1.9934     0.9646    -1.2314 H       
  33 H33           -2.2284     3.4284    -1.7417 H       
  34 H34           -1.7468     3.0959    -0.0602 H       
  35 H35            0.5209     3.4560     0.6387 H       
  36 H36            1.7262     4.0665    -0.5209 H       
  37 H37           -0.8892     5.4516    -0.1011 H       
  38 H38            0.4058     5.8585    -1.2526 H       
  39 H39           -1.2553     5.5985    -1.8368 H       
@<TRIPOS>BOND
   1    1    2 am
   2    1   18 1
   3    1   17 1
   4    2    3 1
   5    2   16 2
   6    3    4 2
   7    3    5 1
   8    4    7 1
   9    4   24 1
  10    5    6 1
  11    6    7 2
  12    6    8 1
  13    8    9 3
  14    9   10 1
  15   10   11 ar
  16   10   15 ar
  17   11   12 ar
  18   11   25 1
  19   12   13 ar
  20   12   23 1
  21   13   14 ar
  22   13   26 1
  23   14   15 ar
  24   14   27 1
  25   15   28 1
  26   17   21 1
  27   17   29 1
  28   17   30 1
  29   18   19 1
  30   18   31 1
  31   18   32 1
  32   19   20 1
  33   19   33 1
  34   19   34 1
  35   20   21 1
  36   20   22 1
  37   21   35 1
  38   21   36 1
  39   22   37 1
  40   22   38 1
  41   22   39 1

#	End of record

