#	Name: ASD05300016
#	Creating user name:	WinNT
#	Creation time:	15. 06. 2019 20:58

#	Modifying user name:	WinNT
#	Modification time:	15. 06. 2019 20:58

#	Program:	/corina/corina34_cracker 3.40 0067  02.08.2006

@<TRIPOS>MOLECULE
ASD05300016
  44   47    0    0    0
SMALL
NO_CHARGES


@<TRIPOS>ATOM
   1 O1             1.0863    -2.0755     2.7388 O.3     
   2 C2             0.5942    -1.8334     1.4192 C.3     
   3 C3             1.3951    -2.6662     0.4156 C.3     
   4 C4             0.8878    -2.3780    -1.0009 C.3     
   5 N5            -0.5617    -2.6143    -1.0413 N.am    
   6 C6            -1.4163    -1.9324    -0.0598 C.3     
   7 C7            -0.8833    -2.2256     1.3461 C.3     
   8 C8            -1.0973    -3.4406    -1.9615 C.2     
   9 O9            -2.2239    -3.8646    -1.8133 O.2     
  10 N10           -0.3810    -3.7958    -3.0465 N.am    
  11 C11           -0.8341    -4.7673    -3.8695 C.2     
  12 C12           -2.0427    -4.5854    -4.5446 C.2     
  13 C13           -2.5050    -5.5586    -5.4284 C.2     
  14 C14           -1.7526    -6.7124    -5.6462 C.2     
  15 C15           -0.5511    -6.8983    -4.9661 C.2     
  16 C16           -0.0980    -5.9346    -4.0605 C.2     
  17 C17            1.1210    -6.1914    -3.2890 C.2     
  18 C18            2.0172    -5.3152    -2.9691 C.2     
  19 C19            1.9872    -3.8926    -3.3262 C.2     
  20 C20            0.7891    -3.1780    -3.3176 C.2     
  21 C21            0.7942    -1.8072    -3.5903 C.2     
  22 C22            1.9859    -1.1622    -3.9150 C.2     
  23 C23            3.1765    -1.8863    -3.9683 C.2     
  24 C24            3.1770    -3.2487    -3.6766 C.2     
  25 H25            0.6240    -1.5794     3.4282 H       
  26 H26            0.7011    -0.7753     1.1803 H       
  27 H27            2.4506    -2.4029     0.4847 H       
  28 H28            1.2685    -3.7255     0.6389 H       
  29 H29            1.0961    -1.3398    -1.2594 H       
  30 H30            1.3859    -3.0401    -1.7091 H       
  31 H31           -1.3959    -0.8579    -0.2416 H       
  32 H32           -2.4386    -2.3005    -0.1471 H       
  33 H33           -0.9884    -3.2891     1.5606 H       
  34 H34           -1.4494    -1.6488     2.0775 H       
  35 H35           -2.6210    -3.6880    -4.3812 H       
  36 H36           -3.4442    -5.4198    -5.9433 H       
  37 H37           -2.1013    -7.4616    -6.3415 H       
  38 H38            0.0323    -7.7905    -5.1388 H       
  39 H39            1.2863    -7.2056    -2.9566 H       
  40 H40            2.8601    -5.6606    -2.3888 H       
  41 H41           -0.1279    -1.2465    -3.5497 H       
  42 H42            1.9874    -0.1029    -4.1254 H       
  43 H43            4.0985    -1.3919    -4.2367 H       
  44 H44            4.0999    -3.8081    -3.7184 H       
@<TRIPOS>BOND
   1    1    2 1
   2    1   25 1
   3    2    3 1
   4    2    7 1
   5    2   26 1
   6    3    4 1
   7    3   27 1
   8    3   28 1
   9    4    5 1
  10    4   29 1
  11    4   30 1
  12    5    6 1
  13    5    8 am
  14    6    7 1
  15    6   31 1
  16    6   32 1
  17    7   33 1
  18    7   34 1
  19    8    9 2
  20    8   10 am
  21   10   11 1
  22   10   20 1
  23   11   12 2
  24   11   16 1
  25   12   13 1
  26   12   35 1
  27   13   14 2
  28   13   36 1
  29   14   15 1
  30   14   37 1
  31   15   16 2
  32   15   38 1
  33   16   17 1
  34   17   18 2
  35   17   39 1
  36   18   19 1
  37   18   40 1
  38   19   20 2
  39   19   24 1
  40   20   21 1
  41   21   22 2
  42   21   41 1
  43   22   23 1
  44   22   42 1
  45   23   24 2
  46   23   43 1
  47   24   44 1

#	End of record

