#	Name: ASD02500414
#	Creating user name:	WinNT
#	Creation time:	15. 06. 2019 20:22

#	Modifying user name:	WinNT
#	Modification time:	15. 06. 2019 20:22

#	Program:	/corina/corina34_cracker 3.40 0067  02.08.2006

@<TRIPOS>MOLECULE
ASD02500414
  51   54    0    0    0
SMALL
NO_CHARGES


@<TRIPOS>ATOM
   1 C1            -1.9644     4.1065    -0.4896 C.ar    
   2 C2            -0.8653     4.9433    -0.5416 C.ar    
   3 C3            -1.0083     6.2460    -0.9804 C.ar    
   4 C4            -2.2519     6.7127    -1.3677 C.ar    
   5 C5            -3.3516     5.8747    -1.3154 C.ar    
   6 C6            -3.2073     4.5722    -0.8763 C.ar    
   7 S7            -1.7799     2.4436     0.0630 S.o2    
   8 O8            -2.9207     1.7366    -0.4041 O.2     
   9 O9            -0.4473     2.0623    -0.2499 O.2     
  10 N10           -1.8853     2.4616     1.7156 N.am    
  11 C11           -0.9485     3.1654     2.4643 C.ar    
  12 C12           -1.3692     4.0005     3.4957 C.ar    
  13 C13           -0.4446     4.6983     4.2385 C.ar    
  14 C14            0.9184     4.5680     3.9565 C.ar    
  15 C15            1.3376     3.7286     2.9201 C.ar    
  16 C16            0.4084     3.0291     2.1847 C.ar    
  17 C17            1.9122     5.3150     4.7505 C.2     
  18 O18            2.9570     4.7831     5.0728 O.2     
  19 N19            1.6621     6.5872     5.1187 N.am    
  20 C20            2.6727     7.3775     5.8379 C.3     
  21 C21            2.8512     8.7154     5.1123 C.3     
  22 N22            1.5429     9.3670     4.9645 N.3     
  23 C23            0.6404     8.5660     4.1268 C.3     
  24 C24            0.3735     7.2240     4.8066 C.3     
  25 C25            1.6812    10.6484     4.4600 C.ar    
  26 N26            0.5983    11.3856     4.2614 N.ar    
  27 C27            0.6955    12.6140     3.7806 C.ar    
  28 C28            1.9486    13.1270     3.4843 C.ar    
  29 C29            3.0602    12.3288     3.7042 C.ar    
  30 N30            2.8936    11.1107     4.1923 N.ar    
  31 Cl31          -2.4325     8.3490    -1.9184 Cl      
  32 H32            0.1054     4.5790    -0.2389 H       
  33 H33           -0.1496     6.8998    -1.0207 H       
  34 H34           -4.3226     6.2385    -1.6172 H       
  35 H35           -4.0656     3.9180    -0.8354 H       
  36 H36           -2.6005     1.9813     2.1612 H       
  37 H37           -2.4224     4.1011     3.7129 H       
  38 H38           -0.7716     5.3463     5.0383 H       
  39 H39            2.3899     3.6262     2.6996 H       
  40 H40            0.7320     2.3768     1.3870 H       
  41 H41            2.3382     7.5569     6.8596 H       
  42 H42            3.6197     6.8379     5.8490 H       
  43 H43            3.5141     9.3579     5.6919 H       
  44 H44            3.2836     8.5401     4.1273 H       
  45 H45           -0.3002     9.1001     3.9916 H       
  46 H46            1.1036     8.3928     3.1554 H       
  47 H47           -0.1989     6.5828     4.1362 H       
  48 H48           -0.1862     7.3882     5.7273 H       
  49 H49           -0.1908    13.2100     3.6206 H       
  50 H50            2.0564    14.1267     3.0904 H       
  51 H51            4.0507    12.6984     3.4834 H       
@<TRIPOS>BOND
   1    1    2 ar
   2    1    6 ar
   3    1    7 1
   4    2    3 ar
   5    2   32 1
   6    3    4 ar
   7    3   33 1
   8    4    5 ar
   9    4   31 1
  10    5    6 ar
  11    5   34 1
  12    6   35 1
  13    7    8 2
  14    7    9 2
  15    7   10 am
  16   10   11 1
  17   10   36 1
  18   11   12 ar
  19   11   16 ar
  20   12   13 ar
  21   12   37 1
  22   13   14 ar
  23   13   38 1
  24   14   15 ar
  25   14   17 1
  26   15   16 ar
  27   15   39 1
  28   16   40 1
  29   17   18 2
  30   17   19 am
  31   19   20 1
  32   19   24 1
  33   20   21 1
  34   20   41 1
  35   20   42 1
  36   21   22 1
  37   21   43 1
  38   21   44 1
  39   22   23 1
  40   22   25 1
  41   23   24 1
  42   23   45 1
  43   23   46 1
  44   24   47 1
  45   24   48 1
  46   25   26 ar
  47   25   30 ar
  48   26   27 ar
  49   27   28 ar
  50   27   49 1
  51   28   29 ar
  52   28   50 1
  53   29   30 ar
  54   29   51 1

#	End of record

