#	Name: ASD09900003
#	Creating user name:	WinNT
#	Creation time:	15. 06. 2019 21:24

#	Modifying user name:	WinNT
#	Modification time:	15. 06. 2019 21:24

#	Program:	/corina/corina34_cracker 3.40 0067  02.08.2006

@<TRIPOS>MOLECULE
ASD09900003
  32   34    0    0    0
SMALL
NO_CHARGES


@<TRIPOS>ATOM
   1 C1            -0.0160     1.3302     0.0094 C.2     
   2 C2             0.0021    -0.0041     0.0020 C.2     
   3 C3             1.2912    -0.7180    -0.0012 C.2     
   4 C4             2.3883    -0.1018    -0.4454 C.2     
   5 C5             2.2716     1.3194    -0.9205 C.3     
   6 C6             3.6003     2.0342    -0.8653 C.2     
   7 C7             3.5874     3.5001    -1.0257 C.ar    
   8 C8             4.7604     4.1959    -1.3285 C.ar    
   9 C9             4.7167     5.5786    -1.4833 C.ar    
  10 C10            3.5261     6.2627    -1.3402 C.ar    
  11 C11            2.3543     5.5880    -1.0361 C.ar    
  12 C12            2.3733     4.2086    -0.8727 C.ar    
  13 C13            1.1375     3.4711    -0.5316 C.2     
  14 C14            1.2942     2.0668     0.0008 C.3     
  15 S15           -1.5428     2.2096     0.0214 S.o2    
  16 O16           -2.5624     1.2406     0.2235 O.2     
  17 O17           -1.3543     3.3292     0.8760 O.2     
  18 N18           -1.7706     2.8173    -1.5021 N.am    
  19 O19            4.6365     1.4273    -0.6956 O.2     
  20 O20            0.0433     3.9734    -0.6740 O.2     
  21 O21            5.9325     3.5295    -1.4701 O.3     
  22 H22           -0.9246    -0.5587    -0.0012 H       
  23 H23            1.3479    -1.7361     0.3548 H       
  24 H24            3.3395    -0.6129    -0.4628 H       
  25 H25            1.8937     1.3317    -1.9428 H       
  26 H26            5.6213     6.1204    -1.7169 H       
  27 H27            3.5077     7.3352    -1.4662 H       
  28 H28            1.4287     6.1334    -0.9261 H       
  29 H29            1.6999     2.1004     1.0119 H       
  30 H30           -1.1110     2.6519    -2.1938 H       
  31 H31           -2.5636     3.3387    -1.7028 H       
  32 H32            6.1104     3.2342    -2.3736 H       
@<TRIPOS>BOND
   1    1    2 2
   2    1   14 1
   3    1   15 1
   4    2    3 1
   5    2   22 1
   6    3    4 2
   7    3   23 1
   8    4    5 1
   9    4   24 1
  10    5    6 1
  11    5   14 1
  12    5   25 1
  13    6    7 1
  14    6   19 2
  15    7    8 ar
  16    7   12 ar
  17    8    9 ar
  18    8   21 1
  19    9   10 ar
  20    9   26 1
  21   10   11 ar
  22   10   27 1
  23   11   12 ar
  24   11   28 1
  25   12   13 1
  26   13   14 1
  27   13   20 2
  28   14   29 1
  29   15   16 2
  30   15   17 2
  31   15   18 am
  32   18   30 1
  33   18   31 1
  34   21   32 1

#	End of record

