#	Name: ASD03731755
#	Creating user name:	WinNT
#	Creation time:	15. 06. 2019 20:46

#	Modifying user name:	WinNT
#	Modification time:	15. 06. 2019 20:46

#	Program:	/corina/corina34_cracker 3.40 0067  02.08.2006

@<TRIPOS>MOLECULE
ASD03731755
  36   37    0    0    0
SMALL
NO_CHARGES


@<TRIPOS>ATOM
   1 C1             0.3753     1.0934     1.9783 C.2     
   2 C2             0.2918    -0.2829     1.4516 C.ar    
   3 C3             1.3746    -0.8361     0.7624 C.ar    
   4 C4             1.2926    -2.1210     0.2723 C.ar    
   5 C5             0.1337    -2.8670     0.4626 C.ar    
   6 C6            -0.9445    -2.3197     1.1475 C.ar    
   7 C7            -0.8675    -1.0378     1.6457 C.ar    
   8 O8             1.3868     1.7474     1.8128 O.2     
   9 N9            -0.6719     1.6272     2.6378 N.am    
  10 S10           -0.5783     3.1714     3.2287 S.o2    
  11 O11           -1.8293     3.3775     3.8703 O.2     
  12 O12            0.6357     3.1911     3.9670 O.2     
  13 C13           -0.4414     4.2141     1.7507 C.3     
  14 O14            0.0558    -4.1323    -0.0222 O.3     
  15 C15           -1.1301    -4.7863     0.0893 C.ar    
  16 C16           -2.0843    -4.6706    -0.9114 C.ar    
  17 C17           -3.2891    -5.3365    -0.7956 C.ar    
  18 C18           -3.5446    -6.1174     0.3165 C.ar    
  19 C19           -2.5956    -6.2341     1.3153 C.ar    
  20 C20           -1.3866    -5.5756     1.2013 C.ar    
  21 C21           -4.8600    -6.8423     0.4403 C.3     
  22 Cl22           2.6365    -2.8099    -0.5840 Cl      
  23 H23            2.2741    -0.2570     0.6139 H       
  24 H24           -1.8424    -2.9018     1.2932 H       
  25 H25           -1.7043    -0.6152     2.1820 H       
  26 H26           -1.4804     1.1069     2.7663 H       
  27 H27           -1.3208     4.0714     1.1227 H       
  28 H28           -0.3740     5.2603     2.0491 H       
  29 H29            0.4527     3.9373     1.1923 H       
  30 H30           -1.8855    -4.0601    -1.7799 H       
  31 H31           -4.0321    -5.2467    -1.5742 H       
  32 H32           -2.7978    -6.8444     2.1830 H       
  33 H33           -0.6436    -5.6712     1.9793 H       
  34 H34           -4.7734    -7.8316    -0.0090 H       
  35 H35           -5.1214    -6.9433     1.4937 H       
  36 H36           -5.6366    -6.2763    -0.0741 H       
@<TRIPOS>BOND
   1    1    2 1
   2    1    8 2
   3    1    9 am
   4    2    3 ar
   5    2    7 ar
   6    3    4 ar
   7    3   23 1
   8    4    5 ar
   9    4   22 1
  10    5    6 ar
  11    5   14 1
  12    6    7 ar
  13    6   24 1
  14    7   25 1
  15    9   10 am
  16    9   26 1
  17   10   11 2
  18   10   12 2
  19   10   13 1
  20   13   27 1
  21   13   28 1
  22   13   29 1
  23   14   15 1
  24   15   16 ar
  25   15   20 ar
  26   16   17 ar
  27   16   30 1
  28   17   18 ar
  29   17   31 1
  30   18   19 ar
  31   18   21 1
  32   19   20 ar
  33   19   32 1
  34   20   33 1
  35   21   34 1
  36   21   35 1
  37   21   36 1

#	End of record

