#	Name: ASD08140001
#	Creating user name:	WinNT
#	Creation time:	15. 06. 2019 21:15

#	Modifying user name:	WinNT
#	Modification time:	15. 06. 2019 21:15

#	Program:	/corina/corina34_cracker 3.40 0067  02.08.2006

@<TRIPOS>MOLECULE
ASD08140001
  35   35    0    0    0
SMALL
NO_CHARGES


@<TRIPOS>ATOM
   1 C1            -0.0188     1.5368     0.0105 C.3     
   2 C2             0.0021    -0.0041     0.0020 C.3     
   3 C3            -0.6960    -0.3857    -1.3260 C.3     
   4 C4            -0.5465     0.9143    -2.1567 C.3     
   5 O5            -0.7102     1.9613    -1.1761 O.3     
   6 O6             1.3472    -0.4861     0.0165 O.3     
   7 O7            -0.0244    -1.4761    -1.9601 O.3     
   8 C8            -1.6392     1.0002    -3.2242 C.3     
   9 O9             1.3183     2.0409     0.0004 O.3     
  10 P10            1.7327     3.4408     0.6792 P.3     
  11 O11           -1.4107     2.1449    -4.0486 O.3     
  12 P12           -2.3697     2.5453    -5.2783 P.3     
  13 O13           -1.7423     3.8054    -6.0598 O.3     
  14 O14           -2.4874     1.3982    -6.2059 O.2     
  15 O15           -3.8280     2.9336    -4.7172 O.3     
  16 O16            3.3295     3.6272     0.5927 O.3     
  17 O17            1.0084     4.6498    -0.0991 O.3     
  18 O18            1.3116     3.4449     2.0980 O.2     
  19 P19            4.3944     4.5343     1.3898 P.3     
  20 O20            5.8823     3.9873     1.1085 O.3     
  21 O21            4.2802     6.0604     0.8896 O.3     
  22 O22            4.1106     4.4681     2.8408 O.2     
  23 H23           -0.5434     1.8955     0.8961 H       
  24 H24           -0.5545    -0.3978     0.8525 H       
  25 H25           -1.7469    -0.6220    -1.1592 H       
  26 H26            0.4421     0.9668    -2.6128 H       
  27 H27            1.8499    -0.2258     0.8005 H       
  28 H28           -0.0130    -2.2890    -1.4365 H       
  29 H29           -1.6185     0.1001    -3.8385 H       
  30 H30           -2.6125     1.0885    -2.7415 H       
  31 H31           -2.2689     4.1018    -6.8148 H       
  32 H32           -3.8268     3.6794    -4.1017 H       
  33 H33            1.2385     4.7080    -1.0365 H       
  34 H34            6.5769     4.4877     1.5582 H       
  35 H35            4.4541     6.1790    -0.0542 H       
@<TRIPOS>BOND
   1    1    2 1
   2    1    9 1
   3    1    5 1
   4    1   23 1
   5    2    3 1
   6    2    6 1
   7    2   24 1
   8    3    4 1
   9    3    7 1
  10    3   25 1
  11    4    5 1
  12    4    8 1
  13    4   26 1
  14    6   27 1
  15    7   28 1
  16    8   11 1
  17    8   29 1
  18    8   30 1
  19    9   10 1
  20   10   16 1
  21   10   17 1
  22   10   18 2
  23   11   12 1
  24   12   13 1
  25   12   14 2
  26   12   15 1
  27   13   31 1
  28   15   32 1
  29   16   19 1
  30   17   33 1
  31   19   20 1
  32   19   21 1
  33   19   22 2
  34   20   34 1
  35   21   35 1

#	End of record

