#	Name: ASD01948121
#	Creating user name:	WinNT
#	Creation time:	15. 06. 2019 20:13

#	Modifying user name:	WinNT
#	Modification time:	15. 06. 2019 20:13

#	Program:	/corina/corina34_cracker 3.40 0067  02.08.2006

@<TRIPOS>MOLECULE
ASD01948121
  32   34    0    0    0
SMALL
NO_CHARGES


@<TRIPOS>ATOM
   1 C1             1.8005     1.4194    -1.0459 C.ar    
   2 C2             1.5989     0.0463    -1.1430 C.ar    
   3 C3             1.7728    -0.5930    -2.3628 C.ar    
   4 C4             2.1453     0.1352    -3.4765 C.ar    
   5 C5             2.3458     1.4999    -3.3778 C.ar    
   6 C6             2.1676     2.1427    -2.1654 C.ar    
   7 N7             1.2221    -0.6886    -0.0137 N.pl3   
   8 C8             3.6316    -2.2842    -0.4396 C.2     
   9 C9             2.3519    -2.8744    -0.2912 C.2     
  10 C10            1.1516    -2.0679    -0.0784 C.2     
  11 N11            4.6885    -3.1049    -0.6378 N.am    
  12 F12            1.6325     2.0458     0.1392 F       
  13 C13            2.2383    -4.2705    -0.3502 C.2     
  14 N14            1.0120    -4.8568    -0.2086 N.am    
  15 C15           -0.0976    -4.1253    -0.0118 C.2     
  16 C16           -0.0593    -2.7285     0.0570 C.2     
  17 C17            4.5118    -4.4462    -0.6901 C.2     
  18 N18            3.3418    -5.0059    -0.5451 N.2     
  19 O19            3.7748    -1.0751    -0.3952 O.2     
  20 C20            0.9049    -6.3165    -0.2720 C.3     
  21 O21           -1.1701    -4.6956     0.1081 O.2     
  22 I22            2.9119     2.5981    -5.0697 I       
  23 F23           -1.1967    -2.0271     0.2562 F       
  24 H24            1.6173    -1.6589    -2.4412 H       
  25 H25            2.2806    -0.3624    -4.4254 H       
  26 H26            2.3246     3.2087    -2.0916 H       
  27 H27            1.0104    -0.2305     0.8146 H       
  28 H28            5.5772    -2.7306    -0.7430 H       
  29 H29            5.3733    -5.0776    -0.8499 H       
  30 H30            1.0219    -6.7332     0.7284 H       
  31 H31           -0.0722    -6.5923    -0.6685 H       
  32 H32            1.6856    -6.7101    -0.9230 H       
@<TRIPOS>BOND
   1    1    2 ar
   2    1   12 1
   3    1    6 ar
   4    2    3 ar
   5    2    7 1
   6    3    4 ar
   7    3   24 1
   8    4    5 ar
   9    4   25 1
  10    5    6 ar
  11    5   22 1
  12    6   26 1
  13    7   10 1
  14    7   27 1
  15    8    9 1
  16    8   19 2
  17    8   11 am
  18    9   10 1
  19    9   13 2
  20   10   16 2
  21   11   17 1
  22   11   28 1
  23   13   14 1
  24   13   18 1
  25   14   15 am
  26   14   20 1
  27   15   16 1
  28   15   21 2
  29   16   23 1
  30   17   18 2
  31   17   29 1
  32   20   30 1
  33   20   31 1
  34   20   32 1

#	End of record

