#	Name: ASD05313170
#	Creating user name:	WinNT
#	Creation time:	15. 06. 2019 20:58

#	Modifying user name:	WinNT
#	Modification time:	15. 06. 2019 20:58

#	Program:	/corina/corina34_cracker 3.40 0067  02.08.2006

@<TRIPOS>MOLECULE
ASD05313170
  37   40    0    0    0
SMALL
NO_CHARGES


@<TRIPOS>ATOM
   1 C1            -0.0725     0.8204     1.0206 C.2     
   2 C2             0.1130    -0.6165     0.5946 C.3     
   3 N3             0.9308     1.7333     1.0467 N.pl3   
   4 N4             1.4566    -0.7171    -0.0061 N.am    
   5 C5             2.5709    -0.0356     0.6700 C.3     
   6 C6             2.3174     1.4768     0.6613 C.3     
   7 N7            -0.9035     2.6444     1.7027 N.2     
   8 N8            -1.1571     1.4124     1.4219 N.2     
   9 C9             0.3728     2.8936     1.4901 C.2     
  10 C10            1.0660     4.1837     1.6959 C.ar    
  11 C11            0.3567     5.2933     2.1583 C.ar    
  12 N12            2.3691     4.2884     1.4460 N.ar    
  13 N13            0.9794     6.4427     2.3411 N.ar    
  14 C14            2.2747     6.5434     2.0864 C.ar    
  15 C15            2.9843     5.4405     1.6312 C.ar    
  16 F16            2.9086     7.7216     2.2742 F       
  17 C17            1.6574    -1.4141    -1.1421 C.2     
  18 O18            2.7496    -1.4046    -1.6761 O.2     
  19 C19            0.5510    -2.1893    -1.7379 C.ar    
  20 C20            0.3198    -2.1369    -3.1158 C.ar    
  21 C21           -0.7155    -2.8641    -3.6665 C.ar    
  22 C22           -1.5247    -3.6449    -2.8561 C.ar    
  23 C23           -1.2996    -3.6998    -1.4888 C.ar    
  24 C24           -0.2650    -2.9823    -0.9282 C.ar    
  25 F25           -2.5371    -4.3550    -3.4003 F       
  26 Cl26           1.3325    -1.1588    -4.1313 Cl      
  27 H27            0.0430    -1.2735     1.4615 H       
  28 H28           -0.6445    -0.8872    -0.1408 H       
  29 H29            2.6418    -0.3871     1.6993 H       
  30 H30            3.5017    -0.2517     0.1457 H       
  31 H31            2.4962     1.8707    -0.3391 H       
  32 H32            2.9882     1.9623     1.3702 H       
  33 H33           -0.7000     5.2116     2.3659 H       
  34 H34            4.0417     5.5258     1.4288 H       
  35 H35           -0.8959    -2.8246    -4.7306 H       
  36 H36           -1.9339    -4.3094    -0.8624 H       
  37 H37           -0.0882    -3.0300     0.1362 H       
@<TRIPOS>BOND
   1    1    2 1
   2    1    3 1
   3    1    8 2
   4    2    4 1
   5    2   27 1
   6    2   28 1
   7    3    6 1
   8    3    9 1
   9    4    5 1
  10    4   17 am
  11    5    6 1
  12    5   29 1
  13    5   30 1
  14    6   31 1
  15    6   32 1
  16    7    8 1
  17    7    9 2
  18    9   10 1
  19   10   11 ar
  20   10   12 ar
  21   11   13 ar
  22   11   33 1
  23   12   15 ar
  24   13   14 ar
  25   14   15 ar
  26   14   16 1
  27   15   34 1
  28   17   18 2
  29   17   19 1
  30   19   20 ar
  31   19   24 ar
  32   20   21 ar
  33   20   26 1
  34   21   22 ar
  35   21   35 1
  36   22   23 ar
  37   22   25 1
  38   23   24 ar
  39   23   36 1
  40   24   37 1

#	End of record

