#	Name: ASD00431024
#	Creating user name:	WinNT
#	Creation time:	15. 06. 2019 18:35

#	Modifying user name:	WinNT
#	Modification time:	15. 06. 2019 18:35

#	Program:	/corina/corina34_cracker 3.40 0067  02.08.2006

@<TRIPOS>MOLECULE
ASD00431024
  17   16    0    0    0
SMALL
NO_CHARGES


@<TRIPOS>ATOM
   1 C1            -0.0178     1.4648     0.0101 C.3     
   2 N2             0.0021    -0.0041     0.0020 N.3     
   3 C3             1.4175     1.9944    -0.0008 C.3     
   4 C4             1.3968     3.5242     0.0076 C.3     
   5 O5             2.7374     4.0188    -0.0025 O.3     
   6 C6             2.8309     5.4447     0.0043 C.3     
   7 H7            -0.5450     1.8259    -0.8730 H       
   8 H8            -0.5280     1.8163     0.9069 H       
   9 H9             0.5405    -0.3627     0.7764 H       
  10 H10           -0.9349    -0.3784     0.0090 H       
  11 H11            1.9447     1.6333     0.8823 H       
  12 H12            1.9277     1.6428    -0.8976 H       
  13 H13            0.8696     3.8853    -0.8754 H       
  14 H14            0.8866     3.8757     0.9044 H       
  15 H15            2.3335     5.8457    -0.8789 H       
  16 H16            2.3505     5.8361     0.9010 H       
  17 H17            3.8801     5.7401    -0.0042 H       
@<TRIPOS>BOND
   1    1    2 1
   2    1    3 1
   3    1    7 1
   4    1    8 1
   5    2    9 1
   6    2   10 1
   7    3    4 1
   8    3   11 1
   9    3   12 1
  10    4    5 1
  11    4   13 1
  12    4   14 1
  13    5    6 1
  14    6   15 1
  15    6   16 1
  16    6   17 1

#	End of record

