#	Name: ASD01470021
#	Creating user name:	WinNT
#	Creation time:	15. 06. 2019 19:21

#	Modifying user name:	WinNT
#	Modification time:	15. 06. 2019 19:21

#	Program:	/corina/corina34_cracker 3.40 0067  02.08.2006

@<TRIPOS>MOLECULE
ASD01470021
  77   82    0    0    0
SMALL
NO_CHARGES


@<TRIPOS>ATOM
   1 N1            -1.6846     1.4092     0.5932 N.am    
   2 C2            -0.3512     0.9649     0.1965 C.3     
   3 C3             0.1929    -0.0740     1.1870 C.3     
   4 C4            -0.2708    -1.4815     0.8450 C.3     
   5 C5            -1.6408    -1.4726     0.1871 C.3     
   6 N6            -2.6077    -0.7428     1.0082 N.am    
   7 C7            -2.6428     0.6012     1.0181 C.2     
   8 O8            -3.6531     1.1226     1.4490 O.2     
   9 C9            -3.5534    -1.4906     1.8404 C.3     
  10 C10           -1.9787     2.8426     0.5218 C.3     
  11 C11           -1.7136     3.4772     1.8627 C.ar    
  12 C12           -2.9947    -1.6314     3.2330 C.ar    
  13 C13           -3.1396    -0.6095     4.1258 C.ar    
  14 C14           -2.6208    -0.7416     5.4188 C.ar    
  15 C15           -1.9550    -1.9272     5.7846 C.ar    
  16 C16           -1.8229    -2.9533     4.8519 C.ar    
  17 C17           -2.3420    -2.8028     3.5975 C.ar    
  18 C18           -0.4334     3.8791     2.1948 C.ar    
  19 C19           -0.1849     4.4617     3.4246 C.ar    
  20 C20           -1.2174     4.6441     4.3255 C.ar    
  21 C21           -2.5067     4.2408     3.9932 C.ar    
  22 C22           -2.7518     3.6615     2.7560 C.ar    
  23 C23           -2.5942     0.1230     6.5941 C.2     
  24 N24           -1.9694    -0.5143     7.5426 N.2     
  25 N25           -1.5619    -1.7728     7.0883 N.pl3   
  26 C26           -0.4220     0.3420    -1.1992 C.3     
  27 O27            1.6211    -0.0367     1.1612 O.3     
  28 C28            0.4377     1.1366    -2.1481 C.ar    
  29 C29            1.7400     0.7440    -2.3947 C.ar    
  30 C30            2.5287     1.4729    -3.2651 C.ar    
  31 C31            2.0149     2.5941    -3.8893 C.ar    
  32 C32            0.7123     2.9862    -3.6435 C.ar    
  33 C33           -0.0777     2.2548    -2.7764 C.ar    
  34 C34           -2.1213    -2.9136     0.0041 C.3     
  35 O35           -0.3336    -2.2568     2.0438 O.3     
  36 C36           -1.2032    -3.6318    -0.9511 C.ar    
  37 C37           -0.0664    -4.2593    -0.4771 C.ar    
  38 C38            0.7758    -4.9180    -1.3533 C.ar    
  39 C39            0.4809    -4.9496    -2.7034 C.ar    
  40 C40           -0.6564    -4.3228    -3.1773 C.ar    
  41 C41           -1.5009    -3.6678    -2.3006 C.ar    
  42 F42           -0.9748     5.2127     5.5267 F       
  43 N43           -3.5543     4.4234     4.9014 N.pl3   
  44 H44            0.3204     1.8231     0.1711 H       
  45 H45           -0.1517     0.1784     2.1899 H       
  46 H46            0.4481    -1.9379     0.1646 H       
  47 H47           -1.5667    -0.9950    -0.7899 H       
  48 H48           -4.5024    -0.9561     1.8820 H       
  49 H49           -3.7120    -2.4798     1.4109 H       
  50 H50           -1.3428     3.3069    -0.2320 H       
  51 H51           -3.0252     2.9859     0.2525 H       
  52 H52           -3.6514     0.2962     3.8360 H       
  53 H53           -1.3139    -3.8670     5.1210 H       
  54 H54           -2.2375    -3.6012     2.8778 H       
  55 H55            0.3748     3.7376     1.4926 H       
  56 H56            0.8166     4.7739     3.6813 H       
  57 H57           -3.7516     3.3473     2.4949 H       
  58 H58           -3.0171     1.1143     6.6647 H       
  59 H59           -1.0788    -2.4309     7.6121 H       
  60 H60           -0.0621    -0.6860    -1.1569 H       
  61 H61           -1.4542     0.3515    -1.5494 H       
  62 H62            2.0420    -0.6665     1.7622 H       
  63 H63            2.1415    -0.1320    -1.9069 H       
  64 H64            3.5464     1.1665    -3.4571 H       
  65 H65            2.6312     3.1640    -4.5688 H       
  66 H66            0.3110     3.8624    -4.1310 H       
  67 H67           -1.0954     2.5612    -2.5844 H       
  68 H68           -2.1148    -3.4239     0.9672 H       
  69 H69           -3.1342    -2.9105    -0.3986 H       
  70 H70            0.5122    -2.3355     2.5060 H       
  71 H71            0.1640    -4.2346     0.5778 H       
  72 H72            1.6643    -5.4077    -0.9830 H       
  73 H73            1.1392    -5.4636    -3.3881 H       
  74 H74           -0.8867    -4.3472    -4.2322 H       
  75 H75           -2.3895    -3.1781    -2.6708 H       
  76 H76           -3.3978     4.8970     5.7334 H       
  77 H77           -4.4373     4.0765     4.6995 H       
@<TRIPOS>BOND
   1    1    2 1
   2    1   10 1
   3    1    7 am
   4    2    3 1
   5    2   26 1
   6    2   44 1
   7    3    4 1
   8    3   27 1
   9    3   45 1
  10    4    5 1
  11    4   35 1
  12    4   46 1
  13    5    6 1
  14    5   34 1
  15    5   47 1
  16    6    7 am
  17    6    9 1
  18    7    8 2
  19    9   12 1
  20    9   48 1
  21    9   49 1
  22   10   11 1
  23   10   50 1
  24   10   51 1
  25   11   18 ar
  26   11   22 ar
  27   12   13 ar
  28   12   17 ar
  29   13   14 ar
  30   13   52 1
  31   14   15 ar
  32   14   23 1
  33   15   16 ar
  34   15   25 1
  35   16   17 ar
  36   16   53 1
  37   17   54 1
  38   18   19 ar
  39   18   55 1
  40   19   20 ar
  41   19   56 1
  42   20   21 ar
  43   20   42 1
  44   21   22 ar
  45   21   43 1
  46   22   57 1
  47   23   24 2
  48   23   58 1
  49   24   25 1
  50   25   59 1
  51   26   28 1
  52   26   60 1
  53   26   61 1
  54   27   62 1
  55   28   29 ar
  56   28   33 ar
  57   29   30 ar
  58   29   63 1
  59   30   31 ar
  60   30   64 1
  61   31   32 ar
  62   31   65 1
  63   32   33 ar
  64   32   66 1
  65   33   67 1
  66   34   36 1
  67   34   68 1
  68   34   69 1
  69   35   70 1
  70   36   37 ar
  71   36   41 ar
  72   37   38 ar
  73   37   71 1
  74   38   39 ar
  75   38   72 1
  76   39   40 ar
  77   39   73 1
  78   40   41 ar
  79   40   74 1
  80   41   75 1
  81   43   76 1
  82   43   77 1

#	End of record

