#	Name: ASD04880354
#	Creating user name:	WinNT
#	Creation time:	15. 06. 2019 20:53

#	Modifying user name:	WinNT
#	Modification time:	15. 06. 2019 20:53

#	Program:	/corina/corina34_cracker 3.40 0067  02.08.2006

@<TRIPOS>MOLECULE
ASD04880354
  45   48    0    0    0
SMALL
NO_CHARGES


@<TRIPOS>ATOM
   1 C1            -0.0277     1.3781    -0.2802 C.ar    
   2 C2            -0.0053    -0.0197    -0.2621 C.ar    
   3 C3             1.2154    -0.6936    -0.2220 C.ar    
   4 C4             2.4046     0.0333    -0.2002 C.ar    
   5 C5             2.3662     1.4308    -0.2187 C.ar    
   6 C6             1.1545     2.0911    -0.2583 C.ar    
   7 C7             3.7003    -0.6701    -0.1573 C.2     
   8 N8             3.8514    -1.9493    -0.1374 N.2     
   9 N9             5.1807    -2.3651    -0.0976 N.am    
  10 C10            6.0504    -1.1781    -0.0898 C.3     
  11 C11            5.0560    -0.0010    -0.1364 C.3     
  12 C12            5.6012    -3.6453    -0.0703 C.2     
  13 O13            6.7887    -3.8967    -0.1403 O.2     
  14 C14            4.6188    -4.7435     0.0447 C.ar    
  15 C15            5.0351    -6.0712    -0.0704 C.ar    
  16 C16            3.2723    -4.4578     0.2745 C.ar    
  17 C17            2.3592    -5.4897     0.3814 C.ar    
  18 C18            2.7796    -6.8045     0.2612 C.ar    
  19 C19            4.1142    -7.0924     0.0382 C.ar    
  20 F20            1.0550    -5.2162     0.6039 F       
  21 C21           -1.2323    -0.7577    -0.2843 C.1     
  22 C22           -2.2382    -1.3627    -0.3025 C.1     
  23 C23           -3.4652    -2.1007    -0.3247 C.ar    
  24 C24           -3.4446    -3.4977    -0.3067 C.ar    
  25 C25           -4.6304    -4.2018    -0.3283 C.ar    
  26 C26           -5.8384    -3.5280    -0.3677 C.ar    
  27 C27           -5.8666    -2.1446    -0.3857 C.ar    
  28 C28           -4.6890    -1.4271    -0.3587 C.ar    
  29 H29           -0.9718     1.9014    -0.3158 H       
  30 H30            1.2390    -1.7733    -0.2076 H       
  31 H31            3.2868     1.9952    -0.2014 H       
  32 H32            1.1311     3.1707    -0.2724 H       
  33 H33            6.6465    -1.1453     0.8221 H       
  34 H34            6.6931    -1.1677    -0.9701 H       
  35 H35            5.2089     0.5932    -1.0373 H       
  36 H36            5.1565     0.6198     0.7539 H       
  37 H37            6.0765    -6.2983    -0.2445 H       
  38 H38            2.9446    -3.4330     0.3689 H       
  39 H39            2.0629    -7.6081     0.3458 H       
  40 H40            4.4355    -8.1194    -0.0545 H       
  41 H41           -2.5025    -4.0249    -0.2763 H       
  42 H42           -4.6161    -5.2816    -0.3148 H       
  43 H43           -6.7638    -4.0846    -0.3848 H       
  44 H44           -6.8132    -1.6254    -0.4165 H       
  45 H45           -4.7125    -0.3474    -0.3727 H       
@<TRIPOS>BOND
   1    1    2 ar
   2    1    6 ar
   3    1   29 1
   4    2    3 ar
   5    2   21 1
   6    3    4 ar
   7    3   30 1
   8    4    5 ar
   9    4    7 1
  10    5    6 ar
  11    5   31 1
  12    6   32 1
  13    7    8 2
  14    7   11 1
  15    8    9 1
  16    9   10 1
  17    9   12 am
  18   10   11 1
  19   10   33 1
  20   10   34 1
  21   11   35 1
  22   11   36 1
  23   12   13 2
  24   12   14 1
  25   14   15 ar
  26   14   16 ar
  27   15   19 ar
  28   15   37 1
  29   16   17 ar
  30   16   38 1
  31   17   18 ar
  32   17   20 1
  33   18   19 ar
  34   18   39 1
  35   19   40 1
  36   21   22 3
  37   22   23 1
  38   23   24 ar
  39   23   28 ar
  40   24   25 ar
  41   24   41 1
  42   25   26 ar
  43   25   42 1
  44   26   27 ar
  45   26   43 1
  46   27   28 ar
  47   27   44 1
  48   28   45 1

#	End of record

