#	Name: ASD03240627
#	Creating user name:	WinNT
#	Creation time:	15. 06. 2019 20:35

#	Modifying user name:	WinNT
#	Modification time:	15. 06. 2019 20:35

#	Program:	/corina/corina34_cracker 3.40 0067  02.08.2006

@<TRIPOS>MOLECULE
ASD03240627
  65   72    0    0    0
SMALL
NO_CHARGES


@<TRIPOS>ATOM
   1 C1            -0.0166     1.3755     0.0096 C.ar    
   2 C2             0.0021    -0.0041     0.0020 C.ar    
   3 N3             1.1422    -0.6683    -0.0054 N.ar    
   4 C4             2.3145    -0.0481    -0.0053 C.ar    
   5 C5             2.3702     1.3442    -0.0124 C.ar    
   6 C6             1.1860     2.0698     0.0018 C.ar    
   7 N7             3.4820    -0.8058     0.0229 N.pl3   
   8 C8             4.3589    -0.7191     1.1007 C.ar    
   9 C9             4.9948     0.4893     1.4046 C.ar    
  10 C10            4.7636     1.6836     0.5625 C.2     
  11 N11            3.5938     2.0276    -0.0512 N.pl3   
  12 C12            4.6046    -1.8387     1.8845 C.ar    
  13 C13            5.4641    -1.7531     2.9631 C.ar    
  14 C14            6.0853    -0.5551     3.2714 C.ar    
  15 C15            5.8554     0.5659     2.4994 C.ar    
  16 N16            5.6751     2.5939     0.2857 N.2     
  17 C17            5.1449     3.5396    -0.5056 C.2     
  18 C18            3.8222     3.2031    -0.7369 C.2     
  19 C19            2.8493     3.9526    -1.5549 C.ar    
  20 C20            2.7499     5.3406    -1.4310 C.ar    
  21 C21            2.0272     3.2782    -2.4611 C.ar    
  22 C22            1.1201     3.9853    -3.2224 C.ar    
  23 C23            1.0235     5.3594    -3.0906 C.ar    
  24 C24            1.8383     6.0347    -2.1988 C.ar    
  25 C25            5.8487     4.7290    -1.0363 C.ar    
  26 C26            0.0306     6.1250    -3.9267 C.3     
  27 C27            6.8095     5.3581    -0.2644 C.ar    
  28 N28           -1.0279     5.2702    -4.4805 N.3     
  29 C29           -0.4991     7.3968    -3.2435 C.3     
  30 C30           -0.4029     8.0804    -4.6176 C.3     
  31 C31            0.6846     7.0505    -4.9662 C.3     
  32 C32            7.4748     6.4855    -0.7705 C.ar    
  33 C33            7.1478     6.9583    -2.0668 C.ar    
  34 C34            6.1666     6.2981    -2.8272 C.ar    
  35 C35            5.5388     5.2054    -2.3219 C.ar    
  36 N36            8.4078     7.1152    -0.0479 N.ar    
  37 C37            9.0339     8.1693    -0.5129 C.ar    
  38 C38            8.7605     8.6845    -1.7773 C.ar    
  39 C39            7.8183     8.0885    -2.5681 C.ar    
  40 H40           -0.9556     1.9091     0.0170 H       
  41 H41           -0.9306    -0.5486     0.0025 H       
  42 H42            1.2002     3.1497     0.0061 H       
  43 H43            3.6864    -1.4004    -0.7157 H       
  44 H44            4.1234    -2.7769     1.6511 H       
  45 H45            5.6526    -2.6267     3.5694 H       
  46 H46            6.7516    -0.4971     4.1193 H       
  47 H47            6.3409     1.4995     2.7423 H       
  48 H48            3.3851     5.8689    -0.7354 H       
  49 H49            2.1021     2.2059    -2.5656 H       
  50 H50            0.4840     3.4653    -3.9234 H       
  51 H51            1.7572     7.1071    -2.1008 H       
  52 H52            7.0456     4.9844     0.7210 H       
  53 H53           -0.6364     4.4617    -4.9401 H       
  54 H54           -1.6837     4.9966    -3.7641 H       
  55 H55           -1.5200     7.3010    -2.8739 H       
  56 H56            0.1837     7.8104    -2.5013 H       
  57 H57           -1.3068     7.9814    -5.2188 H       
  58 H58           -0.0347     9.1052    -4.5707 H       
  59 H59            1.6910     7.3694    -4.6950 H       
  60 H60            0.6192     6.6751    -5.9874 H       
  61 H61            5.9163     6.6568    -3.8146 H       
  62 H62            4.7859     4.7023    -2.9106 H       
  63 H63            9.7809     8.6506     0.1008 H       
  64 H64            9.2928     9.5543    -2.1330 H       
  65 H65            7.5945     8.4753    -3.5513 H       
@<TRIPOS>BOND
   1    1    2 ar
   2    1    6 ar
   3    1   40 1
   4    2    3 ar
   5    2   41 1
   6    3    4 ar
   7    4    5 ar
   8    4    7 1
   9    5    6 ar
  10    5   11 1
  11    6   42 1
  12    7    8 1
  13    7   43 1
  14    8    9 ar
  15    8   12 ar
  16    9   10 1
  17    9   15 ar
  18   10   11 1
  19   10   16 2
  20   11   18 1
  21   12   13 ar
  22   12   44 1
  23   13   14 ar
  24   13   45 1
  25   14   15 ar
  26   14   46 1
  27   15   47 1
  28   16   17 1
  29   17   18 2
  30   17   25 1
  31   18   19 1
  32   19   20 ar
  33   19   21 ar
  34   20   24 ar
  35   20   48 1
  36   21   22 ar
  37   21   49 1
  38   22   23 ar
  39   22   50 1
  40   23   24 ar
  41   23   26 1
  42   24   51 1
  43   25   27 ar
  44   25   35 ar
  45   26   29 1
  46   26   28 1
  47   26   31 1
  48   27   32 ar
  49   27   52 1
  50   28   53 1
  51   28   54 1
  52   29   30 1
  53   29   55 1
  54   29   56 1
  55   30   31 1
  56   30   57 1
  57   30   58 1
  58   31   59 1
  59   31   60 1
  60   32   33 ar
  61   32   36 ar
  62   33   34 ar
  63   33   39 ar
  64   34   35 ar
  65   34   61 1
  66   35   62 1
  67   36   37 ar
  68   37   38 ar
  69   37   63 1
  70   38   39 ar
  71   38   64 1
  72   39   65 1

#	End of record

