#	Name: ASD02038935
#	Creating user name:	WinNT
#	Creation time:	15. 06. 2019 20:17

#	Modifying user name:	WinNT
#	Modification time:	15. 06. 2019 20:17

#	Program:	/corina/corina34_cracker 3.40 0067  02.08.2006

@<TRIPOS>MOLECULE
ASD02038935
  48   51    0    0    0
SMALL
NO_CHARGES


@<TRIPOS>ATOM
   1 C1            -0.0184     1.5028     0.0103 C.3     
   2 C2             0.0021    -0.0041     0.0020 C.ar    
   3 N3             1.6237     3.3527     0.0046 N.am    
   4 C4             1.3954     2.0244    -0.0004 C.2     
   5 C5             1.9505     5.2952    -0.6883 C.3     
   6 C6             2.1956     6.7182    -0.1824 C.3     
   7 O7             3.2078     7.3387    -0.9776 O.3     
   8 C8             3.5475     8.6159    -0.6579 C.ar    
   9 C9             4.5229     9.2776    -1.3893 C.ar    
  10 C10            2.9143     9.2586     0.3961 C.ar    
  11 C11            3.2577    10.5559     0.7209 C.ar    
  12 C12            4.2378    11.2170    -0.0073 C.ar    
  13 C13            4.8677    10.5746    -1.0648 C.ar    
  14 N14            4.5892    12.5326     0.3194 N.am    
  15 C15            5.2412    13.3047    -0.5690 C.2     
  16 C16            5.5893    12.7795    -1.9357 C.3     
  17 C17            5.9315    11.2942    -1.8526 C.3     
  18 O18            2.3278     1.2489    -0.0135 O.2     
  19 O19            5.5515    14.4372    -0.2650 O.2     
  20 C20            2.8088     4.2235    -0.0021 C.3     
  21 C21            0.7973     4.5691     0.0124 C.3     
  22 C22            0.0058    -0.6882    -1.1992 C.ar    
  23 C23            0.0229    -0.7010     1.1955 C.ar    
  24 C24            0.0421    -2.0835     1.1899 C.ar    
  25 C25            0.0405    -2.7704    -0.0101 C.ar    
  26 C26            0.0250    -2.0720    -1.2071 C.ar    
  27 F27            0.0235    -2.7415    -2.3806 F       
  28 Cl28           0.0647    -4.5062    -0.0175 Cl      
  29 H29           -0.5455     1.8639    -0.8728 H       
  30 H30           -0.5286     1.8543     0.9071 H       
  31 H31            1.9297     5.2221    -1.7757 H       
  32 H32            1.2728     7.2936    -0.2551 H       
  33 H33            2.5210     6.6832     0.8573 H       
  34 H34            5.0128     8.7783    -2.2121 H       
  35 H35            2.1521     8.7441     0.9624 H       
  36 H36            2.7640    11.0563     1.5408 H       
  37 H37            4.3607    12.8897     1.1919 H       
  38 H38            4.7384    12.9153    -2.6033 H       
  39 H39            6.4459    13.3283    -2.3271 H       
  40 H40            6.8944    11.1706    -1.3570 H       
  41 H41            5.9846    10.8770    -2.8582 H       
  42 H42            3.1436     4.5086     0.9953 H       
  43 H43            3.6188     3.8495    -0.6283 H       
  44 H44           -0.0998     4.4884    -0.6016 H       
  45 H45            0.5908     4.9472     1.0137 H       
  46 H46           -0.0067    -0.1428    -2.1314 H       
  47 H47            0.0245    -0.1652     2.1332 H       
  48 H48            0.0587    -2.6269     2.1231 H       
@<TRIPOS>BOND
   1    1    2 1
   2    1    4 1
   3    1   29 1
   4    1   30 1
   5    2   23 ar
   6    2   22 ar
   7    3    4 am
   8    3   20 1
   9    3   21 1
  10    4   18 2
  11    5    6 1
  12    5   21 1
  13    5   20 1
  14    5   31 1
  15    6    7 1
  16    6   32 1
  17    6   33 1
  18    7    8 1
  19    8    9 ar
  20    8   10 ar
  21    9   13 ar
  22    9   34 1
  23   10   11 ar
  24   10   35 1
  25   11   12 ar
  26   11   36 1
  27   12   13 ar
  28   12   14 1
  29   13   17 1
  30   14   15 am
  31   14   37 1
  32   15   16 1
  33   15   19 2
  34   16   17 1
  35   16   38 1
  36   16   39 1
  37   17   40 1
  38   17   41 1
  39   20   42 1
  40   20   43 1
  41   21   44 1
  42   21   45 1
  43   22   26 ar
  44   22   46 1
  45   23   24 ar
  46   23   47 1
  47   24   25 ar
  48   24   48 1
  49   25   26 ar
  50   25   28 1
  51   26   27 1

#	End of record

