#	Name: ASD02039209
#	Creating user name:	WinNT
#	Creation time:	15. 06. 2019 20:17

#	Modifying user name:	WinNT
#	Modification time:	15. 06. 2019 20:17

#	Program:	/corina/corina34_cracker 3.40 0067  02.08.2006

@<TRIPOS>MOLECULE
ASD02039209
  37   39    0    0    0
SMALL
NO_CHARGES


@<TRIPOS>ATOM
   1 N1            -0.0010     1.2806     0.2549 N.2     
   2 C2             0.0074    -0.0198     0.1287 C.2     
   3 N3             1.2988    -0.4140     0.1373 N.2     
   4 C4             2.0014     0.6841     0.2697 C.2     
   5 O5             1.1344     1.6992     0.3369 O.3     
   6 C6             3.5037     0.7838     0.3345 C.3     
   7 N7            -1.1049    -0.8433     0.0085 N.pl3   
   8 C8            -2.3915    -0.3042     0.1293 C.ar    
   9 C9            -3.4565    -0.8915    -0.5409 C.ar    
  10 C10           -4.7251    -0.3591    -0.4213 C.ar    
  11 C11           -4.9356     0.7621     0.3678 C.ar    
  12 C12           -3.8723     1.3493     1.0376 C.ar    
  13 C13           -2.6041     0.8145     0.9239 C.ar    
  14 O14           -6.1850     1.2863     0.4844 O.3     
  15 C15            4.0563     0.9542    -1.0572 C.ar    
  16 C16            4.3878    -0.1578    -1.8091 C.ar    
  17 C17            4.2256     2.2221    -1.5820 C.ar    
  18 C18            4.7316     2.3810    -2.8576 C.ar    
  19 C19            5.0703     1.2670    -3.6120 C.ar    
  20 C20            4.8946    -0.0042    -3.0850 C.ar    
  21 O21            5.5678     1.4207    -4.8672 O.3     
  22 C22           -6.3292     2.4414     1.3132 C.3     
  23 F23           -5.5324     3.4768     0.8128 F       
  24 F24           -7.6685     2.8457     1.3208 F       
  25 F25           -5.9279     2.1327     2.6173 F       
  26 H26            3.7849     1.6420     0.9447 H       
  27 H27            3.9093    -0.1257     0.7776 H       
  28 H28           -0.9902    -1.7918    -0.1591 H       
  29 H29           -3.2927    -1.7640    -1.1559 H       
  30 H30           -5.5536    -0.8157    -0.9425 H       
  31 H31           -4.0370     2.2223     1.6518 H       
  32 H32           -1.7764     1.2716     1.4458 H       
  33 H33            4.2508    -1.1472    -1.3984 H       
  34 H34            3.9618     3.0890    -0.9944 H       
  35 H35            4.8630     3.3716    -3.2674 H       
  36 H36            5.1579    -0.8730    -3.6701 H       
  37 H37            6.5315     1.4922    -4.9023 H       
@<TRIPOS>BOND
   1    1    2 2
   2    1    5 1
   3    2    3 1
   4    2    7 1
   5    3    4 2
   6    4    5 1
   7    4    6 1
   8    6   15 1
   9    6   26 1
  10    6   27 1
  11    7    8 1
  12    7   28 1
  13    8    9 ar
  14    8   13 ar
  15    9   10 ar
  16    9   29 1
  17   10   11 ar
  18   10   30 1
  19   11   12 ar
  20   11   14 1
  21   12   13 ar
  22   12   31 1
  23   13   32 1
  24   14   22 1
  25   15   17 ar
  26   15   16 ar
  27   16   20 ar
  28   16   33 1
  29   17   18 ar
  30   17   34 1
  31   18   19 ar
  32   18   35 1
  33   19   20 ar
  34   19   21 1
  35   20   36 1
  36   21   37 1
  37   22   23 1
  38   22   24 1
  39   22   25 1

#	End of record

