#	Name: ASD01915549
#	Creating user name:	WinNT
#	Creation time:	15. 06. 2019 20:05

#	Modifying user name:	WinNT
#	Modification time:	15. 06. 2019 20:05

#	Program:	/corina/corina34_cracker 3.40 0067  02.08.2006

@<TRIPOS>MOLECULE
ASD01915549
  45   48    0    0    0
SMALL
NO_CHARGES


@<TRIPOS>ATOM
   1 C1            -0.0042     1.4685     0.2349 C.2     
   2 N2             0.0662     0.1191    -0.0301 N.pl3   
   3 C3            -1.1429    -0.6637    -0.3130 C.3     
   4 C4            -2.3280    -0.0486     0.4295 C.3     
   5 N5            -2.4045     1.3988     0.2637 N.am    
   6 C6            -1.2935     2.1742     0.2863 C.2     
   7 C7             1.2763     1.9058     0.4259 C.2     
   8 C8             2.0758     0.7649     0.2737 C.2     
   9 N9             1.2864    -0.2504     0.0108 N.2     
  10 C10            3.5773     0.7129     0.3911 C.3     
  11 O11            4.0776     2.0187     0.6855 O.3     
  12 C12            5.4234     2.1469     0.8245 C.ar    
  13 O13           -1.3590     3.3874     0.3462 O.2     
  14 C14            5.9774     3.3862     1.1106 C.ar    
  15 C15            6.2451     1.0377     0.6861 C.ar    
  16 C16            7.6128     1.1707     0.8278 C.ar    
  17 C17            8.1629     2.4080     1.1073 C.ar    
  18 C18            7.3457     3.5140     1.2514 C.ar    
  19 C19           -3.6549     2.0006     0.0769 C.ar    
  20 C20           -4.5857     2.0027     1.1074 C.ar    
  21 C21           -5.8186     2.5964     0.9224 C.ar    
  22 C22           -6.1276     3.1902    -0.2926 C.ar    
  23 C23           -5.1982     3.1885    -1.3226 C.ar    
  24 C24           -3.9626     2.6007    -1.1370 C.ar    
  25 O25           -7.3422     3.7739    -0.4743 O.3     
  26 C26           -7.5929     4.3662    -1.7504 C.3     
  27 H27           -1.3403    -0.6537    -1.3849 H       
  28 H28           -0.9977    -1.6910     0.0212 H       
  29 H29           -3.2488    -0.4952     0.0543 H       
  30 H30           -2.2354    -0.2771     1.4912 H       
  31 H31            1.6014     2.9118     0.6464 H       
  32 H32            3.8556     0.0281     1.1921 H       
  33 H33            4.0035     0.3641    -0.5496 H       
  34 H34            5.3395     4.2505     1.2229 H       
  35 H35            5.8158     0.0710     0.4681 H       
  36 H36            8.2528     0.3074     0.7204 H       
  37 H37            9.2324     2.5099     1.2177 H       
  38 H38            7.7779     4.4794     1.4694 H       
  39 H39           -4.3456     1.5398     2.0532 H       
  40 H40           -6.5427     2.5981     1.7237 H       
  41 H41           -5.4395     3.6510    -2.2682 H       
  42 H42           -3.2391     2.5997    -1.9388 H       
  43 H43           -6.8600     5.1512    -1.9369 H       
  44 H44           -7.5150     3.6046    -2.5262 H       
  45 H45           -8.5951     4.7949    -1.7614 H       
@<TRIPOS>BOND
   1    1    2 1
   2    1    7 2
   3    1    6 1
   4    2    3 1
   5    2    9 1
   6    3    4 1
   7    3   27 1
   8    3   28 1
   9    4    5 1
  10    4   29 1
  11    4   30 1
  12    5    6 am
  13    5   19 1
  14    6   13 2
  15    7    8 1
  16    7   31 1
  17    8    9 2
  18    8   10 1
  19   10   11 1
  20   10   32 1
  21   10   33 1
  22   11   12 1
  23   12   14 ar
  24   12   15 ar
  25   14   18 ar
  26   14   34 1
  27   15   16 ar
  28   15   35 1
  29   16   17 ar
  30   16   36 1
  31   17   18 ar
  32   17   37 1
  33   18   38 1
  34   19   20 ar
  35   19   24 ar
  36   20   21 ar
  37   20   39 1
  38   21   22 ar
  39   21   40 1
  40   22   23 ar
  41   22   25 1
  42   23   24 ar
  43   23   41 1
  44   24   42 1
  45   25   26 1
  46   26   43 1
  47   26   44 1
  48   26   45 1

#	End of record

