#	Name: ASD00842265
#	Creating user name:	WinNT
#	Creation time:	15. 06. 2019 18:44

#	Modifying user name:	WinNT
#	Modification time:	15. 06. 2019 18:44

#	Program:	/corina/corina34_cracker 3.40 0067  02.08.2006

@<TRIPOS>MOLECULE
ASD00842265
  88   93    0    0    0
SMALL
NO_CHARGES


@<TRIPOS>ATOM
   1 C1             0.9798     1.5573    -0.3591 C.ar    
   2 C2             1.2942     0.2308    -0.6150 C.ar    
   3 C3             1.2385    -0.7031     0.4096 C.ar    
   4 C4             0.8703    -0.3100     1.6815 C.ar    
   5 C5             0.5569     1.0130     1.9340 C.ar    
   6 C6             0.6120     1.9455     0.9150 C.ar    
   7 C7             1.5790    -2.1452     0.1349 C.3     
   8 C8             1.3248    -2.9933     1.3628 C.2     
   9 C9             0.7709    -2.6682    -1.0544 C.3     
  10 C10           -0.6982    -2.4510    -0.7978 C.2     
  11 N11           -1.6115    -2.9237    -1.6690 N.am    
  12 O12           -1.0586    -1.8510     0.1926 O.2     
  13 C13           -3.0390    -2.6235    -1.4935 C.3     
  14 C14           -3.8230    -3.9396    -1.4923 C.3     
  15 C15           -3.4976    -4.7238    -2.7656 C.3     
  16 C16           -2.0031    -5.0519    -2.7967 C.3     
  17 C17           -1.1978    -3.7438    -2.8158 C.3     
  18 N18           -4.2730    -5.9713    -2.7837 N.3     
  19 C19           -4.0767    -6.6951    -4.0475 C.3     
  20 C20           -4.8357    -8.0231    -3.9949 C.3     
  21 N21           -6.2620    -7.7601    -3.7581 N.3     
  22 C22           -6.4584    -7.0363    -2.4943 C.3     
  23 C23           -5.6993    -5.7083    -2.5469 C.3     
  24 C24           -7.0374    -9.0077    -3.7762 C.3     
  25 O25            0.2586    -3.1568     1.9173 O.2     
  26 N26            2.5022    -3.5314     1.7228 N.am    
  27 C27            3.0609    -2.3003    -0.1191 C.ar    
  28 C28            3.5414    -3.1447     0.8739 C.ar    
  29 C29            3.9044    -1.7863    -1.0783 C.ar    
  30 C30            5.7429    -2.9533    -0.0744 C.ar    
  31 C31            4.8962    -3.4685     0.8882 C.ar    
  32 F32            7.0557    -3.2715    -0.0551 F       
  33 C33            2.4532    -6.1853     2.4500 C.ar    
  34 C34            3.5266    -6.9195     1.9804 C.ar    
  35 C35            1.1887    -6.7440     2.4758 C.ar    
  36 C36            0.9948    -8.0378     2.0320 C.ar    
  37 C37            2.0701    -8.7766     1.5603 C.ar    
  38 C38            3.3378    -8.2135     1.5351 C.ar    
  39 O39            1.8820   -10.0497     1.1236 O.3     
  40 H40            4.5133    -6.4809     1.9613 H       
  41 C41            3.0344   -10.7506     0.6517 C.3     
  42 C42            5.2513    -2.1107    -1.0600 C.ar    
  43 F43            6.0825    -1.6086    -1.9992 F       
  44 O44            1.6557    -0.1535    -1.8674 O.3     
  45 C45            2.1194     0.2516    -4.2044 C.3     
  46 C46            1.5826     0.8357    -2.8961 C.3     
  47 S47            2.6984    -4.5374     3.0235 S.o2    
  48 O48            4.0651    -4.4432     3.4011 O.2     
  49 O49            1.6255    -4.2580     3.9123 O.2     
  50 H50            1.0266     2.2870    -1.1539 H       
  51 H51            0.8269    -1.0366     2.4794 H       
  52 H52            0.2685     1.3182     2.9291 H       
  53 H53            0.3668     2.9781     1.1147 H       
  54 H54            1.0651    -2.1329    -1.9571 H       
  55 H55            0.9635    -3.7331    -1.1844 H       
  56 H56           -3.1899    -2.1074    -0.5453 H       
  57 H57           -3.3835    -1.9937    -2.3136 H       
  58 H58           -3.5422    -4.5296    -0.6199 H       
  59 H59           -4.8915    -3.7265    -1.4593 H       
  60 H60           -3.7558    -4.1233    -3.6379 H       
  61 H61           -1.7394    -5.6314    -1.9120 H       
  62 H62           -1.7762    -5.6305    -3.6922 H       
  63 H63           -1.3934    -3.2078    -3.7446 H       
  64 H64           -0.1341    -3.9684    -2.7381 H       
  65 H65           -4.4542    -6.0930    -4.8739 H       
  66 H66           -3.0141    -6.8891    -4.1942 H       
  67 H67           -4.7152    -8.5486    -4.9423 H       
  68 H68           -4.4397    -8.6365    -3.1855 H       
  69 H69           -7.5209    -6.8423    -2.3476 H       
  70 H70           -6.0808    -7.6385    -1.6679 H       
  71 H71           -5.8198    -5.1828    -1.5996 H       
  72 H72           -6.0953    -5.0949    -3.3563 H       
  73 H73           -6.6708    -9.6747    -2.9960 H       
  74 H74           -8.0894    -8.7842    -3.5984 H       
  75 H75           -6.9275    -9.4897    -4.7476 H       
  76 H76            3.5165    -1.1313    -1.8444 H       
  77 H77            5.2855    -4.1239     1.6533 H       
  78 H78            0.3520    -6.1686     2.8434 H       
  79 H79            0.0070    -8.4739     2.0526 H       
  80 H80            4.1766    -8.7868     1.1687 H       
  81 H81            3.4668   -10.2125    -0.1919 H       
  82 H82            3.7700   -10.8215     1.4529 H       
  83 H83            2.7455   -11.7525     0.3340 H       
  84 H84            1.4690    -0.5583    -4.5347 H       
  85 H85            2.1454     1.0306    -4.9664 H       
  86 H86            3.1265    -0.1336    -4.0441 H       
  87 H87            0.5453     1.1412    -3.0332 H       
  88 H88            2.1816     1.7007    -2.6116 H       
@<TRIPOS>BOND
   1    1    2 ar
   2    1    6 ar
   3    1   50 1
   4    2    3 ar
   5    2   44 1
   6    3    4 ar
   7    3    7 1
   8    4    5 ar
   9    4   51 1
  10    5    6 ar
  11    5   52 1
  12    6   53 1
  13    7    8 1
  14    7    9 1
  15    7   27 1
  16    8   25 2
  17    8   26 am
  18    9   10 1
  19    9   54 1
  20    9   55 1
  21   10   11 am
  22   10   12 2
  23   11   13 1
  24   11   17 1
  25   13   14 1
  26   13   56 1
  27   13   57 1
  28   14   15 1
  29   14   58 1
  30   14   59 1
  31   15   16 1
  32   15   18 1
  33   15   60 1
  34   16   17 1
  35   16   61 1
  36   16   62 1
  37   17   63 1
  38   17   64 1
  39   18   19 1
  40   18   23 1
  41   19   20 1
  42   19   65 1
  43   19   66 1
  44   20   21 1
  45   20   67 1
  46   20   68 1
  47   21   22 1
  48   21   24 1
  49   22   23 1
  50   22   69 1
  51   22   70 1
  52   23   71 1
  53   23   72 1
  54   24   73 1
  55   24   74 1
  56   24   75 1
  57   26   47 am
  58   26   28 1
  59   27   28 ar
  60   27   29 ar
  61   28   31 ar
  62   29   42 ar
  63   29   76 1
  64   30   31 ar
  65   30   32 1
  66   30   42 ar
  67   31   77 1
  68   33   34 ar
  69   33   35 ar
  70   33   47 1
  71   34   40 1
  72   34   38 ar
  73   35   36 ar
  74   35   78 1
  75   36   37 ar
  76   36   79 1
  77   37   38 ar
  78   37   39 1
  79   38   80 1
  80   39   41 1
  81   41   81 1
  82   41   82 1
  83   41   83 1
  84   42   43 1
  85   44   46 1
  86   45   46 1
  87   45   84 1
  88   45   85 1
  89   45   86 1
  90   46   87 1
  91   46   88 1
  92   47   48 2
  93   47   49 2

#	End of record

