#	Name: ASD04590687
#	Creating user name:	WinNT
#	Creation time:	15. 06. 2019 20:51

#	Modifying user name:	WinNT
#	Modification time:	15. 06. 2019 20:51

#	Program:	/corina/corina34_cracker 3.40 0067  02.08.2006

@<TRIPOS>MOLECULE
ASD04590687
  60   65    0    0    0
SMALL
NO_CHARGES


@<TRIPOS>ATOM
   1 N1            -0.0893     1.5532    -0.7376 N.ar    
   2 C2            -0.1363     0.2344    -0.8710 C.ar    
   3 N3             0.9441    -0.5248    -0.7862 N.ar    
   4 C4             2.1358     0.0189    -0.5608 C.ar    
   5 C5             2.2188     1.4172    -0.4150 C.ar    
   6 C6             1.0574     2.1745    -0.5113 C.ar    
   7 N7             3.4019    -0.4979    -0.4259 N.pl3   
   8 C8             4.3107     0.4999    -0.1982 C.2     
   9 C9             3.6399     1.7198    -0.1792 C.2     
  10 N10           -1.3615    -0.3705    -1.1071 N.pl3   
  11 C11           -2.5302     0.3905    -1.0874 C.ar    
  12 C12            3.7335    -1.9222    -0.5133 C.3     
  13 C13            2.4448    -2.7616    -0.5596 C.3     
  14 N14            5.6640     0.4726    -0.0042 N.am    
  15 C15            6.3540     1.6080     0.2048 C.2     
  16 C16            5.7031     2.8504     0.2293 C.2     
  17 C17            4.3537     2.9099     0.0380 C.2     
  18 C18            2.4662    -3.5285    -1.8979 C.3     
  19 C19            3.9673    -3.5943    -2.2740 C.3     
  20 C20            4.4932    -2.2083    -1.8251 C.3     
  21 N21           -2.4749     1.6650    -0.7359 N.ar    
  22 C22           -3.5548     2.4226    -0.7030 C.ar    
  23 C23           -4.7960     1.9031    -1.0385 C.ar    
  24 C24           -4.8933     0.5640    -1.4139 C.ar    
  25 C25           -3.7393    -0.1975    -1.4426 C.ar    
  26 N26           -5.9372     2.7131    -1.0002 N.3     
  27 O27            7.5615     1.5568     0.3757 O.2     
  28 C28            6.3715    -0.8101    -0.0238 C.3     
  29 C29           -7.1107     1.9510    -0.5352 C.3     
  30 C30           -7.6738     2.6867     0.6990 C.3     
  31 C31           -7.1325     4.1299     0.5227 C.3     
  32 C32           -5.7377     3.8672    -0.0980 C.3     
  33 O33           -7.0151     4.7902     1.7846 O.3     
  34 H34            1.0899     3.2487    -0.4042 H       
  35 H35           -1.4058    -1.3228    -1.2861 H       
  36 H36            4.3407    -2.2171     0.3426 H       
  37 H37            2.4269    -3.4645     0.2733 H       
  38 H38            1.5725    -2.1092    -0.5170 H       
  39 H39            6.2675     3.7555     0.3987 H       
  40 H40            3.8404     3.8600     0.0545 H       
  41 H41            2.0609    -4.5321    -1.7690 H       
  42 H42            1.9059    -2.9846    -2.6583 H       
  43 H43            4.4679    -4.3932    -1.7269 H       
  44 H44            4.0908    -3.7247    -3.3491 H       
  45 H45            4.2602    -1.4511    -2.5738 H       
  46 H46            5.5671    -2.2484    -1.6431 H       
  47 H47           -3.4711     3.4591    -0.4110 H       
  48 H48           -5.8469     0.1326    -1.6804 H       
  49 H49           -3.7780    -1.2382    -1.7288 H       
  50 H50            6.6053    -1.0804    -1.0536 H       
  51 H51            7.2955    -0.7242     0.5480 H       
  52 H52            5.7401    -1.5801     0.4195 H       
  53 H53           -7.8647     1.9150    -1.3214 H       
  54 H54           -6.8108     0.9401    -0.2594 H       
  55 H55           -8.7637     2.6799     0.6876 H       
  56 H56           -7.2941     2.2423     1.6190 H       
  57 H57           -7.7616     4.7024    -0.1588 H       
  58 H58           -5.0163     3.6199     0.6808 H       
  59 H59           -5.4039     4.7374    -0.6632 H       
  60 H60           -7.8536     4.8900     2.2557 H       
@<TRIPOS>BOND
   1    1    2 ar
   2    1    6 ar
   3    2    3 ar
   4    2   10 1
   5    3    4 ar
   6    4    5 ar
   7    4    7 1
   8    5    6 ar
   9    5    9 1
  10    6   34 1
  11    7    8 1
  12    7   12 1
  13    8    9 2
  14    8   14 1
  15    9   17 1
  16   10   11 1
  17   10   35 1
  18   11   21 ar
  19   11   25 ar
  20   12   13 1
  21   12   20 1
  22   12   36 1
  23   13   18 1
  24   13   37 1
  25   13   38 1
  26   14   15 am
  27   14   28 1
  28   15   16 1
  29   15   27 2
  30   16   17 2
  31   16   39 1
  32   17   40 1
  33   18   19 1
  34   18   41 1
  35   18   42 1
  36   19   20 1
  37   19   43 1
  38   19   44 1
  39   20   45 1
  40   20   46 1
  41   21   22 ar
  42   22   23 ar
  43   22   47 1
  44   23   24 ar
  45   23   26 1
  46   24   25 ar
  47   24   48 1
  48   25   49 1
  49   26   29 1
  50   26   32 1
  51   28   50 1
  52   28   51 1
  53   28   52 1
  54   29   30 1
  55   29   53 1
  56   29   54 1
  57   30   31 1
  58   30   55 1
  59   30   56 1
  60   31   32 1
  61   31   33 1
  62   31   57 1
  63   32   58 1
  64   32   59 1
  65   33   60 1

#	End of record

