#	Name: ASD05123002
#	Creating user name:	WinNT
#	Creation time:	15. 06. 2019 20:56

#	Modifying user name:	WinNT
#	Modification time:	15. 06. 2019 20:56

#	Program:	/corina/corina34_cracker 3.40 0067  02.08.2006

@<TRIPOS>MOLECULE
ASD05123002
  34   35    0    0    0
SMALL
NO_CHARGES


@<TRIPOS>ATOM
   1 C1            -0.0169     1.3965     0.0097 C.2     
   2 C2             0.0021    -0.0041     0.0020 C.2     
   3 C3             1.2011    -0.6577    -0.0129 C.2     
   4 C4             2.3857     0.0867    -0.0202 C.2     
   5 N5             2.3415     1.4508    -0.0125 N.pl3   
   6 C6             1.1416     2.0946     0.0024 C.2     
   7 C7             3.7500    -0.2790    -0.0352 C.2     
   8 C8             4.4907     0.9203    -0.0358 C.2     
   9 N9             3.6583     1.9264    -0.0225 N.2     
  10 C10            5.9941     1.0243    -0.0486 C.3     
  11 C11            6.4421     1.7852    -1.2981 C.3     
  12 C12            6.4642     1.7728     1.2002 C.3     
  13 C13            4.2710    -1.5916    -0.0472 C.2     
  14 C14            3.3360    -2.7734    -0.0451 C.3     
  15 N15            4.0779    -3.9855    -0.4171 N.3     
  16 C16            2.7395    -2.9494     1.3528 C.3     
  17 O17            5.4728    -1.7680    -0.0591 O.2     
  18 H18           -0.9608     1.9213     0.0170 H       
  19 H19           -0.9227    -0.5618     0.0082 H       
  20 H20            1.2346    -1.7371    -0.0187 H       
  21 H21            1.1148     3.1742     0.0081 H       
  22 H22            6.4273     0.0241    -0.0574 H       
  23 H23            7.5294     1.8603    -1.3074 H       
  24 H24            6.1071     1.2519    -2.1878 H       
  25 H25            6.0088     2.7853    -1.2893 H       
  26 H26            6.1450     1.2308     2.0904 H       
  27 H27            7.5515     1.8480     1.1910 H       
  28 H28            6.0309     2.7730     1.2090 H       
  29 H29            2.5340    -2.6035    -0.7636 H       
  30 H30            4.4274    -3.9201    -1.3614 H       
  31 H31            4.8274    -4.1648     0.2342 H       
  32 H32            2.1889    -2.0501     1.6287 H       
  33 H33            2.0631    -3.8042     1.3542 H       
  34 H34            3.5414    -3.1194     2.0712 H       
@<TRIPOS>BOND
   1    1    2 1
   2    1    6 2
   3    1   18 1
   4    2    3 2
   5    2   19 1
   6    3    4 1
   7    3   20 1
   8    4    5 1
   9    4    7 2
  10    5    6 1
  11    5    9 1
  12    6   21 1
  13    7    8 1
  14    7   13 1
  15    8    9 2
  16    8   10 1
  17   10   11 1
  18   10   12 1
  19   10   22 1
  20   11   23 1
  21   11   24 1
  22   11   25 1
  23   12   26 1
  24   12   27 1
  25   12   28 1
  26   13   14 1
  27   13   17 2
  28   14   15 1
  29   14   16 1
  30   14   29 1
  31   15   30 1
  32   15   31 1
  33   16   32 1
  34   16   33 1
  35   16   34 1

#	End of record

