#	Name: ASD01030031
#	Creating user name:	WinNT
#	Creation time:	15. 06. 2019 18:58

#	Modifying user name:	WinNT
#	Modification time:	15. 06. 2019 18:58

#	Program:	/corina/corina34_cracker 3.40 0067  02.08.2006

@<TRIPOS>MOLECULE
ASD01030031
  52   51    0    0    0
SMALL
NO_CHARGES


@<TRIPOS>ATOM
   1 P1            -1.0142     2.2750    -1.1488 P.3     
   2 O2            -1.4683     1.6178     0.0972 O.2     
   3 O3             0.5036     2.7803    -0.9667 O.3     
   4 O4            -3.8395     5.3778    -1.4534 O.3     
   5 O5            -1.0878     1.2250    -2.3670 O.3     
   6 O6            -1.9645     3.5348    -1.4680 O.3     
   7 P7            -3.5491     3.7972    -1.3563 P.3     
   8 O8            -4.0440     3.2834    -0.0596 O.2     
   9 O9            -4.3048     3.0378    -2.5582 O.3     
  10 C10            1.5701     1.9145    -0.5730 C.3     
  11 C11            2.8535     2.7008    -0.4972 C.2     
  12 C12            3.9505     2.2165    -1.0245 C.2     
  13 C13            3.9493     0.8375    -1.6325 C.3     
  14 C14            5.2137     3.0383    -1.0232 C.3     
  15 C15            6.0656     2.6620     0.1907 C.3     
  16 C16            7.3289     3.4838     0.1920 C.2     
  17 C17            7.6022     4.2630     1.2089 C.2     
  18 C18            6.5925     4.4431     2.3131 C.3     
  19 C19            8.9265     4.9794     1.2747 C.3     
  20 C20            8.7719     6.3904     0.7037 C.3     
  21 C21           10.0961     7.1068     0.7694 C.2     
  22 C22           10.6530     7.5558    -0.3280 C.2     
  23 C23           10.0405     7.2391    -1.6679 C.3     
  24 C24           11.9063     8.3892    -0.2504 C.3     
  25 H25           -4.7763     5.6099    -1.3933 H       
  26 H26           -0.8040     1.5882    -3.2170 H       
  27 H27           -4.0295     3.3249    -3.4396 H       
  28 H28            1.3483     1.4859     0.4043 H       
  29 H29            1.6772     1.1139    -1.3050 H       
  30 H30            2.8688     3.6636    -0.0081 H       
  31 H31            3.6805     0.9055    -2.6866 H       
  32 H32            4.9423     0.3981    -1.5383 H       
  33 H33            3.2242     0.2117    -1.1122 H       
  34 H34            5.7757     2.8422    -1.9363 H       
  35 H35            4.9585     4.0968    -0.9739 H       
  36 H36            5.5037     2.8581     1.1038 H       
  37 H37            6.3209     1.6034     0.1414 H       
  38 H38            8.0088     3.4303    -0.6454 H       
  39 H39            6.6825     3.6227     3.0251 H       
  40 H40            6.7766     5.3887     2.8231 H       
  41 H41            5.5881     4.4483     1.8896 H       
  42 H42            9.2550     5.0412     2.3121 H       
  43 H43            9.6658     4.4305     0.6915 H       
  44 H44            8.4433     6.3286    -0.3338 H       
  45 H45            8.0325     6.9394     1.2869 H       
  46 H46           10.5860     7.2499     1.7212 H       
  47 H47            9.2422     7.9504    -1.8797 H       
  48 H48           10.8044     7.3091    -2.4423 H       
  49 H49            9.6319     6.2288    -1.6510 H       
  50 H50           12.1974     8.5114     0.7929 H       
  51 H51           12.7081     7.8910    -0.7954 H       
  52 H52           11.7198     9.3678    -0.6926 H       
@<TRIPOS>BOND
   1    1    2 2
   2    1    3 1
   3    1    5 1
   4    1    6 1
   5    3   10 1
   6    4    7 1
   7    4   25 1
   8    5   26 1
   9    6    7 1
  10    7    8 2
  11    7    9 1
  12    9   27 1
  13   10   11 1
  14   10   28 1
  15   10   29 1
  16   11   12 2
  17   11   30 1
  18   12   13 1
  19   12   14 1
  20   13   31 1
  21   13   32 1
  22   13   33 1
  23   14   15 1
  24   14   34 1
  25   14   35 1
  26   15   16 1
  27   15   36 1
  28   15   37 1
  29   16   17 2
  30   16   38 1
  31   17   18 1
  32   17   19 1
  33   18   39 1
  34   18   40 1
  35   18   41 1
  36   19   20 1
  37   19   42 1
  38   19   43 1
  39   20   21 1
  40   20   44 1
  41   20   45 1
  42   21   22 2
  43   21   46 1
  44   22   23 1
  45   22   24 1
  46   23   47 1
  47   23   48 1
  48   23   49 1
  49   24   50 1
  50   24   51 1
  51   24   52 1

#	End of record

