#	Name: ASD03731410
#	Creating user name:	WinNT
#	Creation time:	15. 06. 2019 20:45

#	Modifying user name:	WinNT
#	Modification time:	15. 06. 2019 20:45

#	Program:	/corina/corina34_cracker 3.40 0067  02.08.2006

@<TRIPOS>MOLECULE
ASD03731410
  61   65    0    0    0
SMALL
NO_CHARGES


@<TRIPOS>ATOM
   1 O1            -4.7603     4.9291    -4.4724 O.3     
   2 C2            -5.5729     4.0327    -5.2529 C.3     
   3 O3            -4.7005     3.6226    -6.3222 O.3     
   4 C4            -3.4343     3.7263    -5.8212 C.ar    
   5 C5            -3.4715     4.5306    -4.6845 C.ar    
   6 C6            -2.2335     3.1899    -6.2500 C.ar    
   7 C7            -1.0569     3.4492    -5.5536 C.ar    
   8 C8            -1.1053     4.2608    -4.4243 C.ar    
   9 C9            -2.3021     4.7921    -3.9907 C.ar    
  10 O10            0.2123     3.0113    -5.7932 O.3     
  11 C11            0.3075     4.3750    -3.9175 C.3     
  12 C12            1.1463     3.8559    -5.0933 C.3     
  13 N13            1.0428     5.7639    -2.2578 N.am    
  14 C14            0.6681     5.7862    -3.5525 C.2     
  15 C15            0.5333     3.5717    -2.6711 C.ar    
  16 C16            0.3892     2.2380    -2.3599 C.ar    
  17 C17            0.6863     1.7878    -1.0859 C.ar    
  18 C18            1.1281     2.6803    -0.1262 C.ar    
  19 C19            1.2732     4.0173    -0.4328 C.ar    
  20 C20            0.9768     4.4794    -1.7128 C.ar    
  21 O21            0.6302     6.7559    -4.2801 O.2     
  22 C22            1.4702     6.9487    -1.5097 C.3     
  23 C23            0.2539     7.6012    -0.8496 C.3     
  24 C24            0.7002     8.8387    -0.0682 C.3     
  25 N25           -0.4751     9.5010     0.5130 N.3     
  26 C26           -0.8055     8.9304     1.8257 C.3     
  27 C27           -1.1297     7.4434     1.6684 C.3     
  28 C28            0.3881     9.0952     2.7686 C.3     
  29 C29           -0.2687    10.9525     0.6068 C.3     
  30 C30           -0.1652    11.5448    -0.8001 C.3     
  31 C31           -1.4495    11.5890     1.3426 C.3     
  32 H32           -5.8768     3.1730    -4.6556 H       
  33 H33           -6.4452     4.5529    -5.6486 H       
  34 H34           -2.2091     2.5654    -7.1308 H       
  35 H35           -2.3270     5.4140    -3.1081 H       
  36 H36            1.9983     3.2777    -4.7356 H       
  37 H37            1.4746     4.6790    -5.7279 H       
  38 H38            0.0436     1.5429    -3.1108 H       
  39 H39            0.5732     0.7420    -0.8412 H       
  40 H40            1.3603     2.3288     0.8682 H       
  41 H41            1.6180     4.7082     0.3224 H       
  42 H42            2.1862     6.6550    -0.7421 H       
  43 H43            1.9386     7.6591    -2.1908 H       
  44 H44           -0.4622     7.8950    -1.6171 H       
  45 H45           -0.2146     6.8909    -0.1684 H       
  46 H46            1.3799     8.5390     0.7295 H       
  47 H47            1.2106     9.5283    -0.7405 H       
  48 H48           -1.6702     9.4489     2.2400 H       
  49 H49           -0.2136     6.8924     1.4553 H       
  50 H50           -1.5728     7.0686     2.5910 H       
  51 H51           -1.8334     7.3099     0.8469 H       
  52 H52            0.7009    10.1393     2.7795 H       
  53 H53            0.1006     8.7915     3.7752 H       
  54 H54            1.2130     8.4724     2.4227 H       
  55 H55            0.6519    11.1539     1.1545 H       
  56 H56           -1.0858    11.3434    -1.3478 H       
  57 H57           -0.0120    12.6218    -0.7305 H       
  58 H58            0.6761    11.0913    -1.3242 H       
  59 H59           -1.4516    11.2581     2.3811 H       
  60 H60           -1.3571    12.6745     1.3073 H       
  61 H61           -2.3811    11.2879     0.8634 H       
@<TRIPOS>BOND
   1    1    2 1
   2    1    5 1
   3    2    3 1
   4    2   32 1
   5    2   33 1
   6    3    4 1
   7    4    5 ar
   8    4    6 ar
   9    5    9 ar
  10    6    7 ar
  11    6   34 1
  12    7    8 ar
  13    7   10 1
  14    8    9 ar
  15    8   11 1
  16    9   35 1
  17   10   12 1
  18   11   12 1
  19   11   14 1
  20   11   15 1
  21   12   36 1
  22   12   37 1
  23   13   14 am
  24   13   20 1
  25   13   22 1
  26   14   21 2
  27   15   16 ar
  28   15   20 ar
  29   16   17 ar
  30   16   38 1
  31   17   18 ar
  32   17   39 1
  33   18   19 ar
  34   18   40 1
  35   19   20 ar
  36   19   41 1
  37   22   23 1
  38   22   42 1
  39   22   43 1
  40   23   24 1
  41   23   44 1
  42   23   45 1
  43   24   25 1
  44   24   46 1
  45   24   47 1
  46   25   26 1
  47   25   29 1
  48   26   27 1
  49   26   28 1
  50   26   48 1
  51   27   49 1
  52   27   50 1
  53   27   51 1
  54   28   52 1
  55   28   53 1
  56   28   54 1
  57   29   30 1
  58   29   31 1
  59   29   55 1
  60   30   56 1
  61   30   57 1
  62   30   58 1
  63   31   59 1
  64   31   60 1
  65   31   61 1

#	End of record

