#	Name: ASD00840915
#	Creating user name:	WinNT
#	Creation time:	15. 06. 2019 18:40

#	Modifying user name:	WinNT
#	Modification time:	15. 06. 2019 18:40

#	Program:	/corina/corina34_cracker 3.40 0067  02.08.2006

@<TRIPOS>MOLECULE
ASD00840915
  87   92    0    0    0
SMALL
NO_CHARGES


@<TRIPOS>ATOM
   1 N1             1.0660     1.4648    -0.7404 N.ar    
   2 C2             1.3282     0.1734    -0.8531 C.ar    
   3 C3             1.2498    -0.6638     0.2528 C.ar    
   4 C4             0.8929    -0.1290     1.4781 C.ar    
   5 C5             0.6257     1.2312     1.5544 C.ar    
   6 C6             0.7233     2.0036     0.4144 C.ar    
   7 C7             1.5489    -2.1348     0.1196 C.3     
   8 C8             1.2683    -2.8531     1.4223 C.2     
   9 C9             0.7279    -2.7465    -1.0174 C.3     
  10 C10           -0.7342    -2.4587    -0.7925 C.2     
  11 N11           -1.6589    -2.9781    -1.6241 N.am    
  12 O12           -1.0787    -1.7597     0.1368 O.2     
  13 C13           -3.0766    -2.6176    -1.4861 C.3     
  14 C14           -3.9032    -3.9023    -1.3723 C.3     
  15 C15           -3.5985    -4.8078    -2.5678 C.3     
  16 C16           -2.1154    -5.1854    -2.5590 C.3     
  17 C17           -1.2677    -3.9108    -2.6898 C.3     
  18 N18           -4.4142    -6.0263    -2.4794 N.3     
  19 C19           -4.2365    -6.8667    -3.6717 C.3     
  20 C20           -5.0387    -8.1595    -3.5055 C.3     
  21 N21           -6.4566    -7.8305    -3.3031 N.3     
  22 C22           -6.6343    -6.9901    -2.1107 C.3     
  23 C23           -5.8321    -5.6973    -2.2770 C.3     
  24 C24           -7.2723    -9.0490    -3.2146 C.3     
  25 O25            0.1968    -2.9318     1.9852 O.2     
  26 N26            2.4290    -3.3875     1.8375 N.am    
  27 C27            3.0261    -2.3559    -0.1118 C.ar    
  28 C28            3.4804    -3.1142     0.9600 C.ar    
  29 C29            3.8856    -1.9611    -1.1123 C.ar    
  30 C30            5.6880    -3.0780     0.0074 C.ar    
  31 C31            4.8252    -3.4737     1.0113 C.ar    
  32 F32            6.9910    -3.4304     0.0630 F       
  33 C33            2.3021    -5.9565     2.8165 C.ar    
  34 C34            3.3546    -6.7630     2.4244 C.ar    
  35 C35            1.0220    -6.4738     2.8902 C.ar    
  36 C36            0.7915    -7.7982     2.5721 C.ar    
  37 C37            1.8458    -8.6094     2.1784 C.ar    
  38 C38            3.1292    -8.0879     2.1048 C.ar    
  39 O39            1.6217    -9.9128     1.8654 O.3     
  40 H40            4.3536    -6.3566     2.3676 H       
  41 C41            2.7541   -10.6885     1.4682 C.3     
  42 C42            5.2226    -2.3206    -1.0569 C.ar    
  43 F43            6.0695    -1.9352    -2.0363 F       
  44 S44            2.5939    -4.2688     3.2298 S.o2    
  45 O45            3.9621    -4.1777     3.6027 O.2     
  46 O46            1.5280    -3.8745     4.0829 O.2     
  47 O47            1.6765    -0.3387    -2.0602 O.3     
  48 C48            2.1653    -0.1678    -4.4208 C.3     
  49 C49            1.6314     0.5491    -3.1790 C.3     
  50 H50            0.8234    -0.7556     2.3550 H       
  51 H51            0.3442     1.6802     2.4954 H       
  52 H52            0.5168     3.0623     0.4684 H       
  53 H53            1.0418    -2.3123    -1.9666 H       
  54 H54            0.8866    -3.8246    -1.0409 H       
  55 H55           -3.2144    -2.0138    -0.5891 H       
  56 H56           -3.3970    -2.0532    -2.3618 H       
  57 H57           -3.6453    -4.4203    -0.4486 H       
  58 H58           -4.9642    -3.6528    -1.3660 H       
  59 H59           -3.8334    -4.2801    -3.4922 H       
  60 H60           -1.8743    -5.6912    -1.6241 H       
  61 H61           -1.9039    -5.8491    -3.3974 H       
  62 H62           -1.4419    -3.4545    -3.6642 H       
  63 H63           -0.2122    -4.1617    -2.5849 H       
  64 H64           -4.5908    -6.3295    -4.5514 H       
  65 H65           -3.1803    -7.1072    -3.7930 H       
  66 H66           -4.9317    -8.7716    -4.4010 H       
  67 H67           -4.6663    -8.7101    -2.6416 H       
  68 H68           -7.6905    -6.7496    -1.9894 H       
  69 H69           -6.2800    -7.5274    -1.2311 H       
  70 H70           -5.9391    -5.0852    -1.3814 H       
  71 H71           -6.2045    -5.1467    -3.1408 H       
  72 H72           -6.9308    -9.6547    -2.3752 H       
  73 H73           -8.3171    -8.7767    -3.0649 H       
  74 H74           -7.1743    -9.6197    -4.1381 H       
  75 H75            3.5180    -1.3720    -1.9395 H       
  76 H76            5.1941    -4.0633     1.8376 H       
  77 H77            0.2016    -5.8419     3.1971 H       
  78 H78           -0.2086    -8.2018     2.6303 H       
  79 H79            3.9517    -8.7175     1.7989 H       
  80 H80            3.2032   -10.2468     0.5787 H       
  81 H81            3.4860   -10.7030     2.2758 H       
  82 H82            2.4369   -11.7077     1.2471 H       
  83 H83            2.2128     0.5342    -5.2533 H       
  84 H84            3.1629    -0.5560    -4.2154 H       
  85 H85            1.5004    -0.9923    -4.6783 H       
  86 H86            0.6018     0.8610    -3.3541 H       
  87 H87            2.2464     1.4251    -2.9727 H       
@<TRIPOS>BOND
   1    1    2 ar
   2    1    6 ar
   3    2    3 ar
   4    2   47 1
   5    3    4 ar
   6    3    7 1
   7    4    5 ar
   8    4   50 1
   9    5    6 ar
  10    5   51 1
  11    6   52 1
  12    7    8 1
  13    7    9 1
  14    7   27 1
  15    8   25 2
  16    8   26 am
  17    9   10 1
  18    9   53 1
  19    9   54 1
  20   10   11 am
  21   10   12 2
  22   11   13 1
  23   11   17 1
  24   13   14 1
  25   13   55 1
  26   13   56 1
  27   14   15 1
  28   14   57 1
  29   14   58 1
  30   15   16 1
  31   15   18 1
  32   15   59 1
  33   16   17 1
  34   16   60 1
  35   16   61 1
  36   17   62 1
  37   17   63 1
  38   18   19 1
  39   18   23 1
  40   19   20 1
  41   19   64 1
  42   19   65 1
  43   20   21 1
  44   20   66 1
  45   20   67 1
  46   21   22 1
  47   21   24 1
  48   22   23 1
  49   22   68 1
  50   22   69 1
  51   23   70 1
  52   23   71 1
  53   24   72 1
  54   24   73 1
  55   24   74 1
  56   26   44 am
  57   26   28 1
  58   27   28 ar
  59   27   29 ar
  60   28   31 ar
  61   29   42 ar
  62   29   75 1
  63   30   31 ar
  64   30   32 1
  65   30   42 ar
  66   31   76 1
  67   33   34 ar
  68   33   35 ar
  69   33   44 1
  70   34   40 1
  71   34   38 ar
  72   35   36 ar
  73   35   77 1
  74   36   37 ar
  75   36   78 1
  76   37   38 ar
  77   37   39 1
  78   38   79 1
  79   39   41 1
  80   41   80 1
  81   41   81 1
  82   41   82 1
  83   42   43 1
  84   44   45 2
  85   44   46 2
  86   47   49 1
  87   48   49 1
  88   48   83 1
  89   48   84 1
  90   48   85 1
  91   49   86 1
  92   49   87 1

#	End of record

