#	Name: ASD01912083
#	Creating user name:	WinNT
#	Creation time:	15. 06. 2019 19:59

#	Modifying user name:	WinNT
#	Modification time:	15. 06. 2019 19:59

#	Program:	/corina/corina34_cracker 3.40 0067  02.08.2006

@<TRIPOS>MOLECULE
ASD01912083
  53   56    0    0    0
SMALL
NO_CHARGES


@<TRIPOS>ATOM
   1 N1            -0.0598     1.6613    -0.3037 N.am    
   2 C2            -0.1647     0.1986    -0.3996 C.3     
   3 C3            -0.9832    -0.3132     0.7923 C.3     
   4 N4            -2.2162     0.4805     0.8907 N.am    
   5 C5            -2.1112     1.9432     0.9865 C.3     
   6 C6            -1.2925     2.4546    -0.1997 C.3     
   7 C7            -0.9403     3.9277     0.0165 C.3     
   8 C8            -2.1036     2.3006    -1.4878 C.3     
   9 C9             1.1457     2.2641    -0.3055 C.2     
  10 C10            2.3803     1.4496    -0.2630 C.2     
  11 O11            1.2187     3.4768    -0.3421 O.2     
  12 N12            2.4630     0.1130    -0.3527 N.2     
  13 N13            3.7119    -0.1992    -0.2727 N.2     
  14 N14            4.4051     0.8769    -0.1379 N.pl3   
  15 N15            3.6163     1.8960    -0.1349 N.2     
  16 C16            5.8009     0.9322    -0.0193 C.ar    
  17 C17            6.5480    -0.2379    -0.0429 C.ar    
  18 C18            6.4395     2.1576     0.1165 C.ar    
  19 C19            7.8148     2.2089     0.2327 C.ar    
  20 C20            8.5558     1.0415     0.2136 C.ar    
  21 C21            7.9230    -0.1801     0.0737 C.ar    
  22 C22           -3.4216    -0.1223     0.8925 C.2     
  23 C23           -3.5105    -1.6011     0.8642 C.ar    
  24 O24           -4.4355     0.5470     0.9174 O.2     
  25 N25           -2.4409    -2.3303     1.1567 N.ar    
  26 C26           -2.4775    -3.6449     1.1437 C.ar    
  27 C27           -3.6430    -4.3213     0.8212 C.ar    
  28 C28           -4.7839    -3.5984     0.5091 C.ar    
  29 C29           -4.7177    -2.2143     0.5365 C.ar    
  30 C30           -1.2346    -4.4264     1.4836 C.3     
  31 F31           -0.2241    -3.5450     1.8827 F       
  32 F32           -1.5143    -5.3174     2.5253 F       
  33 F33           -0.8115    -5.1423     0.3586 F       
  34 H34           -0.6644    -0.0721    -1.3297 H       
  35 H35            0.8319    -0.2421    -0.3752 H       
  36 H36           -1.2348    -1.3627     0.6395 H       
  37 H37           -0.4031    -0.2031     1.7085 H       
  38 H38           -3.1078     2.3839     0.9621 H       
  39 H39           -1.6115     2.2139     1.9167 H       
  40 H40           -0.1873     4.0100     0.8002 H       
  41 H41           -0.5479     4.3472    -0.9099 H       
  42 H42           -1.8348     4.4755     0.3131 H       
  43 H43           -3.0250     2.8775    -1.4082 H       
  44 H44           -1.5182     2.6657    -2.3316 H       
  45 H45           -2.3456     1.2490    -1.6413 H       
  46 H46            6.0544    -1.1922    -0.1521 H       
  47 H47            5.8615     3.0698     0.1307 H       
  48 H48            8.3121     3.1618     0.3383 H       
  49 H49            9.6311     1.0842     0.3039 H       
  50 H50            8.5043    -1.0902     0.0591 H       
  51 H51           -3.6623    -5.4010     0.8127 H       
  52 H52           -5.7045    -4.1023     0.2541 H       
  53 H53           -5.5873    -1.6196     0.2989 H       
@<TRIPOS>BOND
   1    1    2 1
   2    1    9 am
   3    1    6 1
   4    2    3 1
   5    2   34 1
   6    2   35 1
   7    3    4 1
   8    3   36 1
   9    3   37 1
  10    4    5 1
  11    4   22 am
  12    5    6 1
  13    5   38 1
  14    5   39 1
  15    6    7 1
  16    6    8 1
  17    7   40 1
  18    7   41 1
  19    7   42 1
  20    8   43 1
  21    8   44 1
  22    8   45 1
  23    9   10 1
  24    9   11 2
  25   10   12 1
  26   10   15 2
  27   12   13 2
  28   13   14 1
  29   14   15 1
  30   14   16 1
  31   16   17 ar
  32   16   18 ar
  33   17   21 ar
  34   17   46 1
  35   18   19 ar
  36   18   47 1
  37   19   20 ar
  38   19   48 1
  39   20   21 ar
  40   20   49 1
  41   21   50 1
  42   22   23 1
  43   22   24 2
  44   23   25 ar
  45   23   29 ar
  46   25   26 ar
  47   26   27 ar
  48   26   30 1
  49   27   28 ar
  50   27   51 1
  51   28   29 ar
  52   28   52 1
  53   29   53 1
  54   30   31 1
  55   30   32 1
  56   30   33 1

#	End of record

