#	Name: ASD00170329
#	Creating user name:	WinNT
#	Creation time:	15. 06. 2019 18:31

#	Modifying user name:	WinNT
#	Modification time:	15. 06. 2019 18:31

#	Program:	/corina/corina34_cracker 3.40 0067  02.08.2006

@<TRIPOS>MOLECULE
ASD00170329
  38   39    0    0    0
SMALL
NO_CHARGES


@<TRIPOS>ATOM
   1 C1            -0.0185     1.5142     0.0104 C.3     
   2 C2             0.0021    -0.0041     0.0020 C.2     
   3 C3             1.0978    -0.7374    -0.2186 C.2     
   4 C4             2.4731    -0.1463    -0.4837 C.3     
   5 C5             2.3175     1.3141    -0.9146 C.3     
   6 N6             1.3770     1.9799    -0.0005 N.am    
   7 C7             0.8239    -2.1646    -0.1743 C.2     
   8 C8            -0.4879    -2.4571     0.0868 C.2     
   9 S9            -1.3955    -1.0294     0.2779 S.3     
  10 C10            1.8482    -3.1865    -0.3873 C.2     
  11 O11            2.4815    -3.6193     0.5571 O.2     
  12 O12            2.0908    -3.6494    -1.6311 O.3     
  13 C13            1.7807     2.9851     0.8015 C.2     
  14 O14            2.9381     3.3545     0.7769 O.2     
  15 O15            0.9017     3.5799     1.6299 O.3     
  16 C16            1.4065     4.6552     2.4648 C.3     
  17 C17            1.9573     5.7738     1.5780 C.3     
  18 C18            0.2712     5.2038     3.3315 C.3     
  19 C19            2.5227     4.1212     3.3646 C.3     
  20 N20           -1.0040    -3.7348     0.1819 N.pl3   
  21 H21           -0.5376     1.8816    -0.8749 H       
  22 H22           -0.5206     1.8720     0.9093 H       
  23 H23            3.0724    -0.1960     0.4254 H       
  24 H24            2.9650    -0.7096    -1.2767 H       
  25 H25            3.2855     1.8133    -0.8702 H       
  26 H26            1.9291     1.3555    -1.9322 H       
  27 H27            2.7842    -4.3221    -1.6721 H       
  28 H28            1.1621     6.1542     0.9370 H       
  29 H29            2.3363     6.5810     2.2048 H       
  30 H30            2.7661     5.3829     0.9606 H       
  31 H31           -0.1212     4.4070     3.9632 H       
  32 H32            0.6501     6.0111     3.9583 H       
  33 H33           -0.5240     5.5843     2.6904 H       
  34 H34            3.3315     3.7304     2.7472 H       
  35 H35            2.9016     4.9285     3.9914 H       
  36 H36            2.1303     3.3244     3.9964 H       
  37 H37           -0.4237    -4.5025     0.0606 H       
  38 H38           -1.9468    -3.8643     0.3700 H       
@<TRIPOS>BOND
   1    1    2 1
   2    1    6 1
   3    1   21 1
   4    1   22 1
   5    2    3 2
   6    2    9 1
   7    3    4 1
   8    3    7 1
   9    4    5 1
  10    4   23 1
  11    4   24 1
  12    5    6 1
  13    5   25 1
  14    5   26 1
  15    6   13 am
  16    7    8 2
  17    7   10 1
  18    8    9 1
  19    8   20 1
  20   10   11 2
  21   10   12 1
  22   12   27 1
  23   13   14 2
  24   13   15 1
  25   15   16 1
  26   16   17 1
  27   16   19 1
  28   16   18 1
  29   17   28 1
  30   17   29 1
  31   17   30 1
  32   18   31 1
  33   18   32 1
  34   18   33 1
  35   19   34 1
  36   19   35 1
  37   19   36 1
  38   20   37 1
  39   20   38 1

#	End of record

