#	Name: ASD02508163
#	Creating user name:	WinNT
#	Creation time:	15. 06. 2019 20:23

#	Modifying user name:	WinNT
#	Modification time:	15. 06. 2019 20:23

#	Program:	/corina/corina34_cracker 3.40 0067  02.08.2006

@<TRIPOS>MOLECULE
ASD02508163
  32   34    0    0    0
SMALL
NO_CHARGES


@<TRIPOS>ATOM
   1 C1            -0.0510     1.1992    -0.3038 C.ar    
   2 C2             0.9721     1.6478     0.5538 C.ar    
   3 C3             0.1743     0.0934    -1.0923 C.ar    
   4 C4             1.4210    -0.5575    -1.0180 C.ar    
   5 C5             2.4088    -0.1093    -0.1769 C.ar    
   6 C6             2.1826     1.0038     0.6152 C.ar    
   7 S7            -1.6437     1.9182    -0.4986 S.3     
   8 C8            -2.3659     0.8640    -1.6971 C.2     
   9 S9            -1.1831    -0.3592    -2.1143 S.3     
  10 S10            3.9579    -0.9459    -0.1062 S.o2    
  11 N11            4.1036    -1.5799     1.4166 N.am    
  12 C12            3.1652    -2.5070     1.8808 C.ar    
  13 O13           -3.4874     0.9655    -2.1599 O.2     
  14 O14            3.8577    -2.0515    -0.9933 O.2     
  15 O15            4.9600     0.0550    -0.2218 O.2     
  16 C16            2.7850    -2.5039     3.2190 C.ar    
  17 C17            2.6066    -3.4287     1.0064 C.ar    
  18 C18            1.6795    -4.3436     1.4680 C.ar    
  19 C19            1.3071    -4.3421     2.7991 C.ar    
  20 C20            1.8570    -3.4221     3.6736 C.ar    
  21 C21            3.2601     1.5045     1.5424 C.3     
  22 F22            3.3221    -1.6053     4.0730 F       
  23 H23            0.8011     2.5150     1.1744 H       
  24 H24            1.6031    -1.4257    -1.6340 H       
  25 H25            4.8400    -1.3083     1.9867 H       
  26 H26            2.8960    -3.4306    -0.0341 H       
  27 H27            1.2449    -5.0608     0.7874 H       
  28 H28            0.5820    -5.0583     3.1565 H       
  29 H29            1.5642    -3.4239     4.7132 H       
  30 H30            3.9391     2.1558     0.9921 H       
  31 H31            2.8049     2.0624     2.3606 H       
  32 H32            3.8155     0.6574     1.9449 H       
@<TRIPOS>BOND
   1    1    2 ar
   2    1    3 ar
   3    1    7 1
   4    2    6 ar
   5    2   23 1
   6    3    4 ar
   7    3    9 1
   8    4    5 ar
   9    4   24 1
  10    5    6 ar
  11    5   10 1
  12    6   21 1
  13    7    8 1
  14    8    9 1
  15    8   13 2
  16   10   11 am
  17   10   14 2
  18   10   15 2
  19   11   12 1
  20   11   25 1
  21   12   16 ar
  22   12   17 ar
  23   16   22 1
  24   16   20 ar
  25   17   18 ar
  26   17   26 1
  27   18   19 ar
  28   18   27 1
  29   19   20 ar
  30   19   28 1
  31   20   29 1
  32   21   30 1
  33   21   31 1
  34   21   32 1

#	End of record

