#	Name: ASD00170435
#	Creating user name:	WinNT
#	Creation time:	15. 06. 2019 18:32

#	Modifying user name:	WinNT
#	Modification time:	15. 06. 2019 18:32

#	Program:	/corina/corina34_cracker 3.40 0067  02.08.2006

@<TRIPOS>MOLECULE
ASD00170435
  69   73    0    0    0
SMALL
NO_CHARGES


@<TRIPOS>ATOM
   1 C1            -0.4657     0.8056    -0.2561 C.2     
   2 C2            -0.6872    -0.4901     0.1573 C.2     
   3 C3            -2.0481    -0.9210    -0.0568 C.2     
   4 C4            -2.8151     0.0254    -0.6123 C.2     
   5 S5            -1.8915     1.4912    -0.8891 S.3     
   6 C6            -2.5530    -2.2935     0.3068 C.3     
   7 N7             0.7437     1.4603    -0.1644 N.pl3   
   8 C8             0.3474    -1.3391     0.7498 C.2     
   9 C9             1.1481    -2.2375    -0.1094 C.ar    
  10 O10            0.5487    -1.3057     1.9502 O.2     
  11 C11            2.2075    -2.9666     0.4341 C.ar    
  12 C12            2.9506    -3.8028    -0.3721 C.ar    
  13 C13            2.6482    -3.9198    -1.7188 C.ar    
  14 C14            1.5986    -3.1987    -2.2638 C.ar    
  15 C15            0.8441    -2.3644    -1.4662 C.ar    
  16 Cl16           3.5886    -4.9741    -2.7276 Cl      
  17 N17           -2.3671    -2.5182     1.7465 N.3     
  18 C18           -4.2460    -0.1403    -0.9424 C.ar    
  19 C19           -3.4230    -1.8551     2.5234 C.3     
  20 C20           -2.3112    -3.9539     2.0524 C.3     
  21 C21           -3.2094    -0.3406     2.4855 C.3     
  22 C22           -4.3090     0.3500     3.2946 C.3     
  23 C23           -5.6742     0.0122     2.6920 C.3     
  24 C24           -5.8878    -1.5023     2.7300 C.3     
  25 C25           -4.7881    -2.1929     1.9208 C.3     
  26 C26           -1.0841    -4.5714     1.3788 C.3     
  27 C27           -1.0259    -6.0668     1.6974 C.3     
  28 C28           -0.9288    -6.2622     3.2117 C.3     
  29 C29           -2.1559    -5.6446     3.8854 C.3     
  30 C30           -2.2141    -4.1493     3.5668 C.3     
  31 C31           -5.1802     0.8327    -0.5681 C.ar    
  32 C32           -6.5079     0.6297    -0.9013 C.ar    
  33 C33           -6.8663    -0.5169    -1.5868 C.ar    
  34 N34           -5.9641    -1.4177    -1.9266 N.ar    
  35 C35           -4.6882    -1.2672    -1.6380 C.ar    
  36 H36           -3.6124    -2.3678     0.0613 H       
  37 H37           -1.9968    -3.0454    -0.2531 H       
  38 H38            1.4937     1.0338     0.2788 H       
  39 H39            0.8448     2.3475    -0.5432 H       
  40 H40            2.4447    -2.8756     1.4838 H       
  41 H41            3.7703    -4.3673     0.0472 H       
  42 H42            1.3679    -3.2934    -3.3146 H       
  43 H43            0.0258    -1.8028    -1.8921 H       
  44 H44           -3.3860    -2.2015     3.5563 H       
  45 H45           -3.2131    -4.4400     1.6805 H       
  46 H46           -2.2368    -0.0999     2.9148 H       
  47 H47           -3.2463     0.0058     1.4526 H       
  48 H48           -4.2720     0.0037     4.3275 H       
  49 H49           -4.1568     1.4290     3.2676 H       
  50 H50           -6.4576     0.5042     3.2685 H       
  51 H51           -5.7111     0.3586     1.6592 H       
  52 H52           -5.8508    -1.8487     3.7628 H       
  53 H53           -6.8603    -1.7430     2.3007 H       
  54 H54           -4.8251    -1.8466     0.8880 H       
  55 H55           -4.9403    -3.2719     1.9479 H       
  56 H56           -1.1533    -4.4322     0.2999 H       
  57 H57           -0.1823    -4.0853     1.7508 H       
  58 H58           -1.9278    -6.5529     1.3254 H       
  59 H59           -0.1517    -6.5067     1.2175 H       
  60 H60           -0.8873    -7.3275     3.4387 H       
  61 H61           -0.0269    -5.7760     3.5837 H       
  62 H62           -3.0578    -6.1308     3.5134 H       
  63 H63           -2.0867    -5.7838     4.9642 H       
  64 H64           -1.3122    -3.6631     3.9388 H       
  65 H65           -3.0883    -3.7093     4.0467 H       
  66 H66           -4.8727     1.7189    -0.0328 H       
  67 H67           -7.2566     1.3588    -0.6286 H       
  68 H68           -7.9019    -0.6777    -1.8480 H       
  69 H69           -3.9793    -2.0266    -1.9332 H       
@<TRIPOS>BOND
   1    1    2 2
   2    1    7 1
   3    1    5 1
   4    2    3 1
   5    2    8 1
   6    3    4 2
   7    3    6 1
   8    4    5 1
   9    4   18 1
  10    6   17 1
  11    6   36 1
  12    6   37 1
  13    7   38 1
  14    7   39 1
  15    8    9 1
  16    8   10 2
  17    9   11 ar
  18    9   15 ar
  19   11   12 ar
  20   11   40 1
  21   12   13 ar
  22   12   41 1
  23   13   14 ar
  24   13   16 1
  25   14   15 ar
  26   14   42 1
  27   15   43 1
  28   17   19 1
  29   17   20 1
  30   18   31 ar
  31   18   35 ar
  32   19   21 1
  33   19   25 1
  34   19   44 1
  35   20   26 1
  36   20   30 1
  37   20   45 1
  38   21   22 1
  39   21   46 1
  40   21   47 1
  41   22   23 1
  42   22   48 1
  43   22   49 1
  44   23   24 1
  45   23   50 1
  46   23   51 1
  47   24   25 1
  48   24   52 1
  49   24   53 1
  50   25   54 1
  51   25   55 1
  52   26   27 1
  53   26   56 1
  54   26   57 1
  55   27   28 1
  56   27   58 1
  57   27   59 1
  58   28   29 1
  59   28   60 1
  60   28   61 1
  61   29   30 1
  62   29   62 1
  63   29   63 1
  64   30   64 1
  65   30   65 1
  66   31   32 ar
  67   31   66 1
  68   32   33 ar
  69   32   67 1
  70   33   34 ar
  71   33   68 1
  72   34   35 ar
  73   35   69 1

#	End of record

