#	Name: ASD01880974
#	Creating user name:	WinNT
#	Creation time:	15. 06. 2019 19:41

#	Modifying user name:	WinNT
#	Modification time:	15. 06. 2019 19:41

#	Program:	/corina/corina34_cracker 3.40 0067  02.08.2006

@<TRIPOS>MOLECULE
ASD01880974
  49   54    0    0    0
SMALL
NO_CHARGES


@<TRIPOS>ATOM
   1 C1            -0.0169     1.3929     0.0097 C.ar    
   2 C2             0.0021    -0.0041     0.0020 C.ar    
   3 C3             1.2138    -0.6908    -0.0127 C.ar    
   4 C4             2.4024     0.0194    -0.0202 C.ar    
   5 C5             2.3728     1.4247    -0.0129 C.ar    
   6 C6             1.1521     2.1001     0.0023 C.ar    
   7 N7             3.6288    -0.6375    -0.0344 N.pl3   
   8 C8             4.7930     0.0690    -0.0413 C.2     
   9 N9             4.8015     1.4564    -0.0346 N.am    
  10 C10            3.6501     2.1587    -0.0207 C.2     
  11 N11            3.9497    -2.0024    -0.0439 N.2     
  12 C12            5.2610    -2.1198    -0.0562 C.2     
  13 C13            5.8182    -0.8298    -0.0549 C.2     
  14 O14            3.6660     3.3753    -0.0152 O.2     
  15 C15           -1.2737    -0.7592     0.0101 C.ar    
  16 C16            6.0200    -3.3949    -0.0697 C.ar    
  17 C17           -2.4753    -0.0737     0.0252 C.ar    
  18 C18           -3.6772    -0.7950     0.0322 C.ar    
  19 C19           -3.6404    -2.2143     0.0238 C.ar    
  20 C20           -2.4052    -2.8807     0.0076 C.ar    
  21 C21           -1.2507    -2.1637    -0.0035 C.ar    
  22 C22            5.3419    -4.6122    -0.0706 C.ar    
  23 C23            7.4131    -3.3792    -0.0874 C.ar    
  24 C24            8.1140    -4.5682    -0.1003 C.ar    
  25 C25            7.4359    -5.7738    -0.0958 C.ar    
  26 C26            6.0529    -5.7952    -0.0836 C.ar    
  27 C27            6.0811     2.1697    -0.0422 C.3     
  28 C28           -4.9281    -0.1549     0.0480 C.ar    
  29 N29           -6.0286    -0.8698     0.0545 N.ar    
  30 C30           -6.0224    -2.1958     0.0469 C.ar    
  31 C31           -4.8628    -2.9101     0.0316 C.ar    
  32 H32           -0.9612     1.9170     0.0170 H       
  33 H33            1.2262    -1.7707    -0.0179 H       
  34 H34            1.1313     3.1799     0.0076 H       
  35 H35            6.8717    -0.5923    -0.0632 H       
  36 H36           -2.4871     1.0062     0.0318 H       
  37 H37           -2.3723    -3.9602     0.0015 H       
  38 H38           -0.3026    -2.6808    -0.0160 H       
  39 H39            4.2621    -4.6300    -0.0607 H       
  40 H40            7.9436    -2.4385    -0.0913 H       
  41 H41            9.1938    -4.5572    -0.1144 H       
  42 H42            7.9882    -6.7018    -0.1064 H       
  43 H43            5.5284    -6.7393    -0.0801 H       
  44 H44            6.3896     2.3517    -1.0717 H       
  45 H45            5.9696     3.1215     0.4773 H       
  46 H46            6.8362     1.5668     0.4622 H       
  47 H47           -4.9837     0.9237     0.0551 H       
  48 H48           -6.9641    -2.7247     0.0533 H       
  49 H49           -4.8815    -3.9899     0.0256 H       
@<TRIPOS>BOND
   1    1    2 ar
   2    1    6 ar
   3    1   32 1
   4    2    3 ar
   5    2   15 1
   6    3    4 ar
   7    3   33 1
   8    4    5 ar
   9    4    7 1
  10    5    6 ar
  11    5   10 1
  12    6   34 1
  13    7    8 1
  14    7   11 1
  15    8    9 1
  16    8   13 2
  17    9   10 am
  18    9   27 1
  19   10   14 2
  20   11   12 2
  21   12   13 1
  22   12   16 1
  23   13   35 1
  24   15   17 ar
  25   15   21 ar
  26   16   22 ar
  27   16   23 ar
  28   17   18 ar
  29   17   36 1
  30   18   19 ar
  31   18   28 ar
  32   19   20 ar
  33   19   31 ar
  34   20   21 ar
  35   20   37 1
  36   21   38 1
  37   22   26 ar
  38   22   39 1
  39   23   24 ar
  40   23   40 1
  41   24   25 ar
  42   24   41 1
  43   25   26 ar
  44   25   42 1
  45   26   43 1
  46   27   44 1
  47   27   45 1
  48   27   46 1
  49   28   29 ar
  50   28   47 1
  51   29   30 ar
  52   30   31 ar
  53   30   48 1
  54   31   49 1

#	End of record

