#	Name: ASD04910378
#	Creating user name:	WinNT
#	Creation time:	15. 06. 2019 20:55

#	Modifying user name:	WinNT
#	Modification time:	15. 06. 2019 20:55

#	Program:	/corina/corina34_cracker 3.40 0067  02.08.2006

@<TRIPOS>MOLECULE
ASD04910378
  21   22    0    0    0
SMALL
NO_CHARGES


@<TRIPOS>ATOM
   1 N1            -0.0169     1.3952     0.0097 N.pl3   
   2 N2             0.0021    -0.0041     0.0020 N.2     
   3 C3             1.2425    -0.4102    -0.0120 C.2     
   4 C4             2.0774     0.7297    -0.0139 C.2     
   5 C5             1.2548     1.8383    -0.0000 C.2     
   6 C6             3.5094     0.7343    -0.0266 C.1     
   7 N7             4.6453     0.7378    -0.0367 N.1     
   8 C8            -1.1656     2.1997     0.0198 C.ar    
   9 C9            -2.4242     1.6133     0.0233 C.ar    
  10 C10           -3.5547     2.4058     0.0337 C.ar    
  11 C11           -3.4333     3.7879     0.0401 C.ar    
  12 C12           -2.1758     4.3744     0.0365 C.ar    
  13 C13           -1.0447     3.5829     0.0320 C.ar    
  14 O14           -4.5467     4.5677     0.0494 O.3     
  15 H15            1.5731    -1.4383    -0.0204 H       
  16 H16            1.5724     2.8705     0.0021 H       
  17 H17           -2.5188     0.5375     0.0176 H       
  18 H18           -4.5337     1.9498     0.0364 H       
  19 H19           -2.0819     5.4503     0.0412 H       
  20 H20           -0.0659     4.0394     0.0337 H       
  21 H21           -4.8646     4.7889     0.9355 H       
@<TRIPOS>BOND
   1    1    2 1
   2    1    5 1
   3    1    8 1
   4    2    3 2
   5    3    4 1
   6    3   15 1
   7    4    5 2
   8    4    6 1
   9    5   16 1
  10    6    7 3
  11    8    9 ar
  12    8   13 ar
  13    9   10 ar
  14    9   17 1
  15   10   11 ar
  16   10   18 1
  17   11   12 ar
  18   11   14 1
  19   12   13 ar
  20   12   19 1
  21   13   20 1
  22   14   21 1

#	End of record

