#	Name: ASD08830203
#	Creating user name:	WinNT
#	Creation time:	15. 06. 2019 21:20

#	Modifying user name:	WinNT
#	Modification time:	15. 06. 2019 21:20

#	Program:	/corina/corina34_cracker 3.40 0067  02.08.2006

@<TRIPOS>MOLECULE
ASD08830203
  48   51    0    0    0
SMALL
NO_CHARGES


@<TRIPOS>ATOM
   1 C1            -0.0179     1.4664     0.0101 C.ar    
   2 C2             0.0021    -0.0041     0.0020 C.2     
   3 C3            -1.2926    -0.7753     0.0102 C.3     
   4 C4            -0.9927    -2.2755    -0.0007 C.3     
   5 N5            -2.2547    -3.0273     0.0073 N.3     
   6 O6             1.0604    -0.5961    -0.0113 O.2     
   7 C7            -1.2501     2.1494     0.0314 C.ar    
   8 C8            -2.0181    -4.4568    -0.2410 C.3     
   9 C9            -3.3490    -5.2097    -0.1649 C.3     
  10 O10           -4.2665    -4.6418    -1.1035 O.3     
  11 C11           -4.5205    -3.2506    -0.8906 C.3     
  12 C12           -3.2015    -2.4779    -0.9741 C.3     
  13 C13            1.1775     2.1721     0.0025 C.ar    
  14 C14            1.1498     3.5742     0.0108 C.ar    
  15 C15           -0.0981     4.2488     0.0267 C.ar    
  16 C16           -1.2933     3.5050     0.0397 C.ar    
  17 C17            2.3394     4.3245     0.0039 C.ar    
  18 C18            2.2782     5.6844     0.0127 C.ar    
  19 C19            1.0525     6.3463     0.0288 C.ar    
  20 C20           -0.1197     5.6527     0.0354 C.ar    
  21 C21            3.5547     6.4853     0.0054 C.3     
  22 C22            3.9667     6.7608    -1.4178 C.2     
  23 S23            5.3927     7.6620    -1.9639 S.3     
  24 N24            3.3580     6.3851    -2.4912 N.2     
  25 N25            3.8917     6.7359    -3.7107 N.am    
  26 C26            5.0302     7.4553    -3.6882 C.2     
  27 S27            5.9276     8.0382    -5.0245 S.2     
  28 H28           -1.8592    -0.5245     0.9070 H       
  29 H29           -1.8762    -0.5150    -0.8728 H       
  30 H30           -0.4261    -2.5263    -0.8975 H       
  31 H31           -0.4091    -2.5358     0.8824 H       
  32 H32           -2.1718     1.5865     0.0409 H       
  33 H33           -1.5824    -4.5869    -1.2316 H       
  34 H34           -1.3346    -4.8488     0.5123 H       
  35 H35           -3.1869    -6.2606    -0.4046 H       
  36 H36           -3.7584    -5.1242     0.8417 H       
  37 H37           -5.2057    -2.8846    -1.6552 H       
  38 H38           -4.9640    -3.1082     0.0948 H       
  39 H39           -3.3819    -1.4252    -0.7560 H       
  40 H40           -2.7847    -2.5763    -1.9764 H       
  41 H41            2.1206     1.6460    -0.0094 H       
  42 H42           -2.2455     4.0144     0.0515 H       
  43 H43            3.2965     3.8243    -0.0078 H       
  44 H44            1.0314     7.4261     0.0359 H       
  45 H45           -1.0619     6.1804     0.0479 H       
  46 H46            3.3945     7.4291     0.5264 H       
  47 H47            4.3403     5.9214     0.5084 H       
  48 H48            3.4698     6.4764    -4.5447 H       
@<TRIPOS>BOND
   1    1    2 1
   2    1   13 ar
   3    1    7 ar
   4    2    3 1
   5    2    6 2
   6    3    4 1
   7    3   28 1
   8    3   29 1
   9    4    5 1
  10    4   30 1
  11    4   31 1
  12    5    8 1
  13    5   12 1
  14    7   16 ar
  15    7   32 1
  16    8    9 1
  17    8   33 1
  18    8   34 1
  19    9   10 1
  20    9   35 1
  21    9   36 1
  22   10   11 1
  23   11   12 1
  24   11   37 1
  25   11   38 1
  26   12   39 1
  27   12   40 1
  28   13   14 ar
  29   13   41 1
  30   14   15 ar
  31   14   17 ar
  32   15   16 ar
  33   15   20 ar
  34   16   42 1
  35   17   18 ar
  36   17   43 1
  37   18   19 ar
  38   18   21 1
  39   19   20 ar
  40   19   44 1
  41   20   45 1
  42   21   22 1
  43   21   46 1
  44   21   47 1
  45   22   23 1
  46   22   24 2
  47   23   26 1
  48   24   25 1
  49   25   26 am
  50   25   48 1
  51   26   27 2

#	End of record

