#	Name: ASD01230737
#	Creating user name:	WinNT
#	Creation time:	15. 06. 2019 19:15

#	Modifying user name:	WinNT
#	Modification time:	15. 06. 2019 19:15

#	Program:	/corina/corina34_cracker 3.40 0067  02.08.2006

@<TRIPOS>MOLECULE
ASD01230737
  43   45    0    0    0
SMALL
NO_CHARGES


@<TRIPOS>ATOM
   1 C1            -0.0166     1.3737     0.0096 C.2     
   2 C2             0.0021    -0.0041     0.0020 C.2     
   3 C3            -1.2146    -0.7002     0.0083 C.2     
   4 C4            -2.3849    -0.0393     0.0110 C.2     
   5 N5            -2.4623     1.3312     0.0018 N.pl3   
   6 C6            -1.3175     2.0758     0.0320 C.2     
   7 C7            -3.8099     1.9045    -0.0478 C.3     
   8 C8            -3.8779     3.1900     0.7817 C.3     
   9 S9            -2.6220     4.3262     0.1135 S.o2    
  10 N10           -1.2619     3.3847     0.0820 N.am    
  11 C11            1.2497     2.1409     0.0016 C.ar    
  12 C12            2.1019     2.0727    -1.1015 C.ar    
  13 O13           -2.8874     4.6257    -1.2500 O.2     
  14 O14           -2.3208     5.3520     1.0496 O.2     
  15 C15            1.5909     2.9381     1.0942 C.ar    
  16 C16            2.7715     3.6519     1.0843 C.ar    
  17 C17            3.6200     3.5783    -0.0108 C.ar    
  18 C18            3.2815     2.7895    -1.1049 C.ar    
  19 O19            4.7822     4.2837    -0.0169 O.3     
  20 C20            5.0647     5.0785     1.1366 C.3     
  21 C21            6.4042     5.7933     0.9477 C.3     
  22 F22            4.1105     2.7200    -2.1693 F       
  23 C23            6.7068     6.6442     2.1827 C.3     
  24 C24            8.0463     7.3591     1.9939 C.3     
  25 H25            0.9399    -0.5395    -0.0090 H       
  26 H26           -1.2115    -1.7802     0.0107 H       
  27 H27           -3.3018    -0.6098     0.0204 H       
  28 H28           -4.0667     2.1304    -1.0828 H       
  29 H29           -4.5228     1.1820     0.3495 H       
  30 H30           -4.8680     3.6372     0.6933 H       
  31 H31           -3.6608     2.9696     1.8269 H       
  32 H32            1.8389     1.4598    -1.9510 H       
  33 H33            0.9312     2.9966     1.9473 H       
  34 H34            3.0353     4.2693     1.9302 H       
  35 H35            4.2746     5.8171     1.2713 H       
  36 H36            5.1162     4.4368     2.0162 H       
  37 H37            7.1944     5.0547     0.8130 H       
  38 H38            6.3528     6.4349     0.0681 H       
  39 H39            5.9166     7.3829     2.3175 H       
  40 H40            6.7582     6.0026     3.0624 H       
  41 H41            7.9948     8.0007     1.1143 H       
  42 H42            8.2618     7.9653     2.8737 H       
  43 H43            8.8364     6.6205     1.8591 H       
@<TRIPOS>BOND
   1    1    2 2
   2    1   11 1
   3    1    6 1
   4    2    3 1
   5    2   25 1
   6    3    4 2
   7    3   26 1
   8    4    5 1
   9    4   27 1
  10    5    6 1
  11    5    7 1
  12    6   10 2
  13    7    8 1
  14    7   28 1
  15    7   29 1
  16    8    9 1
  17    8   30 1
  18    8   31 1
  19    9   10 am
  20    9   13 2
  21    9   14 2
  22   11   12 ar
  23   11   15 ar
  24   12   18 ar
  25   12   32 1
  26   15   16 ar
  27   15   33 1
  28   16   17 ar
  29   16   34 1
  30   17   18 ar
  31   17   19 1
  32   18   22 1
  33   19   20 1
  34   20   21 1
  35   20   35 1
  36   20   36 1
  37   21   23 1
  38   21   37 1
  39   21   38 1
  40   23   24 1
  41   23   39 1
  42   23   40 1
  43   24   41 1
  44   24   42 1
  45   24   43 1

#	End of record

