#	Name: ASD01816709
#	Creating user name:	WinNT
#	Creation time:	15. 06. 2019 19:35

#	Modifying user name:	WinNT
#	Modification time:	15. 06. 2019 19:35

#	Program:	/corina/corina34_cracker 3.40 0067  02.08.2006

@<TRIPOS>MOLECULE
ASD01816709
  74   78    0    0    0
SMALL
NO_CHARGES


@<TRIPOS>ATOM
   1 C1            -0.0167     1.3961     0.0122 C.2     
   2 C2             0.0025    -0.0052    -0.0045 C.2     
   3 C3             1.1989    -0.6602    -0.0252 C.2     
   4 C4             2.3922     0.0815    -0.0295 C.2     
   5 N5             2.3439     1.4491    -0.0125 N.am    
   6 C6             1.1420     2.0927     0.0077 C.2     
   7 C7             3.6230    -0.5887    -0.0506 C.2     
   8 C8             4.7879     0.1231    -0.0550 C.2     
   9 C9             4.7340     1.5284    -0.0381 C.2     
  10 C10            3.4813     2.1731    -0.0167 C.2     
  11 C11            3.6605    -2.0951    -0.0680 C.3     
  12 O12            3.4256     3.3913    -0.0019 O.2     
  13 C13            5.9710     2.3159    -0.0418 C.2     
  14 N14            7.1647     1.6963     0.0459 N.am    
  15 O15            5.9198     3.5292    -0.1240 O.2     
  16 N16            3.7781    -2.5660    -1.4545 N.3     
  17 C17            4.0549    -4.0074    -1.4991 C.3     
  18 C18            4.3146    -4.4339    -2.9457 C.3     
  19 C19            3.0860    -4.1046    -3.7981 C.3     
  20 C20            2.7905    -2.6057    -3.6959 C.3     
  21 C21            2.5750    -2.2322    -2.2275 C.3     
  22 C22            3.3583    -4.4673    -5.2353 C.ar    
  23 N23            4.5963    -4.6988    -5.6256 N.ar    
  24 C24            1.9277    -4.8690    -3.3076 C.1     
  25 N25            1.0337    -5.4589    -2.9289 N.1     
  26 C26            4.8819    -5.0191    -6.8727 C.ar    
  27 C27            3.8832    -5.1237    -7.8220 C.ar    
  28 C28            2.5687    -4.8874    -7.4488 C.ar    
  29 C29            2.3068    -4.5590    -6.1277 C.ar    
  30 C30            8.4025     2.4710    -0.0711 C.3     
  31 C31            9.5351     1.7364     0.6498 C.3     
  32 N32           10.7808     2.5022     0.5149 N.3     
  33 C33           11.1751     2.6308    -0.8938 C.3     
  34 C34           10.0915     3.3921    -1.6608 C.3     
  35 C35            8.7660     2.6336    -1.5496 C.3     
  36 C36           11.8585     1.8989     1.3102 C.3     
  37 C37           13.1666     2.6478     1.0478 C.3     
  38 C38           11.5078     1.9904     2.7967 C.3     
  39 H39           -0.9604     1.9212     0.0241 H       
  40 H40           -0.9228    -0.5622    -0.0006 H       
  41 H41            1.2286    -1.7397    -0.0378 H       
  42 H42            1.1153     3.1723     0.0208 H       
  43 H43            5.7398    -0.3870    -0.0709 H       
  44 H44            4.5175    -2.4439     0.5081 H       
  45 H45            2.7433    -2.4865     0.3720 H       
  46 H46            7.2041     0.7373     0.1865 H       
  47 H47            4.9332    -4.2275    -0.8923 H       
  48 H48            3.1970    -4.5542    -1.1077 H       
  49 H49            5.1808    -3.8976    -3.3332 H       
  50 H50            4.5046    -5.5066    -2.9803 H       
  51 H51            3.6327    -2.0406    -4.0952 H       
  52 H52            1.8916    -2.3722    -4.2665 H       
  53 H53            1.7240    -2.7873    -1.8327 H       
  54 H54            2.3784    -1.1629    -2.1498 H       
  55 H55            5.9081    -5.2016    -7.1553 H       
  56 H56            4.1235    -5.3857    -8.8418 H       
  57 H57            1.7676    -4.9614    -8.1694 H       
  58 H58            1.2948    -4.3688    -5.8018 H       
  59 H59            8.2610     3.4533     0.3796 H       
  60 H60            9.2858     1.6317     1.7057 H       
  61 H61            9.6664     0.7487     0.2080 H       
  62 H62           12.1170     3.1756    -0.9591 H       
  63 H63           11.2987     1.6388    -1.3284 H       
  64 H64            9.9770     4.3892    -1.2355 H       
  65 H65           10.3772     3.4737    -2.7095 H       
  66 H66            8.8690     1.6508    -2.0096 H       
  67 H67            7.9817     3.1944    -2.0580 H       
  68 H68           11.9760     0.8526     1.0284 H       
  69 H69           13.0491     3.6941     1.3297 H       
  70 H70           13.9662     2.2001     1.6380 H       
  71 H71           13.4164     2.5826    -0.0112 H       
  72 H72           11.3903     3.0367     3.0786 H       
  73 H73           10.5758     1.4569     2.9836 H       
  74 H74           12.3074     1.5427     3.3869 H       
@<TRIPOS>BOND
   1    1    2 1
   2    1    6 2
   3    1   39 1
   4    2    3 2
   5    2   40 1
   6    3    4 1
   7    3   41 1
   8    4    5 1
   9    4    7 2
  10    5    6 1
  11    5   10 am
  12    6   42 1
  13    7    8 1
  14    7   11 1
  15    8    9 2
  16    8   43 1
  17    9   10 1
  18    9   13 1
  19   10   12 2
  20   11   16 1
  21   11   44 1
  22   11   45 1
  23   13   14 am
  24   13   15 2
  25   14   30 1
  26   14   46 1
  27   16   17 1
  28   16   21 1
  29   17   18 1
  30   17   47 1
  31   17   48 1
  32   18   19 1
  33   18   49 1
  34   18   50 1
  35   19   20 1
  36   19   22 1
  37   19   24 1
  38   20   21 1
  39   20   51 1
  40   20   52 1
  41   21   53 1
  42   21   54 1
  43   22   23 ar
  44   22   29 ar
  45   23   26 ar
  46   24   25 3
  47   26   27 ar
  48   26   55 1
  49   27   28 ar
  50   27   56 1
  51   28   29 ar
  52   28   57 1
  53   29   58 1
  54   30   31 1
  55   30   35 1
  56   30   59 1
  57   31   32 1
  58   31   60 1
  59   31   61 1
  60   32   33 1
  61   32   36 1
  62   33   34 1
  63   33   62 1
  64   33   63 1
  65   34   35 1
  66   34   64 1
  67   34   65 1
  68   35   66 1
  69   35   67 1
  70   36   37 1
  71   36   38 1
  72   36   68 1
  73   37   69 1
  74   37   70 1
  75   37   71 1
  76   38   72 1
  77   38   73 1
  78   38   74 1

#	End of record

