#	Name: ASD01420085
#	Creating user name:	WinNT
#	Creation time:	15. 06. 2019 19:20

#	Modifying user name:	WinNT
#	Modification time:	15. 06. 2019 19:20

#	Program:	/corina/corina34_cracker 3.40 0067  02.08.2006

@<TRIPOS>MOLECULE
ASD01420085
  41   43    0    0    0
SMALL
NO_CHARGES


@<TRIPOS>ATOM
   1 C1            -0.0144     1.2120     0.0087 C.2     
   2 O2             0.2999     0.3316    -0.7692 O.2     
   3 C3             2.1586     1.0146     1.2577 C.3     
   4 N4             0.8504     1.6080     0.9636 N.am    
   5 C5             0.6633     2.7150     1.9068 C.3     
   6 C6             1.8885     2.7827     2.7831 C.ar    
   7 C7             2.2195     3.6344     3.8227 C.ar    
   8 C8             3.4278     3.4887     4.4809 C.ar    
   9 C9             4.3061     2.4887     4.0984 C.ar    
  10 C10            3.9742     1.6394     3.0613 C.ar    
  11 C11            2.7651     1.7859     2.4027 C.ar    
  12 F12            3.7505     4.3211     5.4949 F       
  13 C13           -1.3380     1.8498    -0.0965 C.ar    
  14 C14           -2.4903     1.0618    -0.2407 C.ar    
  15 C15           -3.7301     1.6691    -0.3384 C.ar    
  16 C16           -3.8312     3.0520    -0.2942 C.ar    
  17 C17           -2.6896     3.8346    -0.1513 C.ar    
  18 C18           -1.4521     3.2424    -0.0474 C.ar    
  19 C19           -2.8098     5.3361    -0.1044 C.3     
  20 C20           -2.2571     5.8506     1.2263 C.3     
  21 C21           -2.0128     5.9478    -1.2583 C.3     
  22 O22           -5.0486     3.6440    -0.3912 O.3     
  23 O23           -2.3893    -0.2903    -0.2846 O.3     
  24 H24            2.0349    -0.0307     1.5408 H       
  25 H25            2.8026     1.0870     0.3812 H       
  26 H26            0.5481     3.6508     1.3599 H       
  27 H27           -0.2196     2.5331     2.5195 H       
  28 H28            1.5339     4.4141     4.1203 H       
  29 H29            5.2500     2.3734     4.6105 H       
  30 H30            4.6594     0.8597     2.7629 H       
  31 H31           -4.6192     1.0662    -0.4494 H       
  32 H32           -0.5688     3.8531     0.0679 H       
  33 H33           -3.8582     5.6197    -0.1964 H       
  34 H34           -1.2087     5.5669     1.3183 H       
  35 H35           -2.3440     6.9366     1.2603 H       
  36 H36           -2.8249     5.4148     2.0484 H       
  37 H37           -2.4065     5.5813    -2.2063 H       
  38 H38           -2.0996     7.0338    -1.2243 H       
  39 H39           -0.9644     5.6641    -1.1663 H       
  40 H40           -5.4881     3.7812     0.4592 H       
  41 H41           -2.4460    -0.7173     0.5812 H       
@<TRIPOS>BOND
   1    1    2 2
   2    1    4 am
   3    1   13 1
   4    3    4 1
   5    3   11 1
   6    3   24 1
   7    3   25 1
   8    4    5 1
   9    5    6 1
  10    5   26 1
  11    5   27 1
  12    6    7 ar
  13    6   11 ar
  14    7    8 ar
  15    7   28 1
  16    8    9 ar
  17    8   12 1
  18    9   10 ar
  19    9   29 1
  20   10   11 ar
  21   10   30 1
  22   13   14 ar
  23   13   18 ar
  24   14   15 ar
  25   14   23 1
  26   15   16 ar
  27   15   31 1
  28   16   17 ar
  29   16   22 1
  30   17   18 ar
  31   17   19 1
  32   18   32 1
  33   19   20 1
  34   19   21 1
  35   19   33 1
  36   20   34 1
  37   20   35 1
  38   20   36 1
  39   21   37 1
  40   21   38 1
  41   21   39 1
  42   22   40 1
  43   23   41 1

#	End of record

