#	Name: ASD05430349
#	Creating user name:	WinNT
#	Creation time:	15. 06. 2019 21:00

#	Modifying user name:	WinNT
#	Modification time:	15. 06. 2019 21:00

#	Program:	/corina/corina34_cracker 3.40 0067  02.08.2006

@<TRIPOS>MOLECULE
ASD05430349
  56   59    0    0    0
SMALL
NO_CHARGES


@<TRIPOS>ATOM
   1 C1            -0.0168     1.3903     0.0097 C.ar    
   2 C2             0.0021    -0.0041     0.0020 C.ar    
   3 C3            -1.1893    -0.7181     0.0096 C.ar    
   4 C4            -2.3954    -0.0522     0.0247 C.ar    
   5 C5            -2.4221     1.3461     0.0329 C.ar    
   6 C6            -1.2229     2.0649     0.0306 C.ar    
   7 C7            -4.8632     1.3659     0.0549 C.2     
   8 C8            -3.7098     2.0594     0.0485 C.2     
   9 N9            -7.3345     1.3528     0.0770 N.pl3   
  10 C10           -6.1474     2.0773     0.0705 C.2     
  11 C11           -8.6843     2.2876     1.8806 C.ar    
  12 C12           -9.7796     2.9458     2.4081 C.ar    
  13 C13           -7.6869     1.8227     2.7174 C.ar    
  14 C14           -7.7840     2.0151     4.0825 C.ar    
  15 C15           -8.8805     2.6742     4.6119 C.ar    
  16 C16           -9.8786     3.1398     3.7728 C.ar    
  17 F17           -8.9767     2.8625     5.9463 F       
  18 O18            1.1512     2.0860     0.0023 O.3     
  19 C19            1.0570     3.5119     0.0108 C.3     
  20 C20            1.6011    -1.7068     0.8215 C.2     
  21 N21            1.2260    -0.6865    -0.0138 N.pl3   
  22 C22            2.8468    -2.0688     0.4602 C.2     
  23 N23            3.2267    -1.2943    -0.5668 N.2     
  24 C24            2.2646    -0.4623    -0.8600 C.2     
  25 C25            3.6717    -3.1559     1.0996 C.3     
  26 C26           -7.3442    -0.0826    -0.2156 C.3     
  27 C27           -8.5805     2.0712     0.3929 C.3     
  28 C28           -8.5238     3.4258    -0.3294 C.3     
  29 O29           -7.3570     4.1253     0.1098 O.3     
  30 N30           -6.1618     3.3761     0.0785 N.2     
  31 C31           -9.7844     1.2674    -0.1025 C.3     
  32 H32           -1.1702    -1.7980     0.0032 H       
  33 H33           -3.3202    -0.6100     0.0298 H       
  34 H34           -1.2390     3.1448     0.0373 H       
  35 H35           -4.8440     0.2861     0.0486 H       
  36 H36           -3.7289     3.1392     0.0549 H       
  37 H37          -10.5580     3.3088     1.7534 H       
  38 H38           -6.8317     1.3086     2.3042 H       
  39 H39           -7.0050     1.6512     4.7361 H       
  40 H40          -10.7342     3.6543     4.1846 H       
  41 H41            0.5289     3.8358     0.9076 H       
  42 H42            2.0585     3.9422     0.0036 H       
  43 H43            0.5119     3.8453    -0.8722 H       
  44 H44            1.0123    -2.1349     1.6193 H       
  45 H45            2.2900     0.2798    -1.6443 H       
  46 H46            3.4803    -4.1023     0.5938 H       
  47 H47            4.7294    -2.9064     1.0155 H       
  48 H48            3.4020    -3.2453     2.1519 H       
  49 H49           -6.3273    -0.4193    -0.4171 H       
  50 H50           -7.7436    -0.6253     0.6412 H       
  51 H51           -7.9691    -0.2713    -1.0885 H       
  52 H52           -8.4707     3.2647    -1.4061 H       
  53 H53           -9.4128     4.0078    -0.0866 H       
  54 H54           -9.7970     0.2933     0.3864 H       
  55 H55          -10.7026     1.8049     0.1346 H       
  56 H56           -9.7114     1.1314    -1.1815 H       
@<TRIPOS>BOND
   1    1    2 ar
   2    1   18 1
   3    1    6 ar
   4    2    3 ar
   5    2   21 1
   6    3    4 ar
   7    3   32 1
   8    4    5 ar
   9    4   33 1
  10    5    6 ar
  11    5    8 1
  12    6   34 1
  13    7    8 2
  14    7   10 1
  15    7   35 1
  16    8   36 1
  17    9   10 1
  18    9   27 1
  19    9   26 1
  20   10   30 2
  21   11   12 ar
  22   11   13 ar
  23   11   27 1
  24   12   16 ar
  25   12   37 1
  26   13   14 ar
  27   13   38 1
  28   14   15 ar
  29   14   39 1
  30   15   16 ar
  31   15   17 1
  32   16   40 1
  33   18   19 1
  34   19   41 1
  35   19   42 1
  36   19   43 1
  37   20   21 1
  38   20   22 2
  39   20   44 1
  40   21   24 1
  41   22   23 1
  42   22   25 1
  43   23   24 2
  44   24   45 1
  45   25   46 1
  46   25   47 1
  47   25   48 1
  48   26   49 1
  49   26   50 1
  50   26   51 1
  51   27   28 1
  52   27   31 1
  53   28   29 1
  54   28   52 1
  55   28   53 1
  56   29   30 1
  57   31   54 1
  58   31   55 1
  59   31   56 1

#	End of record

