#	Name: ASD04880082
#	Creating user name:	WinNT
#	Creation time:	15. 06. 2019 20:52

#	Modifying user name:	WinNT
#	Modification time:	15. 06. 2019 20:52

#	Program:	/corina/corina34_cracker 3.40 0067  02.08.2006

@<TRIPOS>MOLECULE
ASD04880082
  45   47    0    0    0
SMALL
NO_CHARGES


@<TRIPOS>ATOM
   1 C1            -0.0144     1.2121     0.0087 C.2     
   2 O2             0.0568    -0.0019    -0.0144 O.2     
   3 C3             1.2173     2.0240    -0.0196 C.ar    
   4 C4             2.4672     1.4046     0.0724 C.ar    
   5 C5             3.6153     2.1671     0.0451 C.ar    
   6 C6             3.5300     3.5515    -0.0739 C.ar    
   7 C7             2.2894     4.1691    -0.1655 C.ar    
   8 C8             1.1376     3.4132    -0.1442 C.ar    
   9 O9             4.6625     4.2999    -0.1001 O.3     
  10 C10            4.5025     5.7145    -0.2241 C.3     
  11 F11            4.8242     1.5705     0.1343 F       
  12 N12           -1.2186     1.8158     0.0545 N.am    
  13 N13           -1.4338     3.1850     0.1969 N.2     
  14 C14           -2.6770     3.5235     0.2139 C.2     
  15 C15           -3.5384     2.2893     0.0694 C.3     
  16 C16           -2.5205     1.1371    -0.0440 C.3     
  17 C17           -3.1816     4.9016     0.3528 C.ar    
  18 C18           -2.2853     5.9665     0.4793 C.ar    
  19 C19           -2.7638     7.2564     0.6088 C.ar    
  20 C20           -4.1371     7.4932     0.6135 C.ar    
  21 C21           -5.0269     6.4367     0.4884 C.ar    
  22 C22           -4.5568     5.1470     0.3526 C.ar    
  23 O23           -4.6058     8.7627     0.7414 O.3     
  24 C24           -6.0245     8.9340     0.7384 C.3     
  25 O25           -1.8944     8.2949     0.7320 O.3     
  26 C26           -0.5008     7.9792     0.7197 C.3     
  27 H27            2.5332     0.3306     0.1651 H       
  28 H28            2.2275     5.2433    -0.2577 H       
  29 H29            0.1738     3.8946    -0.2196 H       
  30 H30            5.4825     6.1917    -0.2324 H       
  31 H31            3.9802     5.9411    -1.1536 H       
  32 H32            3.9228     6.0899     0.6192 H       
  33 H33           -4.1715     2.1600     0.9473 H       
  34 H34           -4.1443     2.3496    -0.8346 H       
  35 H35           -2.6173     0.6304    -1.0042 H       
  36 H36           -2.6488     0.4322     0.7774 H       
  37 H37           -1.2212     5.7816     0.4762 H       
  38 H38           -6.0904     6.6247     0.4929 H       
  39 H39           -5.2518     4.3267     0.2509 H       
  40 H40           -6.2630     9.9920     0.8473 H       
  41 H41           -6.4331     8.5643    -0.2020 H       
  42 H42           -6.4595     8.3763     1.5678 H       
  43 H43           -0.2732     7.3070     1.5470 H       
  44 H44           -0.2463     7.4946    -0.2228 H       
  45 H45            0.0802     8.8954     0.8257 H       
@<TRIPOS>BOND
   1    1    2 2
   2    1    3 1
   3    1   12 am
   4    3    4 ar
   5    3    8 ar
   6    4    5 ar
   7    4   27 1
   8    5    6 ar
   9    5   11 1
  10    6    7 ar
  11    6    9 1
  12    7    8 ar
  13    7   28 1
  14    8   29 1
  15    9   10 1
  16   10   30 1
  17   10   31 1
  18   10   32 1
  19   12   13 1
  20   12   16 1
  21   13   14 2
  22   14   15 1
  23   14   17 1
  24   15   16 1
  25   15   33 1
  26   15   34 1
  27   16   35 1
  28   16   36 1
  29   17   18 ar
  30   17   22 ar
  31   18   19 ar
  32   18   37 1
  33   19   20 ar
  34   19   25 1
  35   20   21 ar
  36   20   23 1
  37   21   22 ar
  38   21   38 1
  39   22   39 1
  40   23   24 1
  41   24   40 1
  42   24   41 1
  43   24   42 1
  44   25   26 1
  45   26   43 1
  46   26   44 1
  47   26   45 1

#	End of record

