#	Name: ASD01230266
#	Creating user name:	WinNT
#	Creation time:	15. 06. 2019 19:12

#	Modifying user name:	WinNT
#	Modification time:	15. 06. 2019 19:12

#	Program:	/corina/corina34_cracker 3.40 0067  02.08.2006

@<TRIPOS>MOLECULE
ASD01230266
  48   51    0    0    0
SMALL
NO_CHARGES


@<TRIPOS>ATOM
   1 S1             1.8668    -4.6539    -3.3163 S.o2    
   2 N2             1.1482    -3.8611    -2.0533 N.am    
   3 C3             1.6539    -2.7712    -1.5400 C.2     
   4 N4             2.7997    -2.1549    -1.9564 N.pl3   
   5 C5             3.6708    -2.6621    -3.0157 C.3     
   6 C6             2.8436    -3.3400    -4.1128 C.3     
   7 C7             0.9116    -2.1601    -0.4112 C.2     
   8 N8             1.3532    -1.0450     0.1256 N.2     
   9 C9             2.4570    -0.4573    -0.3324 C.2     
  10 C10            3.1739    -0.9814    -1.3439 C.2     
  11 C11            2.9164     0.8314     0.2995 C.3     
  12 C12           -1.3429    -2.0288     0.6503 C.ar    
  13 C13           -0.3165    -2.8012     0.1071 C.ar    
  14 C14           -0.4663    -4.1935     0.0592 C.ar    
  15 C15           -1.6311    -4.7454     0.5550 C.ar    
  16 C16           -2.6092    -3.9090     1.0811 C.ar    
  17 N17           -2.4379    -2.5969     1.1122 N.ar    
  18 O18           -3.7554    -4.4452     1.5691 O.3     
  19 C19           -4.7236    -3.5363     2.0967 C.3     
  20 C20           -6.1262    -4.1158     1.9025 C.3     
  21 C21           -7.1629    -3.1426     2.4675 C.3     
  22 C22           -6.9016    -2.9288     3.9597 C.3     
  23 C23           -5.4990    -2.3493     4.1540 C.3     
  24 C24           -4.4623    -3.3225     3.5890 C.3     
  25 O25            2.7172    -5.6110    -2.7000 O.2     
  26 O26            0.7865    -5.0537    -4.1483 O.2     
  27 H27            4.2312    -1.8333    -3.4481 H       
  28 H28            4.3681    -3.3851    -2.5925 H       
  29 H29            3.5056    -3.7726    -4.8629 H       
  30 H30            2.1780    -2.6132    -4.5785 H       
  31 H31            4.0628    -0.4694    -1.6818 H       
  32 H32            2.2267     1.1116     1.0957 H       
  33 H33            3.9152     0.6967     0.7147 H       
  34 H34            2.9394     1.6179    -0.4547 H       
  35 H35           -1.2371    -0.9550     0.6967 H       
  36 H36            0.3099    -4.8196    -0.3555 H       
  37 H37           -1.7807    -5.8148     0.5339 H       
  38 H38           -4.6490    -2.5824     1.5745 H       
  39 H39           -6.3124    -4.2681     0.8393 H       
  40 H40           -6.2008    -5.0696     2.4247 H       
  41 H41           -7.0883    -2.1887     1.9452 H       
  42 H42           -8.1621    -3.5554     2.3290 H       
  43 H43           -7.6401    -2.2355     4.3623 H       
  44 H44           -6.9762    -3.8827     4.4820 H       
  45 H45           -5.4244    -1.3955     3.6318 H       
  46 H46           -5.3128    -2.1970     5.2172 H       
  47 H47           -4.5369    -4.2763     4.1112 H       
  48 H48           -3.4631    -2.9096     3.7274 H       
@<TRIPOS>BOND
   1    1    2 am
   2    1    6 1
   3    1   25 2
   4    1   26 2
   5    2    3 2
   6    3    4 1
   7    3    7 1
   8    4    5 1
   9    4   10 1
  10    5    6 1
  11    5   27 1
  12    5   28 1
  13    6   29 1
  14    6   30 1
  15    7    8 2
  16    7   13 1
  17    8    9 1
  18    9   10 2
  19    9   11 1
  20   10   31 1
  21   11   32 1
  22   11   33 1
  23   11   34 1
  24   12   13 ar
  25   12   17 ar
  26   12   35 1
  27   13   14 ar
  28   14   15 ar
  29   14   36 1
  30   15   16 ar
  31   15   37 1
  32   16   17 ar
  33   16   18 1
  34   18   19 1
  35   19   20 1
  36   19   24 1
  37   19   38 1
  38   20   21 1
  39   20   39 1
  40   20   40 1
  41   21   22 1
  42   21   41 1
  43   21   42 1
  44   22   23 1
  45   22   43 1
  46   22   44 1
  47   23   24 1
  48   23   45 1
  49   23   46 1
  50   24   47 1
  51   24   48 1

#	End of record

