#	Name: ASD03320215
#	Creating user name:	WinNT
#	Creation time:	15. 06. 2019 20:36

#	Modifying user name:	WinNT
#	Modification time:	15. 06. 2019 20:36

#	Program:	/corina/corina34_cracker 3.40 0067  02.08.2006

@<TRIPOS>MOLECULE
ASD03320215
  36   38    0    0    0
SMALL
NO_CHARGES


@<TRIPOS>ATOM
   1 C1            -0.0535     1.4225     0.2138 C.ar    
   2 C2            -0.0624     0.0446     0.4273 C.ar    
   3 N3            -1.2055    -0.6189     0.4256 N.ar    
   4 C4            -2.3425     0.0192     0.2226 C.ar    
   5 C5            -2.3418     1.4012     0.0083 C.ar    
   6 N6            -1.1973     2.0704     0.0144 N.ar    
   7 C7             1.2283     2.1647     0.2154 C.2     
   8 O8             2.2731     1.5726     0.4028 O.2     
   9 N9             1.2362     3.4965     0.0090 N.am    
  10 C10            2.4350     4.2131     0.1071 C.ar    
  11 C11           -3.6203     2.1182    -0.2199 C.ar    
  12 C12            3.6259     3.6358    -0.3137 C.ar    
  13 C13            4.8077     4.3433    -0.2171 C.ar    
  14 C14            4.8057     5.6303     0.3006 C.ar    
  15 C15            3.6166     6.2076     0.7216 C.ar    
  16 C16            2.4330     5.5037     0.6199 C.ar    
  17 O17            5.9699     6.3262     0.3959 O.3     
  18 C18            5.8943     7.6460     0.9384 C.3     
  19 F19            5.3843     7.5868     2.2398 F       
  20 F20            7.1728     8.2137     0.9640 F       
  21 F21            5.0520     8.4298     0.1426 F       
  22 C22           -4.8445     1.4518    -0.1223 C.ar    
  23 N23           -5.9601     2.1287    -0.3334 N.ar    
  24 C24           -5.9280     3.4124    -0.6318 C.ar    
  25 N25           -4.7950     4.0787    -0.7341 N.ar    
  26 C26           -3.6338     3.4800    -0.5326 C.ar    
  27 H27            0.8661    -0.4813     0.5938 H       
  28 H28           -3.2746    -0.5263     0.2216 H       
  29 H29            0.4113     3.9586    -0.2074 H       
  30 H30            3.6277     2.6335    -0.7161 H       
  31 H31            5.7339     3.8944    -0.5443 H       
  32 H32            3.6159     7.2093     1.1252 H       
  33 H33            1.5073     5.9532     0.9477 H       
  34 H34           -4.8787     0.4002     0.1214 H       
  35 H35           -6.8588     3.9344    -0.7980 H       
  36 H36           -2.7097     4.0324    -0.6179 H       
@<TRIPOS>BOND
   1    1    2 ar
   2    1    7 1
   3    1    6 ar
   4    2    3 ar
   5    2   27 1
   6    3    4 ar
   7    4    5 ar
   8    4   28 1
   9    5    6 ar
  10    5   11 1
  11    7    8 2
  12    7    9 am
  13    9   10 1
  14    9   29 1
  15   10   12 ar
  16   10   16 ar
  17   11   22 ar
  18   11   26 ar
  19   12   13 ar
  20   12   30 1
  21   13   14 ar
  22   13   31 1
  23   14   15 ar
  24   14   17 1
  25   15   16 ar
  26   15   32 1
  27   16   33 1
  28   17   18 1
  29   18   19 1
  30   18   20 1
  31   18   21 1
  32   22   23 ar
  33   22   34 1
  34   23   24 ar
  35   24   25 ar
  36   24   35 1
  37   25   26 ar
  38   26   36 1

#	End of record

