#	Name: ASD05143010
#	Creating user name:	WinNT
#	Creation time:	15. 06. 2019 20:57

#	Modifying user name:	WinNT
#	Modification time:	15. 06. 2019 20:57

#	Program:	/corina/corina34_cracker 3.40 0067  02.08.2006

@<TRIPOS>MOLECULE
ASD05143010
  34   35    0    0    0
SMALL
NO_CHARGES


@<TRIPOS>ATOM
   1 C1            -0.1994     1.5002    -0.0401 C.ar    
   2 C2            -0.2923     0.1102    -0.0615 C.ar    
   3 C3             1.0381     2.1229    -0.0159 C.ar    
   4 C4             2.1942     1.3577    -0.0130 C.ar    
   5 C5             2.0940    -0.0462    -0.0347 C.ar    
   6 C6             0.8359    -0.6582    -0.0585 C.ar    
   7 O7             3.4101     1.9445     0.0099 O.3     
   8 C8             4.5387     1.2179     0.0126 C.2     
   9 C9             4.5122    -0.1917    -0.0088 C.2     
  10 C10            3.3213    -0.8450    -0.0314 C.2     
  11 C11            1.1271     3.6271     0.0066 C.3     
  12 C12            1.1393     4.1083     1.4347 C.2     
  13 C13            2.1079     4.8827     1.8568 C.2     
  14 C14            3.2785     5.1836     0.9567 C.3     
  15 O15            5.6132     1.7909     0.0337 O.2     
  16 O16           -1.3306     2.2506    -0.0485 O.3     
  17 C17           -2.5747     1.5484    -0.0797 C.3     
  18 C18            2.0516     5.4725     3.2424 C.3     
  19 H19           -1.2632    -0.3624    -0.0802 H       
  20 H20            0.7577    -1.7353    -0.0748 H       
  21 H21            5.4363    -0.7506    -0.0068 H       
  22 H22            3.2809    -1.9241    -0.0484 H       
  23 H23            2.0433     3.9444    -0.4914 H       
  24 H24            0.2666     4.0498    -0.5119 H       
  25 H25            0.3494     3.8146     2.1102 H       
  26 H26            3.0321     6.0253     0.3094 H       
  27 H27            4.1484     5.4345     1.5636 H       
  28 H28            3.5017     4.3087     0.3460 H       
  29 H29           -3.3963     2.2648    -0.0834 H       
  30 H30           -2.6234     0.9351    -0.9795 H       
  31 H31           -2.6536     0.9097     0.8000 H       
  32 H32            2.5334     4.7937     3.9461 H       
  33 H33            2.5695     6.4316     3.2503 H       
  34 H34            1.0113     5.6189     3.5330 H       
@<TRIPOS>BOND
   1    1    2 ar
   2    1    3 ar
   3    1   16 1
   4    2    6 ar
   5    2   19 1
   6    3    4 ar
   7    3   11 1
   8    4    5 ar
   9    4    7 1
  10    5    6 ar
  11    5   10 1
  12    6   20 1
  13    7    8 1
  14    8    9 1
  15    8   15 2
  16    9   10 2
  17    9   21 1
  18   10   22 1
  19   11   12 1
  20   11   23 1
  21   11   24 1
  22   12   13 2
  23   12   25 1
  24   13   14 1
  25   13   18 1
  26   14   26 1
  27   14   27 1
  28   14   28 1
  29   16   17 1
  30   17   29 1
  31   17   30 1
  32   17   31 1
  33   18   32 1
  34   18   33 1
  35   18   34 1

#	End of record

