#	Name: ASD01200257
#	Creating user name:	WinNT
#	Creation time:	15. 06. 2019 19:08

#	Modifying user name:	WinNT
#	Modification time:	15. 06. 2019 19:08

#	Program:	/corina/corina34_cracker 3.40 0067  02.08.2006

@<TRIPOS>MOLECULE
ASD01200257
  36   37    0    0    0
SMALL
NO_CHARGES


@<TRIPOS>ATOM
   1 C1            -0.0184     1.5028     0.0103 C.2     
   2 C2             0.0021    -0.0041     0.0020 C.3     
   3 C3             1.4513    -0.4944    -0.0145 C.3     
   4 O4             1.0232     2.1232     0.0037 O.2     
   5 N5            -1.1946     2.1607     0.0195 N.am    
   6 C6            -0.6897    -0.5226     1.2364 C.ar    
   7 C7            -1.8040    -1.3319     1.1154 C.ar    
   8 C8            -2.4388    -1.8084     2.2479 C.ar    
   9 C9            -1.9577    -1.4743     3.5028 C.ar    
  10 C10           -0.8428    -0.6646     3.6220 C.ar    
  11 C11           -0.2063    -0.1935     2.4888 C.ar    
  12 Cl12          -2.7538    -2.0711     4.9254 Cl      
  13 Cl13          -3.8384    -2.8243     2.0965 Cl      
  14 C14            2.1173    -0.0733    -1.3260 C.3     
  15 C15            3.6158    -0.4123    -1.3925 C.3     
  16 C16            3.3806    -0.8085    -2.8597 C.3     
  17 C17            1.9186    -1.0823    -2.4694 C.3     
  18 C18           -1.2129     3.5083     0.0269 C.2     
  19 N19           -2.3891     4.1663     0.0360 N.am    
  20 O20           -0.1687     4.1303     0.0253 O.2     
  21 H21           -0.5153    -0.3696    -0.8850 H       
  22 H22            1.9924    -0.0570     0.8246 H       
  23 H23            1.4682    -1.5810     0.0691 H       
  24 H24           -2.0280     1.6644     0.0207 H       
  25 H25           -2.1789    -1.5918     0.1364 H       
  26 H26           -0.4671    -0.4037     4.6003 H       
  27 H27            0.6667     0.4355     2.5822 H       
  28 H28            1.8895     0.9554    -1.6051 H       
  29 H29            4.2653     0.4548    -1.2731 H       
  30 H30            3.9030    -1.2486    -0.7551 H       
  31 H31            3.4981     0.0189    -3.5596 H       
  32 H32            3.9261    -1.7019    -3.1636 H       
  33 H33            1.7418    -2.1017    -2.1264 H       
  34 H34            1.1980    -0.7560    -3.2193 H       
  35 H35           -3.2225     3.6699     0.0373 H       
  36 H36           -2.4022     5.1362     0.0414 H       
@<TRIPOS>BOND
   1    1    2 1
   2    1    4 2
   3    1    5 am
   4    2    3 1
   5    2    6 1
   6    2   21 1
   7    3   14 1
   8    3   22 1
   9    3   23 1
  10    5   18 am
  11    5   24 1
  12    6    7 ar
  13    6   11 ar
  14    7    8 ar
  15    7   25 1
  16    8    9 ar
  17    8   13 1
  18    9   10 ar
  19    9   12 1
  20   10   11 ar
  21   10   26 1
  22   11   27 1
  23   14   15 1
  24   14   17 1
  25   14   28 1
  26   15   16 1
  27   15   29 1
  28   15   30 1
  29   16   17 1
  30   16   31 1
  31   16   32 1
  32   17   33 1
  33   17   34 1
  34   18   19 am
  35   18   20 2
  36   19   35 1
  37   19   36 1

#	End of record

