#	Name: ASD02030506
#	Creating user name:	WinNT
#	Creation time:	15. 06. 2019 20:15

#	Modifying user name:	WinNT
#	Modification time:	15. 06. 2019 20:15

#	Program:	/corina/corina34_cracker 3.40 0067  02.08.2006

@<TRIPOS>MOLECULE
ASD02030506
  55   58    0    0    0
SMALL
NO_CHARGES


@<TRIPOS>ATOM
   1 N1            -0.1431     1.2414     0.4909 N.am    
   2 C2            -0.3906    -0.2072     0.5005 C.3     
   3 C3            -1.4479    -0.5167     1.5676 C.3     
   4 N4            -2.5852     0.3949     1.3800 N.am    
   5 C5            -2.3377     1.8436     1.3705 C.3     
   6 C6            -1.2812     2.1532     0.3090 C.3     
   7 C7             1.1045     1.7252     0.6517 C.2     
   8 C8             2.2189     0.8061     0.9661 C.2     
   9 N9             3.4506     1.1577     1.2664 N.2     
  10 N10            2.1508    -0.5374     1.0012 N.2     
  11 C11            3.3415    -0.9791     1.3170 C.2     
  12 N12            4.1440     0.0928     1.4799 N.pl3   
  13 O13            1.3135     2.9173     0.5381 O.2     
  14 C14           -3.8329    -0.0888     1.2193 C.2     
  15 C15           -4.0516    -1.5359     1.1241 C.2     
  16 O16           -4.7779     0.6751     1.1531 O.2     
  17 C17           -0.8104     3.6011     0.4602 C.3     
  18 C18           -1.8776     1.9464    -1.0847 C.3     
  19 C19            5.5023     0.0547     1.8228 C.ar    
  20 C20            6.2182     1.2360     1.9599 C.ar    
  21 C21            7.5579     1.1951     2.2988 C.ar    
  22 C22            8.1845    -0.0221     2.5005 C.ar    
  23 C23            7.4730    -1.2000     2.3644 C.ar    
  24 C24            6.1331    -1.1648     2.0317 C.ar    
  25 Cl25           8.4547     2.6715     2.4707 Cl      
  26 C26           -5.2362    -2.1510     0.8364 C.2     
  27 O27           -3.1164    -2.4923     1.2997 O.3     
  28 C28           -3.6770    -3.6976     1.1360 C.2     
  29 C29           -4.9869    -3.5323     0.8484 C.2     
  30 C30           -2.9636    -5.0201     1.2505 C.3     
  31 C31           -2.4101    -5.4211    -0.1184 C.3     
  32 H32           -0.7546    -0.5226    -0.4774 H       
  33 H33            0.5334    -0.7347     0.7372 H       
  34 H34           -1.7842    -1.5480     1.4610 H       
  35 H35           -1.0206    -0.3693     2.5594 H       
  36 H36           -3.2618     2.3710     1.1337 H       
  37 H37           -1.9738     2.1590     2.3483 H       
  38 H38            3.6288    -2.0141     1.4299 H       
  39 H39           -0.2816     3.7143     1.4065 H       
  40 H40           -0.1412     3.8533    -0.3624 H       
  41 H41           -1.6730     4.2672     0.4440 H       
  42 H42           -2.7304     2.6123    -1.2175 H       
  43 H43           -1.1229     2.1677    -1.8394 H       
  44 H44           -2.2046     0.9119    -1.1902 H       
  45 H45            5.7293     2.1860     1.8018 H       
  46 H46            9.2314    -0.0522     2.7645 H       
  47 H47            7.9648    -2.1485     2.5221 H       
  48 H48            5.5782    -2.0853     1.9259 H       
  49 H49           -6.1817    -1.6683     0.6381 H       
  50 H50           -5.7067    -4.3158     0.6624 H       
  51 H51           -2.1429    -4.9298     1.9620 H       
  52 H52           -3.6628    -5.7812     1.5969 H       
  53 H53           -1.7110    -4.6600    -0.4647 H       
  54 H54           -1.8941    -6.3777    -0.0356 H       
  55 H55           -3.2308    -5.5114    -0.8299 H       
@<TRIPOS>BOND
   1    1    2 1
   2    1    7 am
   3    1    6 1
   4    2    3 1
   5    2   32 1
   6    2   33 1
   7    3    4 1
   8    3   34 1
   9    3   35 1
  10    4    5 1
  11    4   14 am
  12    5    6 1
  13    5   36 1
  14    5   37 1
  15    6   17 1
  16    6   18 1
  17    7    8 1
  18    7   13 2
  19    8    9 2
  20    8   10 1
  21    9   12 1
  22   10   11 2
  23   11   12 1
  24   11   38 1
  25   12   19 1
  26   14   15 1
  27   14   16 2
  28   15   27 1
  29   15   26 2
  30   17   39 1
  31   17   40 1
  32   17   41 1
  33   18   42 1
  34   18   43 1
  35   18   44 1
  36   19   20 ar
  37   19   24 ar
  38   20   21 ar
  39   20   45 1
  40   21   22 ar
  41   21   25 1
  42   22   23 ar
  43   22   46 1
  44   23   24 ar
  45   23   47 1
  46   24   48 1
  47   26   29 1
  48   26   49 1
  49   27   28 1
  50   28   29 2
  51   28   30 1
  52   29   50 1
  53   30   31 1
  54   30   51 1
  55   30   52 1
  56   31   53 1
  57   31   54 1
  58   31   55 1

#	End of record

