#	Name: ASD04230112
#	Creating user name:	WinNT
#	Creation time:	15. 06. 2019 20:48

#	Modifying user name:	WinNT
#	Modification time:	15. 06. 2019 20:48

#	Program:	/corina/corina34_cracker 3.40 0067  02.08.2006

@<TRIPOS>MOLECULE
ASD04230112
  45   48    0    0    0
SMALL
NO_CHARGES


@<TRIPOS>ATOM
   1 C1             1.5359     4.6862     1.7200 C.ar    
   2 C2             2.5438     5.3840     2.3697 C.ar    
   3 C3             3.8003     4.8590     2.4684 C.ar    
   4 C4             4.0824     3.6080     1.9006 C.ar    
   5 C5             3.0563     2.8818     1.2694 C.ar    
   6 C6             1.7831     3.4396     1.1728 C.ar    
   7 C7             5.3933     3.0678     1.9623 C.2     
   8 C8             5.6627     1.9284     1.2158 C.2     
   9 C9             4.5671     1.3877     0.3906 C.2     
  10 O10            3.2978     1.6422     0.7795 O.3     
  11 C11            6.9878     1.2871     1.2467 C.2     
  12 N12            7.2188     0.1818     0.5109 N.am    
  13 O13            7.8739     1.7548     1.9362 O.2     
  14 C14            8.5059    -0.3623     0.4514 C.ar    
  15 C15            8.6753    -1.7390     0.3692 C.ar    
  16 C16            9.9457    -2.2803     0.3103 C.ar    
  17 C17           11.0532    -1.4565     0.3333 C.ar    
  18 C18           10.8927    -0.0742     0.4156 C.ar    
  19 C19            9.6135     0.4724     0.4687 C.ar    
  20 C20           12.0821     0.8126     0.4409 C.ar    
  21 O21            4.7981     0.7334    -0.6090 O.2     
  22 O22            0.7868     2.7609     0.5437 O.3     
  23 C23           11.9312     2.1937     0.5229 C.ar    
  24 N24           12.9852     2.9850     0.5451 N.ar    
  25 C25           14.2171     2.5060     0.4915 C.ar    
  26 C26           14.4479     1.1376     0.4089 C.ar    
  27 C27           13.3715     0.2719     0.3883 C.ar    
  28 O28           15.2694     3.3617     0.5169 O.3     
  29 C29           14.9697     4.7563     0.6020 C.3     
  30 H30            0.5487     5.1178     1.6445 H       
  31 H31            2.3326     6.3514     2.8011 H       
  32 H32            4.5762     5.4065     2.9827 H       
  33 H33            6.1575     3.5287     2.5705 H       
  34 H34            6.4924    -0.2364     0.0225 H       
  35 H35            7.8121    -2.3878     0.3516 H       
  36 H36           10.0723    -3.3509     0.2465 H       
  37 H37           12.0443    -1.8831     0.2878 H       
  38 H38            9.4840     1.5427     0.5326 H       
  39 H39            0.2742     2.1848     1.1271 H       
  40 H40           10.9406     2.6215     0.5685 H       
  41 H41           15.4571     0.7555     0.3655 H       
  42 H42           13.5215    -0.7957     0.3250 H       
  43 H43           14.3719     5.0527    -0.2599 H       
  44 H44           14.4104     4.9526     1.5168 H       
  45 H45           15.8980     5.3274     0.6141 H       
@<TRIPOS>BOND
   1    1    2 ar
   2    1    6 ar
   3    1   30 1
   4    2    3 ar
   5    2   31 1
   6    3    4 ar
   7    3   32 1
   8    4    5 ar
   9    4    7 1
  10    5    6 ar
  11    5   10 1
  12    6   22 1
  13    7    8 2
  14    7   33 1
  15    8    9 1
  16    8   11 1
  17    9   10 1
  18    9   21 2
  19   11   12 am
  20   11   13 2
  21   12   14 1
  22   12   34 1
  23   14   15 ar
  24   14   19 ar
  25   15   16 ar
  26   15   35 1
  27   16   17 ar
  28   16   36 1
  29   17   18 ar
  30   17   37 1
  31   18   19 ar
  32   18   20 1
  33   19   38 1
  34   20   23 ar
  35   20   27 ar
  36   22   39 1
  37   23   24 ar
  38   23   40 1
  39   24   25 ar
  40   25   26 ar
  41   25   28 1
  42   26   27 ar
  43   26   41 1
  44   27   42 1
  45   28   29 1
  46   29   43 1
  47   29   44 1
  48   29   45 1

#	End of record

