#	Name: ASD01881701
#	Creating user name:	WinNT
#	Creation time:	15. 06. 2019 19:43

#	Modifying user name:	WinNT
#	Modification time:	15. 06. 2019 19:43

#	Program:	/corina/corina34_cracker 3.40 0067  02.08.2006

@<TRIPOS>MOLECULE
ASD01881701
  55   58    0    0    0
SMALL
NO_CHARGES


@<TRIPOS>ATOM
   1 C1            -0.0979     1.5246    -0.3493 C.3     
   2 C2            -0.0548    -0.0033    -0.2823 C.3     
   3 C3            -1.4266    -0.5342     0.1385 C.3     
   4 O4             0.2849    -0.5271    -1.5677 O.3     
   5 N5            -1.4067    -2.0031     0.1305 N.3     
   6 C6            -2.6836    -2.5495     0.6088 C.3     
   7 C7            -2.6894    -4.0697     0.4154 C.3     
   8 N8            -1.4925    -4.6276     1.0631 N.am    
   9 C9            -0.1855    -4.0375     0.7364 C.3     
  10 C10           -0.2783    -2.5186     0.9172 C.3     
  11 S11           -1.6134    -5.8865     2.1321 S.o2    
  12 O12           -0.4755    -5.7441     2.9713 O.2     
  13 O13           -2.9293    -5.7753     2.6570 O.2     
  14 C14           -1.4625    -7.3716     1.1015 C.3     
  15 O15            1.2107     2.0264    -0.6282 O.3     
  16 N16            2.0313     7.4253    -1.0545 N.pl3   
  17 N17            3.4073     7.3522    -1.3174 N.2     
  18 N18            3.7763     6.1199    -1.3277 N.2     
  19 C19            2.7239     5.3136    -1.0838 C.ar    
  20 C20            1.5931     6.1293    -0.9053 C.ar    
  21 C21            2.5860     3.9220    -0.9888 C.ar    
  22 C22            1.3475     3.3761    -0.7213 C.ar    
  23 C23            0.2363     4.1973    -0.5466 C.ar    
  24 C24            0.3553     5.5555    -0.6377 C.ar    
  25 C25            1.2216     8.6419    -0.9525 C.3     
  26 C26            0.6655     9.0016    -2.3318 C.3     
  27 C27           -0.3060    10.1804    -2.4163 C.3     
  28 C28            1.1193    10.3238    -2.9537 C.3     
  29 Br29           4.0891     2.7992    -1.2248 Br      
  30 H30           -0.7819     1.8345    -1.1394 H       
  31 H31           -0.4430     1.9206     0.6058 H       
  32 H32            0.6941    -0.3140     0.4462 H       
  33 H33           -1.6613    -0.1796     1.1422 H       
  34 H34           -2.1841    -0.1773    -0.5593 H       
  35 H35           -0.3397    -0.2896    -2.2667 H       
  36 H36           -2.8052    -2.3170     1.6667 H       
  37 H37           -3.5034    -2.1077     0.0423 H       
  38 H38           -3.5839    -4.4935     0.8718 H       
  39 H39           -2.6722    -4.3034    -0.6491 H       
  40 H40            0.5754    -4.4400     1.4051 H       
  41 H41            0.0723    -4.2681    -0.2972 H       
  42 H42            0.6463    -2.0543     0.5744 H       
  43 H43           -0.4334    -2.2865     1.9709 H       
  44 H44           -0.4999    -7.3629     0.5904 H       
  45 H45           -1.5318    -8.2590     1.7307 H       
  46 H46           -2.2653    -7.3854     0.3643 H       
  47 H47           -0.7276     3.7570    -0.3380 H       
  48 H48           -0.5125     6.1837    -0.5008 H       
  49 H49            0.3964     8.4722    -0.2610 H       
  50 H50            1.8406     9.4607    -0.5856 H       
  51 H51            0.4962     8.1606    -3.0043 H       
  52 H52           -1.1143    10.1152    -3.1447 H       
  53 H53           -0.5491    10.6998    -1.4894 H       
  54 H54            1.8140    10.9375    -2.3802 H       
  55 H55            1.2488    10.3529    -4.0355 H       
@<TRIPOS>BOND
   1    1    2 1
   2    1   15 1
   3    1   30 1
   4    1   31 1
   5    2    3 1
   6    2    4 1
   7    2   32 1
   8    3    5 1
   9    3   33 1
  10    3   34 1
  11    4   35 1
  12    5    6 1
  13    5   10 1
  14    6    7 1
  15    6   36 1
  16    6   37 1
  17    7    8 1
  18    7   38 1
  19    7   39 1
  20    8    9 1
  21    8   11 am
  22    9   10 1
  23    9   40 1
  24    9   41 1
  25   10   42 1
  26   10   43 1
  27   11   12 2
  28   11   13 2
  29   11   14 1
  30   14   44 1
  31   14   45 1
  32   14   46 1
  33   15   22 1
  34   16   17 1
  35   16   20 1
  36   16   25 1
  37   17   18 2
  38   18   19 1
  39   19   20 ar
  40   19   21 ar
  41   20   24 ar
  42   21   22 ar
  43   21   29 1
  44   22   23 ar
  45   23   24 ar
  46   23   47 1
  47   24   48 1
  48   25   26 1
  49   25   49 1
  50   25   50 1
  51   26   27 1
  52   26   28 1
  53   26   51 1
  54   27   28 1
  55   27   52 1
  56   27   53 1
  57   28   54 1
  58   28   55 1

#	End of record

