#	Name: ASD02900027
#	Creating user name:	WinNT
#	Creation time:	15. 06. 2019 20:26

#	Modifying user name:	WinNT
#	Modification time:	15. 06. 2019 20:26

#	Program:	/corina/corina34_cracker 3.40 0067  02.08.2006

@<TRIPOS>MOLECULE
ASD02900027
  32   32    0    0    0
SMALL
NO_CHARGES


@<TRIPOS>ATOM
   1 P1            -0.0198     1.6058     0.0109 P.3     
   2 C2             0.8241    -7.5834    -3.4968 C.ar    
   3 C3             1.0730    -7.0894    -4.7642 C.ar    
   4 C4             1.3238    -5.7423    -4.9481 C.ar    
   5 C5             1.3262    -4.8822    -3.8661 C.ar    
   6 C6             1.0774    -5.3707    -2.5918 C.ar    
   7 C7             0.8251    -6.7283    -2.4072 C.ar    
   8 O8             0.5800    -7.2128    -1.1602 O.3     
   9 N9             1.0801    -4.5019    -1.4943 N.pl3   
  10 C10            1.3461    -3.0747    -1.6906 C.3     
  11 C11            0.5083    -2.2594    -0.7035 C.3     
  12 C12            0.6906    -0.7676    -0.9904 C.3     
  13 O13            0.0021    -0.0041     0.0020 O.3     
  14 O14            1.3687     2.1180     0.0004 O.2     
  15 O15           -0.7984     2.1391    -1.2935 O.3     
  16 O16           -0.7733     2.1250     1.3355 O.3     
  17 O17            2.7331    -2.8135    -1.4673 O.3     
  18 O18           -0.8702    -2.6073    -0.8478 O.3     
  19 H19            0.6245    -8.6356    -3.3571 H       
  20 H20            1.0718    -7.7577    -5.6125 H       
  21 H21            1.5180    -5.3610    -5.9398 H       
  22 H22            1.5232    -3.8304    -4.0125 H       
  23 H23            1.3731    -7.4983    -0.6863 H       
  24 H24            0.9059    -4.8449    -0.6039 H       
  25 H25            1.0827    -2.7929    -2.7100 H       
  26 H26            0.8330    -2.4760     0.3142 H       
  27 H27            1.7519    -0.5203    -0.9676 H       
  28 H28            0.2843    -0.5347    -1.9747 H       
  29 H29           -1.7167     1.8416    -1.3524 H       
  30 H30           -0.8240     3.0880     1.4073 H       
  31 H31            3.0381    -3.0410    -0.5783 H       
  32 H32           -1.2275    -2.4408    -1.7309 H       
@<TRIPOS>BOND
   1    1   13 1
   2    1   14 2
   3    1   15 1
   4    1   16 1
   5    2    3 ar
   6    2    7 ar
   7    2   19 1
   8    3    4 ar
   9    3   20 1
  10    4    5 ar
  11    4   21 1
  12    5    6 ar
  13    5   22 1
  14    6    7 ar
  15    6    9 1
  16    7    8 1
  17    8   23 1
  18    9   10 1
  19    9   24 1
  20   10   11 1
  21   10   17 1
  22   10   25 1
  23   11   12 1
  24   11   18 1
  25   11   26 1
  26   12   13 1
  27   12   27 1
  28   12   28 1
  29   15   29 1
  30   16   30 1
  31   17   31 1
  32   18   32 1

#	End of record

