#	Name: ASD05430557
#	Creating user name:	WinNT
#	Creation time:	15. 06. 2019 21:00

#	Modifying user name:	WinNT
#	Modification time:	15. 06. 2019 21:00

#	Program:	/corina/corina34_cracker 3.40 0067  02.08.2006

@<TRIPOS>MOLECULE
ASD05430557
  32   33    0    0    0
SMALL
NO_CHARGES


@<TRIPOS>ATOM
   1 C1            -0.0170     1.3989     0.0097 C.ar    
   2 C2             0.0021    -0.0041     0.0020 C.ar    
   3 C3             1.1765     2.1049     0.0021 C.ar    
   4 C4             2.3765     1.4254    -0.0130 C.ar    
   5 C5             2.3996     0.0384    -0.0206 C.ar    
   6 C6             1.2241    -0.6785    -0.0137 C.ar    
   7 C7             1.1623     3.6118     0.0099 C.3     
   8 C8             1.2568    -2.1851    -0.0216 C.3     
   9 C9             1.9776    -2.6730    -1.2798 C.3     
  10 C10            2.0001    -2.6856     1.2185 C.3     
  11 C11            1.8903     4.1223     1.2549 C.3     
  12 C12            1.8670     4.1349    -1.2434 C.3     
  13 N13           -1.2969    -0.4087     0.0123 N.2     
  14 C14           -2.0623     0.6409     0.0252 C.2     
  15 O15           -1.3192     1.7588     0.0187 O.3     
  16 H16            3.3049     1.9771    -0.0192 H       
  17 H17            3.3456    -0.4824    -0.0328 H       
  18 H18            0.1313     3.9654     0.0213 H       
  19 H19            0.2373    -2.5706    -0.0144 H       
  20 H20            2.9971    -2.2875    -1.2871 H       
  21 H21            2.0012    -3.7627    -1.2856 H       
  22 H22            1.4481    -2.3164    -2.1633 H       
  23 H23            1.4866    -2.3380     2.1149 H       
  24 H24            2.0237    -3.7753     1.2128 H       
  25 H25            3.0196    -2.3001     1.2113 H       
  26 H26            2.9213     3.7688     1.2435 H       
  27 H27            1.8800     5.2123     1.2605 H       
  28 H28            1.3883     3.7497     2.1478 H       
  29 H29            1.3483     3.7712    -2.1304 H       
  30 H30            1.8567     5.2249    -1.2378 H       
  31 H31            2.8980     3.7814    -1.2548 H       
  32 H32           -3.1419     0.6175     0.0354 H       
@<TRIPOS>BOND
   1    1    2 ar
   2    1    3 ar
   3    1   15 1
   4    2   13 1
   5    2    6 ar
   6    3    4 ar
   7    3    7 1
   8    4    5 ar
   9    4   16 1
  10    5    6 ar
  11    5   17 1
  12    6    8 1
  13    7   11 1
  14    7   12 1
  15    7   18 1
  16    8    9 1
  17    8   10 1
  18    8   19 1
  19    9   20 1
  20    9   21 1
  21    9   22 1
  22   10   23 1
  23   10   24 1
  24   10   25 1
  25   11   26 1
  26   11   27 1
  27   11   28 1
  28   12   29 1
  29   12   30 1
  30   12   31 1
  31   13   14 2
  32   14   15 1
  33   14   32 1

#	End of record

