#	Name: ASD00060025
#	Creating user name:	WinNT
#	Creation time:	15. 06. 2019 18:29

#	Modifying user name:	WinNT
#	Modification time:	15. 06. 2019 18:29

#	Program:	/corina/corina34_cracker 3.40 0067  02.08.2006

@<TRIPOS>MOLECULE
ASD00060025
  38   40    0    0    0
SMALL
NO_CHARGES


@<TRIPOS>ATOM
   1 C1            -2.1769    -4.8158    -1.1927 C.ar    
   2 C2            -2.8670    -3.8461    -1.9055 C.ar    
   3 C3            -3.1190    -2.6158    -1.3298 C.ar    
   4 C4            -2.6842    -2.3507    -0.0444 C.ar    
   5 C5            -1.9958    -3.3153     0.6679 C.ar    
   6 C6            -1.7467    -4.5493     0.0990 C.ar    
   7 C7            -2.9604    -1.0078     0.5812 C.3     
   8 C8            -4.2272    -1.0938     1.4349 C.3     
   9 C9            -4.4254     0.2056     2.1720 C.2     
  10 O10           -4.0769     1.2462     1.6664 O.2     
  11 O11           -4.9890     0.2070     3.3902 O.3     
  12 O12           -1.9277    -6.0268    -1.7569 O.3     
  13 C13           -5.4158    -1.3531     0.5455 C.ar    
  14 C14           -6.1589    -2.4784     0.7308 C.ar    
  15 C15           -7.2677    -2.7233    -0.0967 C.ar    
  16 C16           -7.5950    -1.7917    -1.1136 C.ar    
  17 C17           -6.8044    -0.6415    -1.2746 C.ar    
  18 C18           -5.7408    -0.4346    -0.4505 C.ar    
  19 C19           -8.0585    -3.8741     0.0638 C.ar    
  20 C20           -9.1248    -4.0782    -0.7568 C.ar    
  21 C21           -9.4464    -3.1623    -1.7570 C.ar    
  22 C22           -8.7039    -2.0368    -1.9416 C.ar    
  23 H23           -3.2066    -4.0526    -2.9097 H       
  24 H24           -3.6559    -1.8604    -1.8844 H       
  25 H25           -1.6568    -3.1057     1.6716 H       
  26 H26           -1.2090    -5.3025     0.6557 H       
  27 H27           -2.1177    -0.7193     1.2095 H       
  28 H28           -3.1005    -0.2636    -0.2029 H       
  29 H29           -4.1266    -1.9073     2.1533 H       
  30 H30           -5.0953     1.0648     3.8238 H       
  31 H31           -1.0922    -6.0704    -2.2417 H       
  32 H32           -5.8974    -3.1795     1.5096 H       
  33 H33           -7.0416     0.0768    -2.0455 H       
  34 H34           -5.1349     0.4506    -0.5761 H       
  35 H35           -7.8209    -4.5929     0.8340 H       
  36 H36           -9.7307    -4.9633    -0.6313 H       
  37 H37          -10.2978    -3.3485    -2.3949 H       
  38 H38           -8.9655    -1.3357    -2.7203 H       
@<TRIPOS>BOND
   1    1    2 ar
   2    1   12 1
   3    1    6 ar
   4    2    3 ar
   5    2   23 1
   6    3    4 ar
   7    3   24 1
   8    4    5 ar
   9    4    7 1
  10    5    6 ar
  11    5   25 1
  12    6   26 1
  13    7    8 1
  14    7   27 1
  15    7   28 1
  16    8    9 1
  17    8   13 1
  18    8   29 1
  19    9   10 2
  20    9   11 1
  21   11   30 1
  22   12   31 1
  23   13   14 ar
  24   13   18 ar
  25   14   15 ar
  26   14   32 1
  27   15   16 ar
  28   15   19 ar
  29   16   17 ar
  30   16   22 ar
  31   17   18 ar
  32   17   33 1
  33   18   34 1
  34   19   20 ar
  35   19   35 1
  36   20   21 ar
  37   20   36 1
  38   21   22 ar
  39   21   37 1
  40   22   38 1

#	End of record

