#	Name: ASD01209015
#	Creating user name:	WinNT
#	Creation time:	15. 06. 2019 19:10

#	Modifying user name:	WinNT
#	Modification time:	15. 06. 2019 19:10

#	Program:	/corina/corina34_cracker 3.40 0067  02.08.2006

@<TRIPOS>MOLECULE
ASD01209015
  63   67    0    0    0
SMALL
NO_CHARGES


@<TRIPOS>ATOM
   1 S1             0.3640     1.9746    -0.7301 S.o2    
   2 C2            -6.1957     2.7811    -3.2304 C.3     
   3 C3            -6.1680     1.3091    -3.6471 C.3     
   4 C4            -4.8346     0.9973    -4.3294 C.3     
   5 N5            -3.7516     1.0815    -3.3465 N.pl3   
   6 C6            -2.5896     1.7916    -3.5024 C.ar    
   7 C7            -1.8359     1.5992    -2.3281 C.ar    
   8 C8            -2.6317     0.7277    -1.4690 C.2     
   9 N9            -3.7401     0.4551    -2.0960 N.2     
  10 C10           -2.0788     2.5903    -4.5214 C.ar    
  11 C11           -0.8411     3.1842    -4.3699 C.ar    
  12 C12           -0.0998     2.9900    -3.2053 C.ar    
  13 C13           -0.5843     2.2111    -2.1962 C.ar    
  14 C14           -0.6202     2.7580     0.5769 C.3     
  15 C15           -0.0074     2.8278     1.9771 C.3     
  16 C16           -0.1241     4.0959     1.1290 C.3     
  17 O17            0.3930     0.5647    -0.5551 O.2     
  18 O18            1.5582     2.7086    -0.9629 O.2     
  19 C19           -7.5943     3.1432    -2.7212 C.3     
  20 C20           -7.5913     4.5944    -2.2336 C.3     
  21 O21           -6.6032     4.7507    -1.2132 O.3     
  22 C22           -5.2697     4.4714    -1.6446 C.3     
  23 C23           -5.1794     3.0153    -2.1086 C.3     
  24 C24           -4.8800    -0.3931    -4.9089 C.2     
  25 N25           -5.8031    -0.7053    -5.8400 N.am    
  26 O26           -4.0858    -1.2312    -4.5375 O.2     
  27 C27           -5.8453    -1.9984    -6.3790 C.2     
  28 C28           -4.9912    -3.0607    -6.0420 C.2     
  29 C29           -5.3550    -4.1352    -6.7783 C.2     
  30 N30           -6.3988    -3.7719    -7.5531 N.pl3   
  31 N31           -6.6935    -2.4295    -7.2826 N.2     
  32 C32           -7.1035    -4.6326    -8.5064 C.3     
  33 O33           -0.3417     3.9643    -5.3645 O.3     
  34 C34           -1.1500     4.1235    -6.5321 C.3     
  35 H35           -5.9461     3.4072    -4.0870 H       
  36 H36           -6.2805     0.6795    -2.7644 H       
  37 H37           -6.9858     1.1123    -4.3404 H       
  38 H38           -4.6577     1.7180    -5.1277 H       
  39 H39           -2.3531     0.3756    -0.4868 H       
  40 H40           -2.6475     2.7447    -5.4265 H       
  41 H41            0.8667     3.4606    -3.1013 H       
  42 H42           -1.6979     2.6110     0.5060 H       
  43 H43           -0.6820     2.7271     2.8273 H       
  44 H44            0.9872     2.4029     2.1129 H       
  45 H45            0.7937     4.5053     0.7069 H       
  46 H46           -0.8754     4.8295     1.4213 H       
  47 H47           -8.3165     3.0322    -3.5301 H       
  48 H48           -7.8643     2.4827    -1.8973 H       
  49 H49           -7.3609     5.2576    -3.0674 H       
  50 H50           -8.5727     4.8445    -1.8306 H       
  51 H51           -5.0089     5.1330    -2.4707 H       
  52 H52           -4.5787     4.6329    -0.8173 H       
  53 H53           -5.4007     2.3522    -1.2723 H       
  54 H54           -4.1746     2.8128    -2.4793 H       
  55 H55           -6.4382    -0.0351    -6.1371 H       
  56 H56           -4.1864    -3.0258    -5.3228 H       
  57 H57           -4.8924    -5.1107    -6.7511 H       
  58 H58           -7.9289    -5.1345    -8.0016 H       
  59 H59           -7.4926    -4.0263    -9.3244 H       
  60 H60           -6.4132    -5.3773    -8.9027 H       
  61 H61           -1.3285     3.1487    -6.9860 H       
  62 H62           -2.1026     4.5755    -6.2556 H       
  63 H63           -0.6355     4.7676    -7.2451 H       
@<TRIPOS>BOND
   1    1   17 2
   2    1   18 2
   3    1   13 1
   4    1   14 1
   5    2    3 1
   6    2   19 1
   7    2   23 1
   8    2   35 1
   9    3    4 1
  10    3   36 1
  11    3   37 1
  12    4    5 1
  13    4   24 1
  14    4   38 1
  15    5    6 1
  16    5    9 1
  17    6    7 ar
  18    6   10 ar
  19    7    8 1
  20    7   13 ar
  21    8    9 2
  22    8   39 1
  23   10   11 ar
  24   10   40 1
  25   11   12 ar
  26   11   33 1
  27   12   13 ar
  28   12   41 1
  29   14   15 1
  30   14   16 1
  31   14   42 1
  32   15   16 1
  33   15   43 1
  34   15   44 1
  35   16   45 1
  36   16   46 1
  37   19   20 1
  38   19   47 1
  39   19   48 1
  40   20   21 1
  41   20   49 1
  42   20   50 1
  43   21   22 1
  44   22   23 1
  45   22   51 1
  46   22   52 1
  47   23   53 1
  48   23   54 1
  49   24   25 am
  50   24   26 2
  51   25   27 1
  52   25   55 1
  53   27   28 1
  54   27   31 2
  55   28   29 2
  56   28   56 1
  57   29   30 1
  58   29   57 1
  59   30   31 1
  60   30   32 1
  61   32   58 1
  62   32   59 1
  63   32   60 1
  64   33   34 1
  65   34   61 1
  66   34   62 1
  67   34   63 1

#	End of record

