#	Name: ASD00110022
#	Creating user name:	WinNT
#	Creation time:	15. 06. 2019 18:30

#	Modifying user name:	WinNT
#	Modification time:	15. 06. 2019 18:30

#	Program:	/corina/corina34_cracker 3.40 0067  02.08.2006

@<TRIPOS>MOLECULE
ASD00110022
  68   68    0    0    0
SMALL
NO_CHARGES


@<TRIPOS>ATOM
   1 C1             0.2566     1.3808    -0.2231 C.3     
   2 C2             1.3911     3.5856     0.0696 C.3     
   3 C3             0.6602     4.1307    -1.1303 C.2     
   4 N4             1.1681     3.9542    -2.3662 N.am    
   5 O5            -0.3850     4.7282    -0.9839 O.2     
   6 C6             0.4576     4.4841    -3.5327 C.3     
   7 C7             0.8437     5.9497    -3.7426 C.3     
   8 O8             2.2311     6.0339    -4.0746 O.3     
   9 C9             0.8383     3.6737    -4.7733 C.3     
  10 O10            2.2475     3.7686    -4.9903 O.3     
  11 C11            0.4700    -0.1297    -0.3401 C.3     
  12 C12           -0.8754    -0.8178    -0.5796 C.3     
  13 N13            0.5928     3.8242     1.2787 N.3     
  14 C14           -0.7322     3.2002     1.1720 C.3     
  15 C15           -0.5737     1.6850     1.0270 C.3     
  16 C16            1.6130     2.0819    -0.1083 C.3     
  17 C17            0.4522     2.2082    -4.5633 C.3     
  18 C18           -0.6619    -2.3283    -0.6966 C.3     
  19 C19           -2.0073    -3.0165    -0.9360 C.3     
  20 C20           -1.7939    -4.5270    -1.0530 C.3     
  21 C21           -3.1393    -5.2151    -1.2925 C.3     
  22 C22           -2.9258    -6.7256    -1.4095 C.3     
  23 C23           -4.2712    -7.4137    -1.6490 C.3     
  24 C24           -4.0578    -8.9243    -1.7660 C.3     
  25 C25           -5.4032    -9.6124    -2.0055 C.3     
  26 C26           -5.1897   -11.1229    -2.1225 C.3     
  27 H27           -0.2676     1.7442    -1.1070 H       
  28 H28            2.3547     4.0858     0.1660 H       
  29 H29            2.0041     3.4764    -2.4834 H       
  30 H30           -0.6173     4.4117    -3.3671 H       
  31 H31            0.2497     6.3692    -4.5546 H       
  32 H32            0.6546     6.5100    -2.8270 H       
  33 H33            2.5462     6.9361    -4.2220 H       
  34 H34            0.3097     4.0679    -5.6412 H       
  35 H35            2.7818     3.4350    -4.2566 H       
  36 H36            1.1387    -0.3386    -1.1752 H       
  37 H37            0.9119    -0.5067     0.5823 H       
  38 H38           -1.5440    -0.6090     0.2555 H       
  39 H39           -1.3172    -0.4408    -1.5019 H       
  40 H40            1.0788     3.5023     2.1023 H       
  41 H41           -1.3108     3.4207     2.0690 H       
  42 H42           -1.2509     3.5963     0.2989 H       
  43 H43           -1.5567     1.2237     0.9321 H       
  44 H44           -0.0674     1.2863     1.9061 H       
  45 H45            2.1538     1.6895     0.7529 H       
  46 H46            2.1923     1.9042    -1.0144 H       
  47 H47           -0.6227     2.1358    -4.3978 H       
  48 H48            0.7234     1.6308    -5.4472 H       
  49 H49            0.9808     1.8139    -3.6955 H       
  50 H50            0.0067    -2.5372    -1.5316 H       
  51 H51           -0.2201    -2.7054     0.2258 H       
  52 H52           -2.6760    -2.8076    -0.1010 H       
  53 H53           -2.4492    -2.6394    -1.8584 H       
  54 H54           -1.1252    -4.7358    -1.8881 H       
  55 H55           -1.3520    -4.9040    -0.1307 H       
  56 H56           -3.8079    -5.0062    -0.4575 H       
  57 H57           -3.5811    -4.8381    -2.2149 H       
  58 H58           -2.2572    -6.9345    -2.2446 H       
  59 H59           -2.4840    -7.1027    -0.4872 H       
  60 H60           -4.9399    -7.2049    -0.8139 H       
  61 H61           -4.7131    -7.0367    -2.5714 H       
  62 H62           -3.3891    -9.1331    -2.6011 H       
  63 H63           -3.6159    -9.3013    -0.8437 H       
  64 H64           -6.0718    -9.4035    -1.1704 H       
  65 H65           -5.8450    -9.2354    -2.9278 H       
  66 H66           -6.1482   -11.6131    -2.2931 H       
  67 H67           -4.5211   -11.3318    -2.9576 H       
  68 H68           -4.7479   -11.4999    -1.2002 H       
@<TRIPOS>BOND
   1    1   11 1
   2    1   16 1
   3    1   15 1
   4    1   27 1
   5    2    3 1
   6    2   13 1
   7    2   16 1
   8    2   28 1
   9    3    4 am
  10    3    5 2
  11    4    6 1
  12    4   29 1
  13    6    7 1
  14    6    9 1
  15    6   30 1
  16    7    8 1
  17    7   31 1
  18    7   32 1
  19    8   33 1
  20    9   10 1
  21    9   17 1
  22    9   34 1
  23   10   35 1
  24   11   12 1
  25   11   36 1
  26   11   37 1
  27   12   18 1
  28   12   38 1
  29   12   39 1
  30   13   14 1
  31   13   40 1
  32   14   15 1
  33   14   41 1
  34   14   42 1
  35   15   43 1
  36   15   44 1
  37   16   45 1
  38   16   46 1
  39   17   47 1
  40   17   48 1
  41   17   49 1
  42   18   19 1
  43   18   50 1
  44   18   51 1
  45   19   20 1
  46   19   52 1
  47   19   53 1
  48   20   21 1
  49   20   54 1
  50   20   55 1
  51   21   22 1
  52   21   56 1
  53   21   57 1
  54   22   23 1
  55   22   58 1
  56   22   59 1
  57   23   24 1
  58   23   60 1
  59   23   61 1
  60   24   25 1
  61   24   62 1
  62   24   63 1
  63   25   26 1
  64   25   64 1
  65   25   65 1
  66   26   66 1
  67   26   67 1
  68   26   68 1

#	End of record

