#	Name: ASD04490015
#	Creating user name:	WinNT
#	Creation time:	15. 06. 2019 20:49

#	Modifying user name:	WinNT
#	Modification time:	15. 06. 2019 20:49

#	Program:	/corina/corina34_cracker 3.40 0067  02.08.2006

@<TRIPOS>MOLECULE
ASD04490015
  42   43    0    0    0
SMALL
NO_CHARGES


@<TRIPOS>ATOM
   1 S1            -0.0172     1.4168     0.0098 S.o2    
   2 O2             0.0021    -0.0041     0.0020 O.2     
   3 O3             1.1617     2.2101     0.0028 O.2     
   4 O4            -0.8288     1.8423    -1.2054 O.3     
   5 O5            -0.8054     1.8291     1.2448 O.3     
   6 O6            -0.4748     7.1767    -2.3560 O.3     
   7 C7             0.5996     7.1938    -3.1647 C.2     
   8 C8             1.0806     5.9531    -3.3195 C.2     
   9 C9             0.2134     5.0753    -2.5234 C.ar    
  10 C10           -0.7465     5.9210    -1.9439 C.ar    
  11 C11            0.1840     3.7032    -2.2742 C.ar    
  12 C12           -0.7944     3.1796    -1.4532 C.ar    
  13 C13           -1.7488     4.0196    -0.8771 C.ar    
  14 C14           -1.7257     5.3796    -1.1207 C.ar    
  15 C15            1.1784     8.4295    -3.8044 C.3     
  16 O16           -2.7095     3.4951    -0.0698 O.3     
  17 C17           -3.6567     4.4077     0.4889 C.3     
  18 C18            2.2720     5.5409    -4.1452 C.3     
  19 C19            3.5335     5.5909    -3.2808 C.3     
  20 C20            4.7248     5.1787    -4.1065 C.2     
  21 O21            4.5799     4.8761    -5.2672 O.2     
  22 O22            5.9471     5.1479    -3.5524 O.3     
  23 C23            7.0482     4.7413    -4.4072 C.3     
  24 C24            8.3517     4.7671    -3.6065 C.3     
  25 H25           -0.3741     1.6030     2.0803 H       
  26 H26            0.9227     3.0542    -2.7209 H       
  27 H27           -2.4681     6.0217    -0.6701 H       
  28 H28            0.5923     9.2999    -3.5092 H       
  29 H29            2.2102     8.5584    -3.4777 H       
  30 H30            1.1511     8.3239    -4.8889 H       
  31 H31           -4.3652     3.8606     1.1108 H       
  32 H32           -3.1345     5.1465     1.0968 H       
  33 H33           -4.1929     4.9122    -0.3150 H       
  34 H34            2.1246     4.5260    -4.5145 H       
  35 H35            2.3825     6.2221    -4.9889 H       
  36 H36            3.6809     6.6058    -2.9115 H       
  37 H37            3.4230     4.9097    -2.4371 H       
  38 H38            6.8682     3.7315    -4.7760 H       
  39 H39            7.1261     5.4276    -5.2504 H       
  40 H40            8.5317     5.7769    -3.2377 H       
  41 H41            8.2738     4.0808    -2.7633 H       
  42 H42            9.1783     4.4619    -4.2481 H       
@<TRIPOS>BOND
   1    1    2 2
   2    1    3 2
   3    1    4 1
   4    1    5 1
   5    4   12 1
   6    5   25 1
   7    6    7 1
   8    6   10 1
   9    7    8 2
  10    7   15 1
  11    8    9 1
  12    8   18 1
  13    9   10 ar
  14    9   11 ar
  15   10   14 ar
  16   11   12 ar
  17   11   26 1
  18   12   13 ar
  19   13   14 ar
  20   13   16 1
  21   14   27 1
  22   15   28 1
  23   15   29 1
  24   15   30 1
  25   16   17 1
  26   17   31 1
  27   17   32 1
  28   17   33 1
  29   18   19 1
  30   18   34 1
  31   18   35 1
  32   19   20 1
  33   19   36 1
  34   19   37 1
  35   20   21 2
  36   20   22 1
  37   22   23 1
  38   23   24 1
  39   23   38 1
  40   23   39 1
  41   24   40 1
  42   24   41 1
  43   24   42 1

#	End of record

