#	Name: ASD01150748
#	Creating user name:	WinNT
#	Creation time:	15. 06. 2019 19:04

#	Modifying user name:	WinNT
#	Modification time:	15. 06. 2019 19:04

#	Program:	/corina/corina34_cracker 3.40 0067  02.08.2006

@<TRIPOS>MOLECULE
ASD01150748
  39   41    0    0    0
SMALL
NO_CHARGES


@<TRIPOS>ATOM
   1 C1             0.0406     1.4786     0.4554 C.2     
   2 C2            -0.8230     1.0292    -0.6949 C.3     
   3 F3            -2.1310     1.4868    -0.5028 F       
   4 F4            -0.3169     1.5517    -1.8899 F       
   5 F5            -0.8227    -0.3683    -0.7600 F       
   6 N6             3.4358     2.7924    -0.2047 N.ar    
   7 C7             2.4439     1.9672     0.0036 C.ar    
   8 C8             1.1332     2.4289     0.2244 C.ar    
   9 C9             0.8838     3.8137     0.2203 C.ar    
  10 C10            1.9816     4.6799    -0.0091 C.ar    
  11 C11            1.8146     6.0706    -0.0289 C.ar    
  12 C12            2.9050     6.8819    -0.2554 C.ar    
  13 C13            4.1701     6.3273    -0.4645 C.ar    
  14 C14            4.3552     4.9788    -0.4500 C.ar    
  15 C15            3.2661     4.1219    -0.2217 C.ar    
  16 O16            2.7486     8.2317    -0.2761 O.3     
  17 C17            3.9183     9.0167    -0.5160 C.3     
  18 F18            4.4572     8.6816    -1.7628 F       
  19 F19            3.5795    10.3740    -0.5039 F       
  20 F20            4.8633     8.7631     0.4839 F       
  21 C21            2.7107     0.4841     0.0080 C.3     
  22 C22           -0.4751     4.3460     0.4468 C.ar    
  23 C23           -1.1039     4.1608     1.6808 C.ar    
  24 C24           -2.3736     4.6610     1.8865 C.ar    
  25 C25           -3.0249     5.3469     0.8695 C.ar    
  26 C26           -2.4046     5.5321    -0.3556 C.ar    
  27 C27           -1.1338     5.0414    -0.5698 C.ar    
  28 F28           -4.2678     5.8348     1.0753 F       
  29 F29           -2.9840     4.4828     3.0786 F       
  30 O30           -0.1714     1.0581     1.5735 O.2     
  31 H31            0.8383     6.5036     0.1319 H       
  32 H32            5.0137     6.9782    -0.6405 H       
  33 H33            5.3403     4.5676    -0.6139 H       
  34 H34            2.8637     0.1454     1.0327 H       
  35 H35            1.8582    -0.0398    -0.4243 H       
  36 H36            3.6033     0.2738    -0.5812 H       
  37 H37           -0.5977     3.6271     2.4716 H       
  38 H38           -2.9158     6.0659    -1.1431 H       
  39 H39           -0.6501     5.1910    -1.5238 H       
@<TRIPOS>BOND
   1    1    2 1
   2    1    8 1
   3    1   30 2
   4    2    3 1
   5    2    4 1
   6    2    5 1
   7    6    7 ar
   8    6   15 ar
   9    7    8 ar
  10    7   21 1
  11    8    9 ar
  12    9   10 ar
  13    9   22 1
  14   10   11 ar
  15   10   15 ar
  16   11   12 ar
  17   11   31 1
  18   12   13 ar
  19   12   16 1
  20   13   14 ar
  21   13   32 1
  22   14   15 ar
  23   14   33 1
  24   16   17 1
  25   17   18 1
  26   17   19 1
  27   17   20 1
  28   21   34 1
  29   21   35 1
  30   21   36 1
  31   22   23 ar
  32   22   27 ar
  33   23   24 ar
  34   23   37 1
  35   24   25 ar
  36   24   29 1
  37   25   26 ar
  38   25   28 1
  39   26   27 ar
  40   26   38 1
  41   27   39 1

#	End of record

