#	Name: ASD03740248
#	Creating user name:	WinNT
#	Creation time:	15. 06. 2019 20:46

#	Modifying user name:	WinNT
#	Modification time:	15. 06. 2019 20:46

#	Program:	/corina/corina34_cracker 3.40 0067  02.08.2006

@<TRIPOS>MOLECULE
ASD03740248
  60   63    0    0    0
SMALL
NO_CHARGES


@<TRIPOS>ATOM
   1 C1            -0.0166     1.3731     0.0096 C.2     
   2 C2             4.8172    -4.8544     5.0761 C.ar    
   3 C3             5.1270    -4.5709     6.3911 C.ar    
   4 C4             0.0021    -0.0041     0.0020 C.2     
   5 C5             3.5994    -2.7133     6.3579 C.ar    
   6 C6             1.1853     1.9589     0.0013 C.2     
   7 C7             3.8956    -4.0692     4.3945 C.ar    
   8 C8             4.5204    -3.5019     7.0381 C.ar    
   9 C9             3.2937    -2.9984     5.0466 C.ar    
  10 C10            1.2510    -0.5505    -0.0128 C.2     
  11 C11            1.5486    -1.9864    -0.0238 C.2     
  12 C12            3.1150    -3.7526     0.7436 C.3     
  13 C13            2.9828    -2.4449    -0.0399 C.3     
  14 C14            2.9847    -3.4713     2.2184 C.2     
  15 C15            2.0248    -4.7001     0.3131 C.2     
  16 C16           -2.8446    -6.9546     1.8989 C.3     
  17 C17           -3.1969    -5.7706    -0.2728 C.3     
  18 C18            7.1800    -1.8531     7.9597 C.3     
  19 C19           -1.0342    -5.5164     0.9521 C.3     
  20 C20           -0.2802    -5.1419    -0.3254 C.3     
  21 C21           -2.1697    -6.4829     0.6094 C.3     
  22 N22            3.5693    -4.3506     3.0678 N.pl3   
  23 N23            0.5733    -2.8388    -0.0141 N.2     
  24 N24            2.3305    -2.4206     2.5568 N.am    
  25 N25            0.8070    -4.2165     0.0028 N.am    
  26 N26            4.8357    -3.2192     8.3717 N.am    
  27 O27            2.2423    -5.8921     0.2512 O.2     
  28 O28            0.8407    -2.4680     4.5305 O.2     
  29 O29            2.5583    -0.6654     4.2840 O.2     
  30 O30            6.9227    -4.4704     8.4098 O.2     
  31 O31            6.3478    -2.9270    10.2560 O.2     
  32 O32            3.3995    -2.6557    -1.3905 O.3     
  33 S33            2.4494     0.7370    -0.0174 S.3     
  34 S34            2.1334    -2.0150     4.1526 S.o2    
  35 S35            6.4155    -3.2246     8.8681 S.o2    
  36 H36           -0.9363     1.9393     0.0171 H       
  37 H37            5.2946    -5.6840     4.5758 H       
  38 H38            5.8434    -5.1828     6.9189 H       
  39 H39           -0.8977    -0.6013     0.0080 H       
  40 H40            3.1250    -1.8811     6.8567 H       
  41 H41            1.3547     3.0255     0.0048 H       
  42 H42            4.0880    -4.2008     0.5428 H       
  43 H43            3.6125    -1.6823     0.4184 H       
  44 H44           -3.6536    -7.6432     1.6548 H       
  45 H45           -2.1128    -7.4621     2.5274 H       
  46 H46           -3.2483    -6.0946     2.4333 H       
  47 H47           -3.6007    -4.9106     0.2616 H       
  48 H48           -2.7161    -5.4345    -1.1915 H       
  49 H49           -4.0059    -6.4591    -0.5169 H       
  50 H50            6.6759    -0.9214     8.2165 H       
  51 H51            8.2340    -1.7820     8.2284 H       
  52 H52            7.0895    -2.0318     6.8882 H       
  53 H53           -0.3487    -5.9948     1.6516 H       
  54 H54           -1.4480    -4.6164     1.4069 H       
  55 H55            0.1336    -6.0419    -0.7802 H       
  56 H56           -0.9658    -4.6636    -1.0249 H       
  57 H57           -1.7660    -7.3429     0.0750 H       
  58 H58            3.7753    -5.2363     2.7299 H       
  59 H59            4.1288    -3.0202     9.0055 H       
  60 H60            3.3457    -1.8663    -1.9465 H       
@<TRIPOS>BOND
   1    1    4 1
   2    1    6 2
   3    1   36 1
   4    2    3 ar
   5    2    7 ar
   6    2   37 1
   7    3    8 ar
   8    3   38 1
   9    4   10 2
  10    4   39 1
  11    5    8 ar
  12    5    9 ar
  13    5   40 1
  14    6   33 1
  15    6   41 1
  16    7    9 ar
  17    7   22 1
  18    8   26 1
  19    9   34 1
  20   10   11 1
  21   10   33 1
  22   11   13 1
  23   11   23 2
  24   12   13 1
  25   12   14 1
  26   12   15 1
  27   12   42 1
  28   13   32 1
  29   13   43 1
  30   14   22 1
  31   14   24 2
  32   15   25 am
  33   15   27 2
  34   16   21 1
  35   16   44 1
  36   16   45 1
  37   16   46 1
  38   17   21 1
  39   17   47 1
  40   17   48 1
  41   17   49 1
  42   18   35 1
  43   18   50 1
  44   18   51 1
  45   18   52 1
  46   19   20 1
  47   19   21 1
  48   19   53 1
  49   19   54 1
  50   20   25 1
  51   20   55 1
  52   20   56 1
  53   21   57 1
  54   22   58 1
  55   23   25 1
  56   24   34 am
  57   26   35 am
  58   26   59 1
  59   28   34 2
  60   29   34 2
  61   30   35 2
  62   31   35 2
  63   32   60 1

#	End of record

