#	Name: ASD01840307
#	Creating user name:	WinNT
#	Creation time:	15. 06. 2019 19:37

#	Modifying user name:	WinNT
#	Modification time:	15. 06. 2019 19:37

#	Program:	/corina/corina34_cracker 3.40 0067  02.08.2006

@<TRIPOS>MOLECULE
ASD01840307
  58   61    0    0    0
SMALL
NO_CHARGES


@<TRIPOS>ATOM
   1 C1            -1.3375     1.1577    -0.2485 C.3     
   2 C2            -0.6359    -0.1700    -0.1226 C.ar    
   3 C3             0.0261    -0.7388    -1.2198 C.ar    
   4 C4             0.2134    -0.2927    -2.6092 C.2     
   5 O5            -0.2212     0.7451    -3.0702 O.2     
   6 N6             0.9335    -1.1964    -3.2962 N.am    
   7 C7             1.3167    -1.0888    -4.7061 C.3     
   8 C8             2.6646    -0.3731    -4.8151 C.3     
   9 O9             3.6798    -1.1744    -4.2074 O.3     
  10 C10            1.2727    -2.3079    -2.4005 C.3     
  11 C11            0.6642    -1.9715    -1.0606 C.ar    
  12 N12            0.6466    -2.5922     0.0972 N.ar    
  13 C13            0.0270    -2.0759     1.1513 C.ar    
  14 N14            0.0342    -2.7645     2.3525 N.3     
  15 C15            1.2252    -2.4299     3.1438 C.3     
  16 C16            1.1281    -3.0931     4.5195 C.3     
  17 C17            1.0195    -4.6102     4.3429 C.3     
  18 H18            1.9200    -4.9857     3.8569 H       
  19 O19            0.8730    -5.2306     5.6218 O.3     
  20 C20            1.4182    -6.5495     5.6939 C.3     
  21 C21            1.2058    -7.1130     7.1004 C.3     
  22 C22            1.2821    -6.0932     8.2383 C.3     
  23 C23            0.2198    -8.2726     7.2553 C.3     
  24 C24            1.7235    -8.5251     7.3813 C.3     
  25 C25           -0.2011    -4.9290     3.4751 C.3     
  26 H26           -1.1052    -4.5880     3.9795 H       
  27 F27           -0.2764    -6.3100     3.2643 F       
  28 C28           -0.0655    -4.2125     2.1296 C.3     
  29 C29           -0.6249    -0.8470     1.0677 C.ar    
  30 C30           -1.3176    -0.2708     2.2757 C.3     
  31 H31           -0.6400     1.9611    -0.0119 H       
  32 H32           -1.7014     1.2811    -1.2685 H       
  33 H33           -2.1787     1.1912     0.4439 H       
  34 H34            1.3991    -2.0865    -5.1373 H       
  35 H35            0.5591    -0.5210    -5.2462 H       
  36 H36            2.9075    -0.2140    -5.8656 H       
  37 H37            2.6074     0.5888    -4.3056 H       
  38 H38            4.5628    -0.7815    -4.2397 H       
  39 H39            0.8501    -3.2379    -2.7810 H       
  40 H40            2.3551    -2.3978    -2.3084 H       
  41 H41            2.1161    -2.7898     2.6291 H       
  42 H42            1.2882    -1.3485     3.2655 H       
  43 H43            2.0195    -2.8573     5.1009 H       
  44 H44            0.2449    -2.7232     5.0403 H       
  45 H45            0.9184    -7.1895     4.9667 H       
  46 H46            2.4852    -6.5141     5.4740 H       
  47 H47            0.8801    -5.1387     7.8984 H       
  48 H48            0.6994    -6.4514     9.0870 H       
  49 H49            2.3213    -5.9628     8.5403 H       
  50 H50           -0.3749    -8.3091     8.1681 H       
  51 H51           -0.2776    -8.6341     6.3553 H       
  52 H52            2.2155    -9.0526     6.5641 H       
  53 H53            2.1182    -8.7276     8.3770 H       
  54 H54           -0.9398    -4.4260     1.5148 H       
  55 H55            0.8314    -4.5641     1.6197 H       
  56 H56           -2.3743    -0.5370     2.2500 H       
  57 H57           -0.8634    -0.6731     3.1812 H       
  58 H58           -1.2160     0.8144     2.2695 H       
@<TRIPOS>BOND
   1    1    2 1
   2    1   31 1
   3    1   32 1
   4    1   33 1
   5    2   29 ar
   6    2    3 ar
   7    3   11 ar
   8    3    4 1
   9    4    5 2
  10    4    6 am
  11    6    7 1
  12    6   10 1
  13    7    8 1
  14    7   34 1
  15    7   35 1
  16    8    9 1
  17    8   36 1
  18    8   37 1
  19    9   38 1
  20   10   11 1
  21   10   39 1
  22   10   40 1
  23   11   12 ar
  24   12   13 ar
  25   13   14 1
  26   13   29 ar
  27   14   28 1
  28   14   15 1
  29   15   16 1
  30   15   41 1
  31   15   42 1
  32   16   17 1
  33   16   43 1
  34   16   44 1
  35   17   18 1
  36   17   19 1
  37   17   25 1
  38   19   20 1
  39   20   21 1
  40   20   45 1
  41   20   46 1
  42   21   24 1
  43   21   22 1
  44   21   23 1
  45   22   47 1
  46   22   48 1
  47   22   49 1
  48   23   24 1
  49   23   50 1
  50   23   51 1
  51   24   52 1
  52   24   53 1
  53   25   26 1
  54   25   27 1
  55   25   28 1
  56   28   54 1
  57   28   55 1
  58   29   30 1
  59   30   56 1
  60   30   57 1
  61   30   58 1

#	End of record

