#	Name: ASD00100114
#	Creating user name:	WinNT
#	Creation time:	15. 06. 2019 18:30

#	Modifying user name:	WinNT
#	Modification time:	15. 06. 2019 18:30

#	Program:	/corina/corina34_cracker 3.40 0067  02.08.2006

@<TRIPOS>MOLECULE
ASD00100114
  44   47    0    0    0
SMALL
NO_CHARGES


@<TRIPOS>ATOM
   1 C1            -0.1207     1.4744    -0.1547 C.2     
   2 N2            -0.2372     0.1690    -0.1644 N.2     
   3 C3             0.9913    -0.3879    -0.0164 C.2     
   4 C4             1.8950     0.6183     0.0879 C.2     
   5 N5             1.1927     1.7955     0.0006 N.pl3   
   6 N6            -1.1614     2.3777    -0.2866 N.pl3   
   7 C7             0.2643    -2.7564    -0.0943 C.ar    
   8 C8             1.2924    -1.8392     0.0248 C.ar    
   9 C9             2.6192    -2.2708     0.1840 C.ar    
  10 C10            2.9214    -3.5943     0.2244 C.ar    
  11 C11            1.8990    -4.5526     0.1060 C.ar    
  12 C12            2.1856    -5.9276     0.1451 C.ar    
  13 C13            1.1743    -6.8312     0.0284 C.ar    
  14 C14           -0.1462    -6.4145    -0.1299 C.ar    
  15 C15           -0.4626    -5.0916    -0.1728 C.ar    
  16 C16            0.5555    -4.1284    -0.0551 C.ar    
  17 C17            1.7540     3.1473     0.0623 C.3     
  18 C18            1.6812     3.6572     1.4785 C.ar    
  19 C19            2.6827     3.3374     2.3840 C.ar    
  20 C20            2.6127     3.8084     3.6869 C.ar    
  21 C21            1.5465     4.5944     4.0798 C.ar    
  22 C22            0.5497     4.9112     3.1758 C.ar    
  23 C23            0.6203     4.4480     1.8747 C.ar    
  24 O24            3.7302     2.5638     1.9953 O.3     
  25 C25            4.7241     2.2749     2.9805 C.3     
  26 H26            2.9623     0.5137     0.2155 H       
  27 H27           -2.0629     2.0587    -0.4492 H       
  28 H28           -0.9891     3.3297    -0.2165 H       
  29 H29           -0.7550    -2.4194    -0.2121 H       
  30 H30            3.4098    -1.5407     0.2752 H       
  31 H31            3.9467    -3.9107     0.3470 H       
  32 H32            3.2040    -6.2661     0.2669 H       
  33 H33            1.3986    -7.8872     0.0586 H       
  34 H34           -0.9298    -7.1522    -0.2201 H       
  35 H35           -1.4901    -4.7830    -0.2963 H       
  36 H36            2.7943     3.1239    -0.2624 H       
  37 H37            1.1841     3.8075    -0.5914 H       
  38 H38            3.3908     3.5605     4.3937 H       
  39 H39            1.4916     4.9613     5.0941 H       
  40 H40           -0.2832     5.5251     3.4850 H       
  41 H41           -0.1572     4.7009     1.1690 H       
  42 H42            5.1643     3.2063     3.3366 H       
  43 H43            4.2647     1.7472     3.8163 H       
  44 H44            5.5016     1.6507     2.5400 H       
@<TRIPOS>BOND
   1    1    2 2
   2    1    5 1
   3    1    6 1
   4    2    3 1
   5    3    4 2
   6    3    8 1
   7    4    5 1
   8    4   26 1
   9    5   17 1
  10    6   27 1
  11    6   28 1
  12    7    8 ar
  13    7   16 ar
  14    7   29 1
  15    8    9 ar
  16    9   10 ar
  17    9   30 1
  18   10   11 ar
  19   10   31 1
  20   11   12 ar
  21   11   16 ar
  22   12   13 ar
  23   12   32 1
  24   13   14 ar
  25   13   33 1
  26   14   15 ar
  27   14   34 1
  28   15   16 ar
  29   15   35 1
  30   17   18 1
  31   17   36 1
  32   17   37 1
  33   18   19 ar
  34   18   23 ar
  35   19   20 ar
  36   19   24 1
  37   20   21 ar
  38   20   38 1
  39   21   22 ar
  40   21   39 1
  41   22   23 ar
  42   22   40 1
  43   23   41 1
  44   24   25 1
  45   25   42 1
  46   25   43 1
  47   25   44 1

#	End of record

