#	Name: ASD03082210
#	Creating user name:	WinNT
#	Creation time:	15. 06. 2019 20:27

#	Modifying user name:	WinNT
#	Modification time:	15. 06. 2019 20:27

#	Program:	/corina/corina34_cracker 3.40 0067  02.08.2006

@<TRIPOS>MOLECULE
ASD03082210
  42   45    0    0    0
SMALL
NO_CHARGES


@<TRIPOS>ATOM
   1 N1             0.2019     1.7718    -0.2177 N.pl3   
   2 N2             0.0291     0.3793    -0.2719 N.2     
   3 C3             1.1953    -0.1619    -0.0047 C.2     
   4 N4             2.0854     0.8079     0.2130 N.2     
   5 C5             1.5016     1.9831     0.0883 C.2     
   6 N6             1.4609    -1.5317     0.0445 N.pl3   
   7 C7             0.4151    -2.4518    -0.0817 C.ar    
   8 C8             0.6682    -3.7312    -0.5600 C.ar    
   9 C9            -0.3658    -4.6382    -0.6834 C.ar    
  10 C10           -1.6544    -4.2729    -0.3311 C.ar    
  11 C11           -1.9091    -2.9982     0.1454 C.ar    
  12 C12           -0.8769    -2.0896     0.2763 C.ar    
  13 C13           -0.0919    -6.0263    -1.2022 C.3     
  14 F14            1.2712    -6.1565    -1.4886 F       
  15 F15           -0.4567    -6.9668    -0.2329 F       
  16 F16           -0.8360    -6.2442    -2.3667 F       
  17 N17            4.1216     4.5947     0.3101 N.ar    
  18 C18            3.5408     3.4220     0.1637 C.ar    
  19 C19            2.1539     3.3009     0.2534 C.ar    
  20 C20            1.3900     4.4464     0.5017 C.ar    
  21 C21            2.0484     5.6551     0.6479 C.ar    
  22 C22            3.4271     5.6916     0.5450 C.ar    
  23 C23           -0.8218     2.7931    -0.4524 C.3     
  24 F24           -1.4582     3.1016     0.7548 F       
  25 F25           -2.6646    -5.1617    -0.4530 F       
  26 C26            4.1477     7.0055     0.7041 C.3     
  27 C27            4.4868     7.4577     2.1259 C.3     
  28 C28            3.3761     8.1616     1.3437 C.3     
  29 H29            2.3707    -1.8452     0.1663 H       
  30 H30            1.6728    -4.0163    -0.8355 H       
  31 H31           -2.9149    -2.7153     0.4189 H       
  32 H32           -1.0751    -1.0969     0.6526 H       
  33 H33            4.1433     2.5464    -0.0280 H       
  34 H34            0.3142     4.3891     0.5769 H       
  35 H35            1.4914     6.5602     0.8400 H       
  36 H36           -0.3536     3.6909    -0.8560 H       
  37 H37           -1.5559     2.4150    -1.1638 H       
  38 H38            4.8589     7.2502    -0.0849 H       
  39 H39            4.1885     6.8048     2.9462 H       
  40 H40            5.4208     8.0001     2.2722 H       
  41 H41            3.5795     9.1671     0.9754 H       
  42 H42            2.3472     7.9718     1.6493 H       
@<TRIPOS>BOND
   1    1    2 1
   2    1    5 1
   3    1   23 1
   4    2    3 2
   5    3    4 1
   6    3    6 1
   7    4    5 2
   8    5   19 1
   9    6    7 1
  10    6   29 1
  11    7    8 ar
  12    7   12 ar
  13    8    9 ar
  14    8   30 1
  15    9   10 ar
  16    9   13 1
  17   10   11 ar
  18   10   25 1
  19   11   12 ar
  20   11   31 1
  21   12   32 1
  22   13   14 1
  23   13   15 1
  24   13   16 1
  25   17   18 ar
  26   17   22 ar
  27   18   19 ar
  28   18   33 1
  29   19   20 ar
  30   20   21 ar
  31   20   34 1
  32   21   22 ar
  33   21   35 1
  34   22   26 1
  35   23   24 1
  36   23   36 1
  37   23   37 1
  38   26   27 1
  39   26   28 1
  40   26   38 1
  41   27   28 1
  42   27   39 1
  43   27   40 1
  44   28   41 1
  45   28   42 1

#	End of record

