#	Name: ASD05790058
#	Creating user name:	WinNT
#	Creation time:	15. 06. 2019 21:03

#	Modifying user name:	WinNT
#	Modification time:	15. 06. 2019 21:03

#	Program:	/corina/corina34_cracker 3.40 0067  02.08.2006

@<TRIPOS>MOLECULE
ASD05790058
  83   88    0    0    0
SMALL
NO_CHARGES


@<TRIPOS>ATOM
   1 C1            -1.5671    -1.5328    -1.8103 C.3     
   2 C2            -1.3149    -2.9851    -2.1506 C.2     
   3 C3            -0.1440    -3.3170    -3.0448 C.3     
   4 C4             1.1172    -2.6599    -2.4691 C.3     
   5 C5             0.8599    -1.1534    -2.2877 C.3     
   6 C6            -0.2634    -0.9269    -1.2820 C.3     
   7 C7             2.2715    -2.8805    -3.4512 C.3     
   8 C8             1.9582    -2.2256    -4.8086 C.3     
   9 C9             1.7478    -0.7457    -4.5601 C.3     
  10 C10            0.5061    -0.5882    -3.6441 C.3     
  11 C11            1.3306     0.0898    -5.7771 C.3     
  12 C12            0.6265     1.3004    -5.1683 C.2     
  13 C13            0.2313     0.9078    -3.7382 C.3     
  14 C14            2.5691     0.5147    -6.5439 C.3     
  15 C15            2.2839     1.3317    -7.7564 C.3     
  16 C16            2.0109     2.7951    -7.5093 C.3     
  17 C17            0.5880     3.0342    -7.0358 C.3     
  18 C18            0.3407     2.4128    -5.7088 C.2     
  19 C19            2.2411     3.5883    -8.8247 C.3     
  20 C20            3.3572     4.5729    -8.4535 C.3     
  21 C21            4.0456     3.7965    -7.2961 C.3     
  22 O22            2.9474     3.3150    -6.5332 O.3     
  23 N23            4.3753     4.7756    -9.4787 N.3     
  24 C24            5.4233     5.6678    -8.9516 C.3     
  25 C25            6.0792     5.1093    -7.6922 C.3     
  26 C26            5.0203     4.7469    -6.6345 C.3     
  27 C27            2.1366    -0.4780    -1.7830 C.3     
  28 C28           -0.4336     3.3181    -4.7857 C.3     
  29 C29            7.0298     6.1589    -7.1128 C.3     
  30 C30            2.6978     2.6528    -9.9459 C.3     
  31 C31            3.7843     5.3253   -10.7061 C.3     
  32 C32            3.4130     6.7924   -10.4807 C.3     
  33 C33            4.7968     5.2253   -11.8488 C.3     
  34 O34           -2.0309    -3.8562    -1.7184 O.2     
  35 H35           -1.8855    -0.9962    -2.7040 H       
  36 H36           -2.3403    -1.4640    -1.0451 H       
  37 H37           -0.0080    -4.3978    -3.0831 H       
  38 H38           -0.3302    -2.9340    -4.0482 H       
  39 H39            1.3561    -3.1089    -1.5051 H       
  40 H40           -0.3989     0.1433    -1.1257 H       
  41 H41           -0.0022    -1.3995    -0.3352 H       
  42 H42            3.1811    -2.4414    -3.0414 H       
  43 H43            2.4222    -3.9505    -3.5944 H       
  44 H44            2.7947    -2.3713    -5.4921 H       
  45 H45            1.0533    -2.6627    -5.2308 H       
  46 H46            2.6276    -0.3159    -4.0813 H       
  47 H47           -0.3337    -1.1409    -4.0651 H       
  48 H48            0.6457    -0.4727    -6.4117 H       
  49 H49           -0.8265     1.1092    -3.5694 H       
  50 H50            0.8404     1.4503    -3.0152 H       
  51 H51            3.2078     1.0943    -5.8774 H       
  52 H52            3.1124    -0.3799    -6.8484 H       
  53 H53            3.1376     1.2528    -8.4295 H       
  54 H54            1.4176     0.9034    -8.2604 H       
  55 H55            0.4125     4.1076    -6.9643 H       
  56 H56           -0.1048     2.6094    -7.7623 H       
  57 H57            1.3359     4.1214    -9.1154 H       
  58 H58            2.9452     5.5199    -8.1049 H       
  59 H59            4.6019     2.9532    -7.7053 H       
  60 H60            6.1875     5.8057    -9.7165 H       
  61 H61            4.9795     6.6358    -8.7194 H       
  62 H62            6.6478     4.2160    -7.9504 H       
  63 H63            4.4989     5.6461    -6.3063 H       
  64 H64            5.4958     4.2596    -5.7833 H       
  65 H65            2.9639    -0.7205    -2.4499 H       
  66 H66            1.9920     0.6022    -1.7614 H       
  67 H67            2.3634    -0.8344    -0.7782 H       
  68 H68           -0.6531     4.2558    -5.2962 H       
  69 H69           -1.3669     2.8330    -4.4997 H       
  70 H70            0.1591     3.5201    -3.8935 H       
  71 H71            6.4687     7.0597    -6.8644 H       
  72 H72            7.5011     5.7647    -6.2125 H       
  73 H73            7.7969     6.4000    -7.8487 H       
  74 H74            2.0587     1.7700    -9.9654 H       
  75 H75            2.6300     3.1715   -10.9021 H       
  76 H76            3.7299     2.3503    -9.7689 H       
  77 H77            2.8890     4.7593   -10.9633 H       
  78 H78            2.9745     7.2002   -11.3914 H       
  79 H79            2.6916     6.8636    -9.6666 H       
  80 H80            4.3083     7.3584   -10.2234 H       
  81 H81            5.0847     4.1834   -11.9889 H       
  82 H82            4.3476     5.6047   -12.7665 H       
  83 H83            5.6795     5.8165   -11.6049 H       
@<TRIPOS>BOND
   1    1    2 1
   2    1    6 1
   3    1   35 1
   4    1   36 1
   5    2    3 1
   6    2   34 2
   7    3    4 1
   8    3   37 1
   9    3   38 1
  10    4    5 1
  11    4    7 1
  12    4   39 1
  13    5    6 1
  14    5   27 1
  15    5   10 1
  16    6   40 1
  17    6   41 1
  18    7    8 1
  19    7   42 1
  20    7   43 1
  21    8    9 1
  22    8   44 1
  23    8   45 1
  24    9   10 1
  25    9   11 1
  26    9   46 1
  27   10   13 1
  28   10   47 1
  29   11   12 1
  30   11   14 1
  31   11   48 1
  32   12   13 1
  33   12   18 2
  34   13   49 1
  35   13   50 1
  36   14   15 1
  37   14   51 1
  38   14   52 1
  39   15   16 1
  40   15   53 1
  41   15   54 1
  42   16   17 1
  43   16   22 1
  44   16   19 1
  45   17   18 1
  46   17   55 1
  47   17   56 1
  48   18   28 1
  49   19   30 1
  50   19   20 1
  51   19   57 1
  52   20   21 1
  53   20   23 1
  54   20   58 1
  55   21   22 1
  56   21   26 1
  57   21   59 1
  58   23   24 1
  59   23   31 1
  60   24   25 1
  61   24   60 1
  62   24   61 1
  63   25   26 1
  64   25   29 1
  65   25   62 1
  66   26   63 1
  67   26   64 1
  68   27   65 1
  69   27   66 1
  70   27   67 1
  71   28   68 1
  72   28   69 1
  73   28   70 1
  74   29   71 1
  75   29   72 1
  76   29   73 1
  77   30   74 1
  78   30   75 1
  79   30   76 1
  80   31   32 1
  81   31   33 1
  82   31   77 1
  83   32   78 1
  84   32   79 1
  85   32   80 1
  86   33   81 1
  87   33   82 1
  88   33   83 1

#	End of record

