#	Name: ASD01914770
#	Creating user name:	WinNT
#	Creation time:	15. 06. 2019 20:04

#	Modifying user name:	WinNT
#	Modification time:	15. 06. 2019 20:04

#	Program:	/corina/corina34_cracker 3.40 0067  02.08.2006

@<TRIPOS>MOLECULE
ASD01914770
  41   44    0    0    0
SMALL
NO_CHARGES


@<TRIPOS>ATOM
   1 N1            -0.0054     1.4641     0.2533 N.am    
   2 C2             0.0716     0.1184    -0.0038 C.2     
   3 C3            -1.1593    -0.7059    -0.2962 C.3     
   4 C4            -2.3492    -0.0433     0.4069 C.3     
   5 N5            -2.3219     1.4067     0.2405 N.am    
   6 C6            -1.1793     2.1214     0.2823 C.2     
   7 C7             1.2669     1.9069     0.4583 C.2     
   8 C8             2.0743     0.8343     0.3302 C.2     
   9 N9             1.3123    -0.2400     0.0507 N.2     
  10 C10            3.5743     0.8376     0.4749 C.3     
  11 O11           -1.2091     3.3344     0.3456 O.2     
  12 C12           -3.5292     2.0816     0.0294 C.ar    
  13 O13            4.0213     2.1621     0.7716 O.3     
  14 C14            5.3587     2.3400     0.9341 C.ar    
  15 C15            5.8619     3.5999     1.2240 C.ar    
  16 C16            6.2226     1.2609     0.8162 C.ar    
  17 C17            7.5817     1.4442     0.9823 C.ar    
  18 C18            8.0812     2.7018     1.2663 C.ar    
  19 C19            7.2219     3.7780     1.3891 C.ar    
  20 C20           -3.7811     2.6902    -1.1925 C.ar    
  21 C21           -4.9760     3.3567    -1.3979 C.ar    
  22 C22           -5.9188     3.4167    -0.3853 C.ar    
  23 C23           -5.6688     2.8108     0.8322 C.ar    
  24 C24           -4.4803     2.1389     1.0402 C.ar    
  25 F25           -5.2229     3.9496    -2.5865 F       
  26 H26           -1.3362    -0.7355    -1.3713 H       
  27 H27           -1.0237    -1.7184     0.0838 H       
  28 H28           -3.2755    -0.4337    -0.0146 H       
  29 H29           -2.3135    -0.2815     1.4700 H       
  30 H30            1.5697     2.9196     0.6799 H       
  31 H31            3.8628     0.1669     1.2842 H       
  32 H32            4.0299     0.5005    -0.4562 H       
  33 H33            5.1911     4.4408     1.3200 H       
  34 H34            5.8329     0.2782     0.5950 H       
  35 H35            8.2546     0.6045     0.8905 H       
  36 H36            9.1440     2.8431     1.3962 H       
  37 H37            7.6145     4.7594     1.6107 H       
  38 H38           -3.0452     2.6437    -1.9817 H       
  39 H39           -6.8508     3.9379    -0.5467 H       
  40 H40           -6.4057     2.8595     1.6201 H       
  41 H41           -4.2865     1.6658     1.9915 H       
@<TRIPOS>BOND
   1    1    2 1
   2    1    7 1
   3    1    6 am
   4    2    3 1
   5    2    9 2
   6    3    4 1
   7    3   26 1
   8    3   27 1
   9    4    5 1
  10    4   28 1
  11    4   29 1
  12    5    6 am
  13    5   12 1
  14    6   11 2
  15    7    8 2
  16    7   30 1
  17    8    9 1
  18    8   10 1
  19   10   13 1
  20   10   31 1
  21   10   32 1
  22   12   20 ar
  23   12   24 ar
  24   13   14 1
  25   14   15 ar
  26   14   16 ar
  27   15   19 ar
  28   15   33 1
  29   16   17 ar
  30   16   34 1
  31   17   18 ar
  32   17   35 1
  33   18   19 ar
  34   18   36 1
  35   19   37 1
  36   20   21 ar
  37   20   38 1
  38   21   22 ar
  39   21   25 1
  40   22   23 ar
  41   22   39 1
  42   23   24 ar
  43   23   40 1
  44   24   41 1

#	End of record

