#	Name: ASD01883856
#	Creating user name:	WinNT
#	Creation time:	15. 06. 2019 19:47

#	Modifying user name:	WinNT
#	Modification time:	15. 06. 2019 19:47

#	Program:	/corina/corina34_cracker 3.40 0067  02.08.2006

@<TRIPOS>MOLECULE
ASD01883856
  38   41    0    0    0
SMALL
NO_CHARGES


@<TRIPOS>ATOM
   1 O1            -0.0530     1.3232     0.0378 O.3     
   2 C2            -0.0037    -0.0329     0.0668 C.2     
   3 C3             1.2184    -2.0856    -0.0354 C.2     
   4 C4             1.1921    -0.6802    -0.0686 C.2     
   5 C5            -1.1858    -0.7821     0.2428 C.2     
   6 C6            -1.1392    -2.1289     0.2719 C.2     
   7 N7             1.6939    -4.1641    -0.0425 N.2     
   8 N8             2.1892    -2.9803    -0.1360 N.2     
   9 N9             0.0484    -2.7856     0.1325 N.pl3   
  10 C10            0.3985    -4.1031     0.1217 C.2     
  11 C11           -0.5370    -5.2750     0.2714 C.3     
  12 C12           -0.6710    -5.6347     1.7524 C.3     
  13 C13           -1.6728    -6.7293     2.1258 C.3     
  14 C14           -0.1706    -7.0118     2.1931 C.3     
  15 C15            2.4668     0.1025    -0.2518 C.3     
  16 F16            2.1648     1.4627    -0.3772 F       
  17 F17            3.2962    -0.0907     0.8581 F       
  18 F18            3.1226    -0.3380    -1.4064 F       
  19 C19           -0.6925     1.9161    -1.0042 C.ar    
  20 C20           -0.8669     3.2926    -1.0202 C.ar    
  21 C21           -1.5174     3.8929    -2.0807 C.ar    
  22 C22           -1.9950     3.1233    -3.1255 C.ar    
  23 C23           -1.8230     1.7514    -3.1118 C.ar    
  24 C24           -1.1673     1.1468    -2.0569 C.ar    
  25 H25           -2.1324    -0.2744     0.3551 H       
  26 H26           -2.0501    -2.6931     0.4071 H       
  27 H27           -1.5162    -5.0116    -0.1286 H       
  28 H28           -0.1391    -6.1297    -0.2755 H       
  29 H29           -0.5469    -4.8067     2.4504 H       
  30 H30           -2.2074    -6.6216     3.0695 H       
  31 H31           -2.2363    -7.1931     1.3162 H       
  32 H32            0.2541    -7.6615     1.4278 H       
  33 H33            0.2831    -7.0900     3.1811 H       
  34 H34           -0.4947     3.8941    -0.2041 H       
  35 H35           -1.6534     4.9642    -2.0937 H       
  36 H36           -2.5037     3.5945    -3.9535 H       
  37 H37           -2.1973     1.1525    -3.9289 H       
  38 H38           -1.0332     0.0752    -2.0467 H       
@<TRIPOS>BOND
   1    1    2 1
   2    1   19 1
   3    2    5 1
   4    2    4 2
   5    3    4 1
   6    3    9 1
   7    3    8 2
   8    4   15 1
   9    5    6 2
  10    5   25 1
  11    6    9 1
  12    6   26 1
  13    7    8 1
  14    7   10 2
  15    9   10 1
  16   10   11 1
  17   11   12 1
  18   11   27 1
  19   11   28 1
  20   12   13 1
  21   12   14 1
  22   12   29 1
  23   13   14 1
  24   13   30 1
  25   13   31 1
  26   14   32 1
  27   14   33 1
  28   15   16 1
  29   15   17 1
  30   15   18 1
  31   19   20 ar
  32   19   24 ar
  33   20   21 ar
  34   20   34 1
  35   21   22 ar
  36   21   35 1
  37   22   23 ar
  38   22   36 1
  39   23   24 ar
  40   23   37 1
  41   24   38 1

#	End of record

