#	Name: ASD01028309
#	Creating user name:	WinNT
#	Creation time:	15. 06. 2019 18:56

#	Modifying user name:	WinNT
#	Modification time:	15. 06. 2019 18:56

#	Program:	/corina/corina34_cracker 3.40 0067  02.08.2006

@<TRIPOS>MOLECULE
ASD01028309
  48   52    0    0    0
SMALL
NO_CHARGES


@<TRIPOS>ATOM
   1 C1            -0.0157     1.3060     0.0092 C.ar    
   2 N2             0.0021    -0.0041     0.0020 N.ar    
   3 C3             1.1645     2.0563     0.0020 C.ar    
   4 C4             2.3770     1.4188    -0.0130 C.ar    
   5 C5             2.3867     0.0119    -0.0207 C.ar    
   6 C6             1.1525    -0.6850    -0.0126 C.ar    
   7 C7             3.5911    -0.7100    -0.0356 C.ar    
   8 C8             3.5598    -2.0712    -0.0422 C.ar    
   9 C9             2.3478    -2.7583    -0.0348 C.ar    
  10 C10            1.1619    -2.0906    -0.0203 C.ar    
  11 C11            4.9309    -3.7185     1.1672 C.2     
  12 N12            5.8828    -3.6663     2.1244 N.pl3   
  13 C13            5.5537    -4.6377     3.0399 C.2     
  14 N14            4.4468    -5.2159     2.6032 N.2     
  15 N15            4.0849    -4.6616     1.4991 N.2     
  16 N16            7.0192    -2.8783     2.3178 N.2     
  17 C17            7.7826    -3.0569     3.3731 C.2     
  18 C18            7.4717    -4.0459     4.3303 C.2     
  19 C19            6.3716    -4.8278     4.1698 C.2     
  20 C20            8.9856    -2.2088     3.5596 C.ar    
  21 C21            4.8530    -2.8448    -0.0582 C.3     
  22 C22            9.3030    -1.2292     2.6207 C.ar    
  23 C23           10.4230    -0.4428     2.7994 C.ar    
  24 C24           11.2299    -0.6257     3.9080 C.ar    
  25 C25           10.9196    -1.5966     4.8431 C.ar    
  26 C26            9.7991    -2.3851     4.6772 C.ar    
  27 O27            1.1087     3.4142     0.0094 O.3     
  28 C28           -0.1901     4.0101     0.0245 C.3     
  29 C29            4.9088    -3.7192    -1.3125 C.3     
  30 H30           -0.9658     1.8194     0.0165 H       
  31 H31            3.2995     1.9804    -0.0192 H       
  32 H32            4.5368    -0.1884    -0.0421 H       
  33 H33            2.3494    -3.8383    -0.0407 H       
  34 H34            0.2314    -2.6388    -0.0145 H       
  35 H35            8.1086    -4.1816     5.1919 H       
  36 H36            6.1288    -5.5864     4.8992 H       
  37 H37            5.6923    -2.1493    -0.0625 H       
  38 H38            8.6739    -1.0858     1.7546 H       
  39 H39           10.6701     0.3165     2.0722 H       
  40 H40           12.1056    -0.0083     4.0438 H       
  41 H41           11.5532    -1.7353     5.7066 H       
  42 H42            9.5577    -3.1428     5.4079 H       
  43 H43           -0.7263     3.6900     0.9180 H       
  44 H44           -0.0918     5.0956     0.0291 H       
  45 H45           -0.7429     3.6991    -0.8619 H       
  46 H46            4.8525    -3.0872    -2.1988 H       
  47 H47            5.8442    -4.2786    -1.3240 H       
  48 H48            4.0695    -4.4146    -1.3082 H       
@<TRIPOS>BOND
   1    1    2 ar
   2    1    3 ar
   3    1   30 1
   4    2    6 ar
   5    3    4 ar
   6    3   27 1
   7    4    5 ar
   8    4   31 1
   9    5    6 ar
  10    5    7 ar
  11    6   10 ar
  12    7    8 ar
  13    7   32 1
  14    8    9 ar
  15    8   21 1
  16    9   10 ar
  17    9   33 1
  18   10   34 1
  19   11   12 1
  20   11   21 1
  21   11   15 2
  22   12   13 1
  23   12   16 1
  24   13   14 2
  25   13   19 1
  26   14   15 1
  27   16   17 2
  28   17   18 1
  29   17   20 1
  30   18   19 2
  31   18   35 1
  32   19   36 1
  33   20   22 ar
  34   20   26 ar
  35   21   29 1
  36   21   37 1
  37   22   23 ar
  38   22   38 1
  39   23   24 ar
  40   23   39 1
  41   24   25 ar
  42   24   40 1
  43   25   26 ar
  44   25   41 1
  45   26   42 1
  46   27   28 1
  47   28   43 1
  48   28   44 1
  49   28   45 1
  50   29   46 1
  51   29   47 1
  52   29   48 1

#	End of record

