#	Name: ASD03331701
#	Creating user name:	WinNT
#	Creation time:	15. 06. 2019 20:39

#	Modifying user name:	WinNT
#	Modification time:	15. 06. 2019 20:39

#	Program:	/corina/corina34_cracker 3.40 0067  02.08.2006

@<TRIPOS>MOLECULE
ASD03331701
  48   51    0    0    0
SMALL
NO_CHARGES


@<TRIPOS>ATOM
   1 C1             2.0460     0.2629    -0.4163 C.ar    
   2 C2             1.0346    -0.4383     0.2019 C.ar    
   3 C3             0.2380     0.1759     1.1594 C.ar    
   4 C4             0.4453     1.4929     1.5060 C.ar    
   5 C5             2.2687     1.5983    -0.0753 C.ar    
   6 C6             3.2258     2.6153    -0.5176 C.2     
   7 C7             1.4612     2.2197     0.8947 C.ar    
   8 N8             1.9059     3.5172     1.0222 N.pl3   
   9 C9             2.9572     3.7341     0.1738 C.2     
  10 S10            3.8294     5.2566     0.0127 S.o2    
  11 O11            3.1908     6.1791     0.8847 O.2     
  12 O12            5.2117     4.9378     0.0957 O.2     
  13 N13            3.5688     5.8104    -1.5260 N.am    
  14 C14            2.2171     6.1815    -1.9519 C.3     
  15 C15            2.3381     7.1404    -5.5998 C.ar    
  16 C16            2.2659     6.3881    -4.4451 C.ar    
  17 C17            2.2958     7.0086    -3.2091 C.ar    
  18 C18            2.3973     8.3854    -3.1229 C.ar    
  19 C19            2.4693     9.1479    -4.2710 C.ar    
  20 C20            2.4400     8.5281    -5.5189 C.ar    
  21 C21            2.5185     9.3421    -6.7564 C.ar    
  22 C22            2.6204    10.7302    -6.6736 C.ar    
  23 C23            2.6937    11.4849    -7.8245 C.ar    
  24 C24            2.6660    10.8626    -9.0681 C.ar    
  25 C25            2.5644     9.4780    -9.1527 C.ar    
  26 C26            2.4963     8.7197    -8.0039 C.ar    
  27 Br27           0.7285    -2.2473    -0.2561 Br      
  28 C28            4.3070     2.4389    -1.5525 C.3     
  29 S29            2.7593    11.8296   -10.5381 S.3     
  30 H30            2.6663    -0.2190    -1.1575 H       
  31 H31           -0.5522    -0.3844     1.6369 H       
  32 H32           -0.1807     1.9607     2.2515 H       
  33 H33            1.5294     4.1787     1.6235 H       
  34 H34            4.3112     5.8890    -2.1454 H       
  35 H35            1.6368     5.2794    -2.1461 H       
  36 H36            1.7347     6.7614    -1.1651 H       
  37 H37            2.3191     6.6546    -6.5642 H       
  38 H38            2.1866     5.3127    -4.5065 H       
  39 H39            2.4199     8.8647    -2.1553 H       
  40 H40            2.5481    10.2228    -4.2025 H       
  41 H41            2.6415    11.2137    -5.7081 H       
  42 H42            2.7722    12.5601    -7.7607 H       
  43 H43            2.5431     8.9965   -10.1192 H       
  44 H44            2.4215     7.6443    -8.0699 H       
  45 H45            3.8918     2.6135    -2.5451 H       
  46 H46            5.1100     3.1515    -1.3641 H       
  47 H47            4.7012     1.4242    -1.4969 H       
  48 H48            4.0821    11.8990   -10.7712 H       
@<TRIPOS>BOND
   1    1    2 ar
   2    1    5 ar
   3    1   30 1
   4    2    3 ar
   5    2   27 1
   6    3    4 ar
   7    3   31 1
   8    4    7 ar
   9    4   32 1
  10    5    7 ar
  11    5    6 1
  12    6    9 2
  13    6   28 1
  14    7    8 1
  15    8    9 1
  16    8   33 1
  17    9   10 1
  18   10   11 2
  19   10   12 2
  20   10   13 am
  21   13   14 1
  22   13   34 1
  23   14   17 1
  24   14   35 1
  25   14   36 1
  26   15   16 ar
  27   15   20 ar
  28   15   37 1
  29   16   17 ar
  30   16   38 1
  31   17   18 ar
  32   18   19 ar
  33   18   39 1
  34   19   20 ar
  35   19   40 1
  36   20   21 1
  37   21   22 ar
  38   21   26 ar
  39   22   23 ar
  40   22   41 1
  41   23   24 ar
  42   23   42 1
  43   24   25 ar
  44   24   29 1
  45   25   26 ar
  46   25   43 1
  47   26   44 1
  48   28   45 1
  49   28   46 1
  50   28   47 1
  51   29   48 1

#	End of record

