#	Name: ASD01913193
#	Creating user name:	WinNT
#	Creation time:	15. 06. 2019 20:01

#	Modifying user name:	WinNT
#	Modification time:	15. 06. 2019 20:01

#	Program:	/corina/corina34_cracker 3.40 0067  02.08.2006

@<TRIPOS>MOLECULE
ASD01913193
  61   65    0    0    0
SMALL
NO_CHARGES


@<TRIPOS>ATOM
   1 C1            -1.0950     1.3648     0.1631 C.3     
   2 N2            -0.9358    -0.0922     0.1027 N.am    
   3 C3            -1.0348    -0.8355     1.3699 C.3     
   4 C4             0.1265    -0.3991     2.2618 C.3     
   5 C5             0.2459     1.1019     2.2903 C.ar    
   6 C6             0.9506     1.6721     3.3437 C.ar    
   7 C7             1.1054     3.0400     3.4255 C.ar    
   8 C8             0.5563     3.8537     2.4517 C.ar    
   9 C9            -0.1469     3.2907     1.4069 C.ar    
  10 C10           -0.3066     1.9139     1.3255 C.ar    
  11 C11           -0.7087    -0.7249    -1.0654 C.2     
  12 C12           -0.4260    -2.1740    -1.0773 C.ar    
  13 C13           -0.7832    -2.9449    -2.1826 C.ar    
  14 C14           -0.5135    -4.3117    -2.1882 C.ar    
  15 C15            0.1163    -4.9024    -1.0802 C.ar    
  16 C16            0.4668    -4.1253     0.0144 C.ar    
  17 C17            0.2053    -2.7723     0.0178 C.ar    
  18 O18           -0.7365    -0.1024    -2.1094 O.2     
  19 C19           -0.8773    -5.1114    -3.3190 C.1     
  20 C20           -1.1755    -5.7671    -4.2460 C.1     
  21 C21           -1.5393    -6.5669    -5.3768 C.ar    
  22 C22           -1.2652    -7.9374    -5.3744 C.ar    
  23 C23           -1.6229    -8.6953    -6.4742 C.ar    
  24 C24           -2.2436    -8.0621    -7.5431 C.ar    
  25 C25           -2.4855    -6.7022    -7.4801 C.ar    
  26 N26           -2.1405    -6.0014    -6.4194 N.ar    
  27 O27            0.3812    -6.2323    -1.0802 O.3     
  28 C28            1.0235    -6.7659     0.0794 C.3     
  29 C29           -0.5841     1.9871    -1.1379 C.3     
  30 C30           -0.8411     3.4719    -1.1194 C.ar    
  31 C31            0.2120     4.3574    -1.2524 C.ar    
  32 C32           -0.0237     5.7193    -1.2354 C.ar    
  33 C33           -1.3127     6.1958    -1.0858 C.ar    
  34 C34           -2.3660     5.3104    -0.9537 C.ar    
  35 C35           -2.1307     3.9483    -0.9751 C.ar    
  36 H36           -2.1493     1.6095     0.2919 H       
  37 H37           -1.9817    -0.6064     1.8588 H       
  38 H38           -0.9687    -1.9060     1.1757 H       
  39 H39           -0.0425    -0.7646     3.2747 H       
  40 H40            1.0533    -0.8253     1.8777 H       
  41 H41            1.3806     1.0384     4.1053 H       
  42 H42            1.6538     3.4747     4.2482 H       
  43 H43            0.6770     4.9254     2.5091 H       
  44 H44           -0.5768     3.9258     0.6465 H       
  45 H45           -1.2675    -2.4845    -3.0310 H       
  46 H46            0.9506    -4.5818     0.8653 H       
  47 H47            0.4852    -2.1724     0.8712 H       
  48 H48           -0.7806    -8.3977    -4.5261 H       
  49 H49           -1.4238    -9.7564    -6.5015 H       
  50 H50           -2.5346    -8.6271    -8.4163 H       
  51 H51           -2.9680    -6.2083    -8.3106 H       
  52 H52            1.9868    -6.2754     0.2194 H       
  53 H53            0.3968    -6.5922     0.9542 H       
  54 H54            1.1768    -7.8372    -0.0507 H       
  55 H55            0.4865     1.8048    -1.2320 H       
  56 H56           -1.1047     1.5387    -1.9841 H       
  57 H57            1.2191     3.9851    -1.3693 H       
  58 H58            0.7992     6.4111    -1.3386 H       
  59 H59           -1.4968     7.2599    -1.0717 H       
  60 H60           -3.3730     5.6826    -0.8365 H       
  61 H61           -2.9540     3.2565    -0.8756 H       
@<TRIPOS>BOND
   1    1    2 1
   2    1   10 1
   3    1   29 1
   4    1   36 1
   5    2    3 1
   6    2   11 am
   7    3    4 1
   8    3   37 1
   9    3   38 1
  10    4    5 1
  11    4   39 1
  12    4   40 1
  13    5    6 ar
  14    5   10 ar
  15    6    7 ar
  16    6   41 1
  17    7    8 ar
  18    7   42 1
  19    8    9 ar
  20    8   43 1
  21    9   10 ar
  22    9   44 1
  23   11   12 1
  24   11   18 2
  25   12   13 ar
  26   12   17 ar
  27   13   14 ar
  28   13   45 1
  29   14   15 ar
  30   14   19 1
  31   15   16 ar
  32   15   27 1
  33   16   17 ar
  34   16   46 1
  35   17   47 1
  36   19   20 3
  37   20   21 1
  38   21   22 ar
  39   21   26 ar
  40   22   23 ar
  41   22   48 1
  42   23   24 ar
  43   23   49 1
  44   24   25 ar
  45   24   50 1
  46   25   26 ar
  47   25   51 1
  48   27   28 1
  49   28   52 1
  50   28   53 1
  51   28   54 1
  52   29   30 1
  53   29   55 1
  54   29   56 1
  55   30   31 ar
  56   30   35 ar
  57   31   32 ar
  58   31   57 1
  59   32   33 ar
  60   32   58 1
  61   33   34 ar
  62   33   59 1
  63   34   35 ar
  64   34   60 1
  65   35   61 1

#	End of record

