#	Name: ASD01880489
#	Creating user name:	WinNT
#	Creation time:	15. 06. 2019 19:40

#	Modifying user name:	WinNT
#	Modification time:	15. 06. 2019 19:40

#	Program:	/corina/corina34_cracker 3.40 0067  02.08.2006

@<TRIPOS>MOLECULE
ASD01880489
  53   56    0    0    0
SMALL
NO_CHARGES


@<TRIPOS>ATOM
   1 N1            -0.0158     1.3133     0.0093 N.ar    
   2 C2             0.0021    -0.0041     0.0020 C.ar    
   3 N3             1.1310    -0.6839    -0.0124 N.ar    
   4 C4             2.3020    -0.0629    -0.0203 C.ar    
   5 C5             2.3325     1.3179    -0.0131 C.ar    
   6 C6             1.1186     2.0075     0.0022 C.ar    
   7 C7             3.6432     2.0616    -0.0217 C.3     
   8 O8             4.7223     1.1249    -0.0370 O.3     
   9 C9             5.9802     1.6342    -0.0463 C.ar    
  10 C10            7.0768     0.7777    -0.0613 C.ar    
  11 C11            8.3486     1.2941    -0.0712 C.ar    
  12 C12            8.5505     2.6783    -0.0661 C.ar    
  13 C13            7.4457     3.5341    -0.0514 C.ar    
  14 C14            6.1719     3.0107    -0.0465 C.ar    
  15 C15            9.7190     0.6641    -0.0878 C.3     
  16 N16           10.6798     1.7731    -0.0915 N.am    
  17 C17           10.0014     2.9333    -0.0790 C.2     
  18 O18           10.5126     4.0365    -0.0788 O.2     
  19 N19            1.0960     3.3927     0.0094 N.pl3   
  20 C20           -0.1844     4.1044     0.0254 C.3     
  21 C21            0.0668     5.5903     0.0305 C.ar    
  22 C22            0.1704     6.2778    -1.1643 C.ar    
  23 C23            0.4009     7.6408    -1.1597 C.ar    
  24 C24            0.5273     8.3163     0.0397 C.ar    
  25 C25            0.4229     7.6290     1.2345 C.ar    
  26 C26            0.1881     6.2667     1.2299 C.ar    
  27 C27           14.1560     1.4568    -1.5687 C.3     
  28 C28           12.6326     1.5979    -1.5535 C.3     
  29 C29           12.1385     1.6380    -0.1061 C.3     
  30 H30           -0.9345    -0.5418     0.0084 H       
  31 H31            3.2212    -0.6298    -0.0317 H       
  32 H32            3.6972     2.6926    -0.9088 H       
  33 H33            3.7142     2.6830     0.8710 H       
  34 H34            6.9274    -0.2919    -0.0649 H       
  35 H35            7.5906     4.6043    -0.0470 H       
  36 H36            5.3185     3.6725    -0.0355 H       
  37 H37            9.8597     0.0495     0.8014 H       
  38 H38            9.8422     0.0586    -0.9857 H       
  39 H39            1.9280     3.8913     0.0038 H       
  40 H40           -0.7603     3.8362    -0.8604 H       
  41 H41           -0.7429     3.8273     0.9195 H       
  42 H42            0.0716     5.7500    -2.1014 H       
  43 H43            0.4825     8.1778    -2.0931 H       
  44 H44            0.7081     9.3811     0.0433 H       
  45 H45            0.5220     8.1567     2.1715 H       
  46 H46            0.1064     5.7297     2.1633 H       
  47 H47           14.6048     2.3070    -1.0550 H       
  48 H48           14.4405     0.5346    -1.0620 H       
  49 H49           14.5080     1.4282    -2.5999 H       
  50 H50           12.3481     2.5201    -2.0602 H       
  51 H51           12.1838     0.7477    -2.0672 H       
  52 H52           12.5873     2.4882     0.4076 H       
  53 H53           12.4230     0.7158     0.4006 H       
@<TRIPOS>BOND
   1    1    2 ar
   2    1    6 ar
   3    2    3 ar
   4    2   30 1
   5    3    4 ar
   6    4    5 ar
   7    4   31 1
   8    5    6 ar
   9    5    7 1
  10    6   19 1
  11    7    8 1
  12    7   32 1
  13    7   33 1
  14    8    9 1
  15    9   10 ar
  16    9   14 ar
  17   10   11 ar
  18   10   34 1
  19   11   12 ar
  20   11   15 1
  21   12   13 ar
  22   12   17 1
  23   13   14 ar
  24   13   35 1
  25   14   36 1
  26   15   16 1
  27   15   37 1
  28   15   38 1
  29   16   17 am
  30   16   29 1
  31   17   18 2
  32   19   20 1
  33   19   39 1
  34   20   21 1
  35   20   40 1
  36   20   41 1
  37   21   22 ar
  38   21   26 ar
  39   22   23 ar
  40   22   42 1
  41   23   24 ar
  42   23   43 1
  43   24   25 ar
  44   24   44 1
  45   25   26 ar
  46   25   45 1
  47   26   46 1
  48   27   28 1
  49   27   47 1
  50   27   48 1
  51   27   49 1
  52   28   29 1
  53   28   50 1
  54   28   51 1
  55   29   52 1
  56   29   53 1

#	End of record

