#	Name: ASD01028597
#	Creating user name:	WinNT
#	Creation time:	15. 06. 2019 18:57

#	Modifying user name:	WinNT
#	Modification time:	15. 06. 2019 18:57

#	Program:	/corina/corina34_cracker 3.40 0067  02.08.2006

@<TRIPOS>MOLECULE
ASD01028597
  39   43    0    0    0
SMALL
NO_CHARGES


@<TRIPOS>ATOM
   1 N1            -0.0169     1.3921     0.0097 N.2     
   2 N2             0.0021    -0.0041     0.0020 N.pl3   
   3 C3             1.1087     2.0746     0.0026 C.2     
   4 C4             2.3555     1.4108    -0.0129 C.2     
   5 C5             2.4043     0.0531    -0.0206 C.2     
   6 C6             1.2004    -0.6774    -0.0130 C.2     
   7 N7             0.9138    -1.9689    -0.0176 N.2     
   8 N8            -0.3646    -2.1207    -0.0065 N.2     
   9 C9            -0.9590    -0.9535     0.0057 C.2     
  10 C10           -2.4466    -0.7132     0.0214 C.3     
  11 N11           -2.9153    -0.6434     1.4076 N.pl3   
  12 C12           -4.2627    -0.4268     1.6761 C.ar    
  13 C13           -5.1826    -0.2737     0.6447 C.ar    
  14 C14           -6.5149    -0.0602     0.9480 C.ar    
  15 N15           -6.9344     0.0022     2.1959 N.ar    
  16 C16           -6.1030    -0.1366     3.2192 C.ar    
  17 C17           -4.7360    -0.3621     2.9981 C.ar    
  18 C18            1.0674     3.5527     0.0105 C.2     
  19 C19           -0.0441     4.3659     0.0249 C.2     
  20 C20            0.2380     5.7096     0.0296 C.2     
  21 N21            1.4840     6.0814     0.0202 N.2     
  22 S22            2.4373     4.6775     0.0111 S.3     
  23 C23           -0.8708     6.7301     0.0446 C.3     
  24 N24           -6.2649    -0.1159     4.5873 N.pl3   
  25 C25           -5.0391    -0.3162     5.1464 C.2     
  26 N26           -4.1434    -0.4613     4.2143 N.2     
  27 H27            3.2712     1.9834    -0.0189 H       
  28 H28            3.3547    -0.4596    -0.0328 H       
  29 H29           -2.6682     0.2264    -0.4848 H       
  30 H30           -2.9522    -1.5308    -0.4924 H       
  31 H31           -2.2860    -0.7483     2.1383 H       
  32 H32           -4.8592    -0.3208    -0.3847 H       
  33 H33           -7.2271     0.0584     0.1448 H       
  34 H34           -1.0525     3.9793     0.0321 H       
  35 H35           -1.1291     6.9707     1.0759 H       
  36 H36           -0.5400     7.6337    -0.4674 H       
  37 H37           -1.7453     6.3239    -0.4637 H       
  38 H38           -7.0988     0.0171     5.0648 H       
  39 H39           -4.8405    -0.3525     6.2074 H       
@<TRIPOS>BOND
   1    1    2 1
   2    1    3 2
   3    2    6 1
   4    2    9 1
   5    3    4 1
   6    3   18 1
   7    4    5 2
   8    4   27 1
   9    5    6 1
  10    5   28 1
  11    6    7 2
  12    7    8 1
  13    8    9 2
  14    9   10 1
  15   10   11 1
  16   10   29 1
  17   10   30 1
  18   11   12 1
  19   11   31 1
  20   12   13 ar
  21   12   17 ar
  22   13   14 ar
  23   13   32 1
  24   14   15 ar
  25   14   33 1
  26   15   16 ar
  27   16   17 ar
  28   16   24 1
  29   17   26 1
  30   18   19 2
  31   18   22 1
  32   19   20 1
  33   19   34 1
  34   20   21 2
  35   20   23 1
  36   21   22 1
  37   23   35 1
  38   23   36 1
  39   23   37 1
  40   24   25 1
  41   24   38 1
  42   25   26 2
  43   25   39 1

#	End of record

