#	Name: ASD01884813
#	Creating user name:	WinNT
#	Creation time:	15. 06. 2019 19:48

#	Modifying user name:	WinNT
#	Modification time:	15. 06. 2019 19:48

#	Program:	/corina/corina34_cracker 3.40 0067  02.08.2006

@<TRIPOS>MOLECULE
ASD01884813
  56   59    0    0    0
SMALL
NO_CHARGES


@<TRIPOS>ATOM
   1 C1            -0.0187     1.5258     0.0104 C.3     
   2 C2             0.0021    -0.0041     0.0020 C.3     
   3 C3             0.7421    -0.5109     1.2415 C.3     
   4 N4            -1.3723    -0.5112     0.0124 N.pl3   
   5 N5            -2.3340    -0.2653     1.0009 N.2     
   6 C6            -3.4358    -0.8843     0.6622 C.2     
   7 C7            -3.2116    -1.5432    -0.5510 C.2     
   8 C8            -1.9373    -1.2928    -0.9315 C.2     
   9 C9            -1.2679    -1.7993    -2.1830 C.3     
  10 N10           -1.3688    -0.7822    -3.2382 N.3     
  11 C11           -2.7388    -0.2531    -3.3314 C.3     
  12 C12           -2.7066     1.0304    -4.1623 C.3     
  13 C13           -1.9631     0.7900    -5.4497 C.ar    
  14 C14           -1.1368    -0.3005    -5.6225 C.ar    
  15 N15           -0.4939    -0.4772    -6.7648 N.ar    
  16 C16           -0.6099     0.3622    -7.7836 C.ar    
  17 C17           -1.4274     1.4833    -7.6883 C.ar    
  18 C18           -2.1209     1.7063    -6.4970 C.ar    
  19 C19           -3.0048     2.8872    -6.3442 C.ar    
  20 C20           -4.1534     3.0062    -7.1242 C.ar    
  21 C21           -4.9732     4.1063    -6.9786 C.ar    
  22 C22           -4.6570     5.0933    -6.0587 C.ar    
  23 F23           -5.4636     6.1682    -5.9205 F       
  24 C24           -3.5168     4.9813    -5.2801 C.ar    
  25 C25           -2.6920     3.8806    -5.4142 C.ar    
  26 F26           -1.5829     3.7686    -4.6510 F       
  27 C27            0.1389     0.1041    -9.0360 C.2     
  28 N28            0.9333    -0.9801    -9.1350 N.am    
  29 O29            0.0367     0.8701    -9.9737 O.2     
  30 C30           -0.9429    -1.3237    -4.5322 C.3     
  31 C31            0.5363    -1.7071    -4.4570 C.3     
  32 H32            1.0039     1.9031     0.0027 H       
  33 H33           -0.5459     1.8868    -0.8726 H       
  34 H34           -0.5289     1.8773     0.9072 H       
  35 H35            0.5123    -0.3556    -0.8948 H       
  36 H36            1.7647    -0.1336     1.2338 H       
  37 H37            0.2319    -0.1594     2.1383 H       
  38 H38            0.7568    -1.6008     1.2356 H       
  39 H39           -4.3589    -0.8866     1.2229 H       
  40 H40           -3.9299    -2.1421    -1.0911 H       
  41 H41           -0.2178    -2.0048    -1.9757 H       
  42 H42           -1.7591    -2.7148    -2.5127 H       
  43 H43           -3.3828    -0.9870    -3.8157 H       
  44 H44           -3.1154    -0.0333    -2.3324 H       
  45 H45           -3.7267     1.3422    -4.3863 H       
  46 H46           -2.2056     1.8156    -3.5962 H       
  47 H47           -1.5236     2.1674    -8.5185 H       
  48 H48           -4.4013     2.2385    -7.8422 H       
  49 H49           -5.8634     4.1985    -7.5831 H       
  50 H50           -3.2741     5.7532    -4.5648 H       
  51 H51            1.0148    -1.5916    -8.3864 H       
  52 H52            1.4234    -1.1490    -9.9548 H       
  53 H53           -1.5326    -2.2110    -4.7626 H       
  54 H54            0.6775    -2.4602    -3.6818 H       
  55 H55            0.8565    -2.1102    -5.4178 H       
  56 H56            1.1288    -0.8240    -4.2179 H       
@<TRIPOS>BOND
   1    1    2 1
   2    1   32 1
   3    1   33 1
   4    1   34 1
   5    2    3 1
   6    2    4 1
   7    2   35 1
   8    3   36 1
   9    3   37 1
  10    3   38 1
  11    4    8 1
  12    4    5 1
  13    5    6 2
  14    6    7 1
  15    6   39 1
  16    7    8 2
  17    7   40 1
  18    8    9 1
  19    9   10 1
  20    9   41 1
  21    9   42 1
  22   10   30 1
  23   10   11 1
  24   11   12 1
  25   11   43 1
  26   11   44 1
  27   12   13 1
  28   12   45 1
  29   12   46 1
  30   13   18 ar
  31   13   14 ar
  32   14   15 ar
  33   14   30 1
  34   15   16 ar
  35   16   17 ar
  36   16   27 1
  37   17   18 ar
  38   17   47 1
  39   18   19 1
  40   19   25 ar
  41   19   20 ar
  42   20   21 ar
  43   20   48 1
  44   21   22 ar
  45   21   49 1
  46   22   23 1
  47   22   24 ar
  48   24   25 ar
  49   24   50 1
  50   25   26 1
  51   27   28 am
  52   27   29 2
  53   28   51 1
  54   28   52 1
  55   30   31 1
  56   30   53 1
  57   31   54 1
  58   31   55 1
  59   31   56 1

#	End of record

