#	Name: ASD03330042
#	Creating user name:	WinNT
#	Creation time:	15. 06. 2019 20:36

#	Modifying user name:	WinNT
#	Modification time:	15. 06. 2019 20:36

#	Program:	/corina/corina34_cracker 3.40 0067  02.08.2006

@<TRIPOS>MOLECULE
ASD03330042
  62   65    0    0    0
SMALL
NO_CHARGES


@<TRIPOS>ATOM
   1 N1             1.0619    -2.1752    -1.2473 N.pl3   
   2 C2             0.5451    -3.4082    -1.5950 C.2     
   3 C3             1.5502    -4.1991    -2.0539 C.2     
   4 C4             2.7493    -3.4483    -1.9983 C.ar    
   5 C5             4.0793    -3.7332    -2.3348 C.ar    
   6 C6             5.0416    -2.7797    -2.1656 C.ar    
   7 C7             4.7145    -1.5258    -1.6616 C.ar    
   8 C8             3.4148    -1.2228    -1.3239 C.ar    
   9 C9             2.4159    -2.1788    -1.4875 C.ar    
  10 C10           -0.8674    -3.8022    -1.4855 C.2     
  11 O11           -1.2153    -4.9185    -1.8211 O.2     
  12 N12           -1.7767    -2.9265    -1.0134 N.am    
  13 C13           -3.1839    -3.3190    -0.9043 C.3     
  14 C14           -3.9974    -2.1502    -0.3449 C.3     
  15 C15           -5.4450    -2.5539    -0.2327 C.ar    
  16 C16           -5.9111    -3.1349     0.9323 C.ar    
  17 C17           -7.2376    -3.5059     1.0377 C.ar    
  18 C18           -8.1025    -3.2947    -0.0265 C.ar    
  19 C19           -7.6323    -2.7111    -1.1943 C.ar    
  20 C20           -6.3060    -2.3376    -1.2928 C.ar    
  21 O21           -9.4076    -3.6592     0.0745 O.3     
  22 C22           -9.8485    -4.1271     1.2716 C.ar    
  23 C23          -10.3377    -3.2455     2.2249 C.ar    
  24 C24          -10.7857    -3.7239     3.4409 C.ar    
  25 C25          -10.7465    -5.0798     3.7087 C.ar    
  26 C26          -10.2596    -5.9605     2.7604 C.ar    
  27 C27           -9.8157    -5.4880     1.5407 C.ar    
  28 C28            1.4131    -5.6204    -2.5357 C.3     
  29 C29            1.1308    -5.6242    -4.0394 C.3     
  30 C30            0.9916    -7.0672    -4.5285 C.3     
  31 C31            0.7093    -7.0710    -6.0322 C.3     
  32 C32            0.5701    -8.5141    -6.5213 C.3     
  33 Cl33           6.6886    -3.1361    -2.5830 Cl      
  34 H34            0.5527    -1.4283    -0.8955 H       
  35 H35            4.3425    -4.7046    -2.7266 H       
  36 H36            5.4875    -0.7826    -1.5334 H       
  37 H37            3.1706    -0.2462    -0.9328 H       
  38 H38           -1.4993    -2.0363    -0.7458 H       
  39 H39           -3.5637    -3.5871    -1.8902 H       
  40 H40           -3.2714    -4.1755    -0.2359 H       
  41 H41           -3.6176    -1.8820     0.6410 H       
  42 H42           -3.9099    -1.2937    -1.0133 H       
  43 H43           -5.2375    -3.2990     1.7603 H       
  44 H44           -7.6010    -3.9603     1.9476 H       
  45 H45           -8.3034    -2.5457    -2.0241 H       
  46 H46           -5.9404    -1.8796    -2.1999 H       
  47 H47          -10.3678    -2.1862     2.0166 H       
  48 H48          -11.1665    -3.0381     4.1833 H       
  49 H49          -11.0966    -5.4517     4.6603 H       
  50 H50          -10.2298    -7.0191     2.9722 H       
  51 H51           -9.4392    -6.1767     0.7988 H       
  52 H52            2.3383    -6.1617    -2.3383 H       
  53 H53            0.5898    -6.1043    -2.0102 H       
  54 H54            0.2055    -5.0829    -4.2367 H       
  55 H55            1.9540    -5.1402    -4.5649 H       
  56 H56            1.9168    -7.6086    -4.3312 H       
  57 H57            0.1683    -7.5512    -4.0030 H       
  58 H58           -0.2160    -6.5297    -6.2296 H       
  59 H59            1.5325    -6.5871    -6.5577 H       
  60 H60            1.4953    -9.0554    -6.3240 H       
  61 H61           -0.2532    -8.9980    -5.9959 H       
  62 H62            0.3689    -8.5168    -7.5926 H       
@<TRIPOS>BOND
   1    1    2 1
   2    1    9 1
   3    1   34 1
   4    2    3 2
   5    2   10 1
   6    3    4 1
   7    3   28 1
   8    4    5 ar
   9    4    9 ar
  10    5    6 ar
  11    5   35 1
  12    6    7 ar
  13    6   33 1
  14    7    8 ar
  15    7   36 1
  16    8    9 ar
  17    8   37 1
  18   10   11 2
  19   10   12 am
  20   12   13 1
  21   12   38 1
  22   13   14 1
  23   13   39 1
  24   13   40 1
  25   14   15 1
  26   14   41 1
  27   14   42 1
  28   15   16 ar
  29   15   20 ar
  30   16   17 ar
  31   16   43 1
  32   17   18 ar
  33   17   44 1
  34   18   19 ar
  35   18   21 1
  36   19   20 ar
  37   19   45 1
  38   20   46 1
  39   21   22 1
  40   22   23 ar
  41   22   27 ar
  42   23   24 ar
  43   23   47 1
  44   24   25 ar
  45   24   48 1
  46   25   26 ar
  47   25   49 1
  48   26   27 ar
  49   26   50 1
  50   27   51 1
  51   28   29 1
  52   28   52 1
  53   28   53 1
  54   29   30 1
  55   29   54 1
  56   29   55 1
  57   30   31 1
  58   30   56 1
  59   30   57 1
  60   31   32 1
  61   31   58 1
  62   31   59 1
  63   32   60 1
  64   32   61 1
  65   32   62 1

#	End of record

