#	Name: ASD01913959
#	Creating user name:	WinNT
#	Creation time:	15. 06. 2019 20:02

#	Modifying user name:	WinNT
#	Modification time:	15. 06. 2019 20:02

#	Program:	/corina/corina34_cracker 3.40 0067  02.08.2006

@<TRIPOS>MOLECULE
ASD01913959
  44   47    0    0    0
SMALL
NO_CHARGES


@<TRIPOS>ATOM
   1 C1            -0.2650    -0.4381     0.4414 C.ar    
   2 C2             0.1034    -1.7524     0.6681 C.ar    
   3 C3             1.4406    -2.1059     0.6702 C.ar    
   4 C4             2.4030    -1.1366     0.4439 C.ar    
   5 C5             2.0334     0.1990     0.1950 C.ar    
   6 C6             0.6899     0.5335     0.2058 C.ar    
   7 C7             3.8506    -1.4212     0.4719 C.2     
   8 C8             4.7453    -0.3674     0.5165 C.2     
   9 C9             4.2649     1.0599     0.5432 C.3     
  10 O10            2.9772     1.1332    -0.0744 O.3     
  11 N11            4.5621    -2.5604     0.4624 N.pl3   
  12 N12            5.9235    -2.2100     0.4983 N.2     
  13 C13            6.0191    -0.8994     0.5302 C.2     
  14 C14            7.3025    -0.1107     0.5740 C.3     
  15 C15            4.0188    -3.9204     0.4228 C.3     
  16 N16            7.8101     0.0718    -0.7881 N.am    
  17 C17            7.5296     1.2025    -1.4659 C.2     
  18 C18            7.9419     1.3392    -2.8656 C.2     
  19 O19            8.6585     0.4401    -3.5725 O.3     
  20 C20            8.8458     0.9006    -4.8164 C.2     
  21 C21            8.2483     2.1096    -4.9270 C.2     
  22 C22            7.6629     2.3960    -3.6848 C.2     
  23 Br23           9.7899     0.0086    -6.1908 Br      
  24 O24            6.9340     2.1101    -0.9155 O.2     
  25 C25            8.6226    -0.9746    -1.4134 C.3     
  26 C26            7.7289    -1.8653    -2.2788 C.3     
  27 H27           -1.3109    -0.1689     0.4440 H       
  28 H28           -0.6535    -2.5024     0.8440 H       
  29 H29            1.7319    -3.1307     0.8475 H       
  30 H30            0.3873     1.5551     0.0295 H       
  31 H31            4.1934     1.4009     1.5760 H       
  32 H32            4.9670     1.6908    -0.0019 H       
  33 H33            7.1150     0.8635     1.0255 H       
  34 H34            8.0405    -0.6504     1.1675 H       
  35 H35            3.7930    -4.1915    -0.6084 H       
  36 H36            4.7524    -4.6166     0.8293 H       
  37 H37            3.1069    -3.9648     1.0182 H       
  38 H38            8.2235     2.7348    -5.8073 H       
  39 H39            7.1050     3.2834    -3.4246 H       
  40 H40            9.3900    -0.5152    -2.0364 H       
  41 H41            9.0964    -1.5781    -0.6392 H       
  42 H42            7.2551    -1.2619    -3.0530 H       
  43 H43            8.3334    -2.6439    -2.7440 H       
  44 H44            6.9615    -2.3248    -1.6558 H       
@<TRIPOS>BOND
   1    1    2 ar
   2    1    6 ar
   3    1   27 1
   4    2    3 ar
   5    2   28 1
   6    3    4 ar
   7    3   29 1
   8    4    5 ar
   9    4    7 1
  10    5    6 ar
  11    5   10 1
  12    6   30 1
  13    7    8 2
  14    7   11 1
  15    8    9 1
  16    8   13 1
  17    9   10 1
  18    9   31 1
  19    9   32 1
  20   11   12 1
  21   11   15 1
  22   12   13 2
  23   13   14 1
  24   14   16 1
  25   14   33 1
  26   14   34 1
  27   15   35 1
  28   15   36 1
  29   15   37 1
  30   16   17 am
  31   16   25 1
  32   17   18 1
  33   17   24 2
  34   18   19 1
  35   18   22 2
  36   19   20 1
  37   20   21 2
  38   20   23 1
  39   21   22 1
  40   21   38 1
  41   22   39 1
  42   25   26 1
  43   25   40 1
  44   25   41 1
  45   26   42 1
  46   26   43 1
  47   26   44 1

#	End of record

