#	Name: ASD01901432
#	Creating user name:	WinNT
#	Creation time:	15. 06. 2019 19:53

#	Modifying user name:	WinNT
#	Modification time:	15. 06. 2019 19:53

#	Program:	/corina/corina34_cracker 3.40 0067  02.08.2006

@<TRIPOS>MOLECULE
ASD01901432
  40   43    0    0    0
SMALL
NO_CHARGES


@<TRIPOS>ATOM
   1 C1            -0.0168     1.3893     0.0097 C.ar    
   2 C2             1.1699     2.0932     0.0021 C.ar    
   3 C3             2.3782     1.4172    -0.0130 C.ar    
   4 C4             2.4022     0.0333    -0.0207 C.ar    
   5 C5             1.2204    -0.6796    -0.0132 C.ar    
   6 C6             0.0021    -0.0041     0.0020 C.ar    
   7 C7            -1.2716    -0.7660     0.0101 C.2     
   8 N8            -3.1799    -1.5355    -1.1478 N.2     
   9 C9            -2.0559    -0.8617    -1.1600 C.2     
  10 C10           -1.6990    -1.3895     1.1488 C.2     
  11 N11           -2.8737    -2.0810     1.1219 N.pl3   
  12 C12           -3.6099    -2.1457    -0.0331 C.2     
  13 C13           -3.5513    -2.7941     2.0739 C.2     
  14 C14           -4.6703    -3.2723     1.4895 C.2     
  15 N15           -4.6920    -2.8697     0.2155 N.2     
  16 C16           -5.7208    -4.1178     2.1623 C.3     
  17 O17           -5.3524    -4.3403     3.5249 O.3     
  18 C18           -6.1978    -5.0893     4.2774 C.ar    
  19 C19           -5.8965    -5.3353     5.6103 C.ar    
  20 N20           -7.3028    -5.5728     3.7349 N.ar    
  21 C21           -8.1524    -6.3055     4.4294 C.ar    
  22 C22           -7.9143    -6.5949     5.7606 C.ar    
  23 C23           -6.7664    -6.1006     6.3679 C.ar    
  24 C24           -1.3312     2.1262     0.0325 C.3     
  25 F25           -8.7901    -7.3456     6.4639 F       
  26 Cl26           3.8680     2.3084    -0.0231 Cl      
  27 H27            1.1563     3.1731     0.0077 H       
  28 H28            3.3471    -0.4895    -0.0329 H       
  29 H29            1.2400    -1.7594    -0.0196 H       
  30 H30           -1.7287    -0.3775    -2.0682 H       
  31 H31           -1.1150    -1.3355     2.0558 H       
  32 H32           -3.2479    -2.9455     3.0993 H       
  33 H33           -6.6806    -3.6026     2.1249 H       
  34 H34           -5.8017    -5.0749     1.6469 H       
  35 H35           -4.9951    -4.9350     6.0502 H       
  36 H36           -9.0447    -6.6834     3.9527 H       
  37 H37           -6.5576    -6.3086     7.4069 H       
  38 H38           -1.6333     2.2984     1.0655 H       
  39 H39           -1.2203     3.0829    -0.4779 H       
  40 H40           -2.0906     1.5302    -0.4737 H       
@<TRIPOS>BOND
   1    1    6 ar
   2    1    2 ar
   3    1   24 1
   4    2    3 ar
   5    2   27 1
   6    3    4 ar
   7    3   26 1
   8    4    5 ar
   9    4   28 1
  10    5    6 ar
  11    5   29 1
  12    6    7 1
  13    7   10 2
  14    7    9 1
  15    8    9 2
  16    8   12 1
  17    9   30 1
  18   10   11 1
  19   10   31 1
  20   11   13 1
  21   11   12 1
  22   12   15 2
  23   13   14 2
  24   13   32 1
  25   14   15 1
  26   14   16 1
  27   16   17 1
  28   16   33 1
  29   16   34 1
  30   17   18 1
  31   18   20 ar
  32   18   19 ar
  33   19   23 ar
  34   19   35 1
  35   20   21 ar
  36   21   22 ar
  37   21   36 1
  38   22   23 ar
  39   22   25 1
  40   23   37 1
  41   24   38 1
  42   24   39 1
  43   24   40 1

#	End of record

