#	Name: ASD03090887
#	Creating user name:	WinNT
#	Creation time:	15. 06. 2019 20:29

#	Modifying user name:	WinNT
#	Modification time:	15. 06. 2019 20:29

#	Program:	/corina/corina34_cracker 3.40 0067  02.08.2006

@<TRIPOS>MOLECULE
ASD03090887
  60   64    0    0    0
SMALL
NO_CHARGES


@<TRIPOS>ATOM
   1 N1             0.7876     0.6696     0.4461 N.am    
   2 C2             0.6611    -0.6427     0.7260 C.2     
   3 O3            -0.4303    -1.1799     0.6488 O.2     
   4 N4             1.7320    -1.3548     1.0880 N.2     
   5 S5             0.1640    -3.5892     1.3145 S.3     
   6 C6             1.6071    -2.6508     1.3644 C.2     
   7 N7             2.5906    -3.5055     1.7432 N.pl3   
   8 C8             2.2286    -4.7976     1.9745 C.2     
   9 C9             0.9480    -5.0998     1.8078 C.2     
  10 O10            7.8281    -1.7984     2.3036 O.3     
  11 C11            8.6882    -2.5800     3.1397 C.3     
  12 C12            8.4961    -4.0589     2.7775 C.3     
  13 O13            7.1233    -4.3997     2.9989 O.3     
  14 C14            6.1919    -3.5308     2.5190 C.ar    
  15 C15            6.5431    -2.2306     2.1734 C.ar    
  16 C16            4.8798    -3.9531     2.3749 C.ar    
  17 C17            3.9180    -3.0781     1.8891 C.ar    
  18 C18            4.2710    -1.7800     1.5475 C.ar    
  19 C19            5.5792    -1.3588     1.6895 C.ar    
  20 F20            8.8214    -4.2612     1.4319 F       
  21 F21            9.3159    -4.8532     3.5864 F       
  22 F22           10.0200    -2.2103     2.9231 F       
  23 F23            8.3536    -2.3759     4.4827 F       
  24 C24            0.2965    -6.4454     1.9976 C.3     
  25 C25            2.0994     1.3152     0.5388 C.3     
  26 C26           -0.3856     1.4491     0.0433 C.3     
  27 C27           -1.0458     2.0315     1.2664 C.ar    
  28 C28           -0.5297     3.1774     1.8545 C.ar    
  29 C29           -1.1386     3.7121     2.9803 C.ar    
  30 C30           -2.2580     3.1031     3.5144 C.ar    
  31 C31           -2.7718     1.9599     2.9265 C.ar    
  32 C32           -2.1682     1.4282     1.7992 C.ar    
  33 O33            0.5719     3.7751     1.3283 O.3     
  34 C34            1.1082     4.8281     1.9992 C.ar    
  35 C35            1.8414     4.6135     3.1575 C.ar    
  36 C36            2.3860     5.6856     3.8374 C.ar    
  37 C37            2.2006     6.9718     3.3648 C.ar    
  38 C38            1.4704     7.1884     2.2108 C.ar    
  39 C39            0.9285     6.1193     1.5240 C.ar    
  40 F40           -3.8661     1.3653     3.4500 F       
  41 H41            2.9502    -5.5412     2.2793 H       
  42 H42            4.6054    -4.9631     2.6415 H       
  43 H43            3.5227    -1.0986     1.1705 H       
  44 H44            5.8517    -0.3482     1.4234 H       
  45 H45           -0.7691    -6.3669     1.7820 H       
  46 H46            0.7519    -7.1683     1.3207 H       
  47 H47            0.4355    -6.7744     3.0275 H       
  48 H48            2.6065     1.2476    -0.4237 H       
  49 H49            1.9703     2.3633     0.8086 H       
  50 H50            2.6975     0.8150     1.3005 H       
  51 H51           -0.0753     2.2556    -0.6210 H       
  52 H52           -1.0912     0.8012    -0.4767 H       
  53 H53           -0.7378     4.6037     3.4394 H       
  54 H54           -2.7321     3.5190     4.3911 H       
  55 H55           -2.5730     0.5391     1.3388 H       
  56 H56            1.9859     3.6092     3.5274 H       
  57 H57            2.9567     5.5191     4.7390 H       
  58 H58            2.6265     7.8087     3.8982 H       
  59 H59            1.3267     8.1940     1.8440 H       
  60 H60            0.3617     6.2887     0.6204 H       
@<TRIPOS>BOND
   1    1    2 am
   2    1   25 1
   3    1   26 1
   4    2    3 2
   5    2    4 1
   6    4    6 2
   7    5    6 1
   8    5    9 1
   9    6    7 1
  10    7    8 1
  11    7   17 1
  12    8    9 2
  13    8   41 1
  14    9   24 1
  15   10   11 1
  16   10   15 1
  17   11   12 1
  18   11   22 1
  19   11   23 1
  20   12   13 1
  21   12   20 1
  22   12   21 1
  23   13   14 1
  24   14   15 ar
  25   14   16 ar
  26   15   19 ar
  27   16   17 ar
  28   16   42 1
  29   17   18 ar
  30   18   19 ar
  31   18   43 1
  32   19   44 1
  33   24   45 1
  34   24   46 1
  35   24   47 1
  36   25   48 1
  37   25   49 1
  38   25   50 1
  39   26   27 1
  40   26   51 1
  41   26   52 1
  42   27   28 ar
  43   27   32 ar
  44   28   29 ar
  45   28   33 1
  46   29   30 ar
  47   29   53 1
  48   30   31 ar
  49   30   54 1
  50   31   32 ar
  51   31   40 1
  52   32   55 1
  53   33   34 1
  54   34   35 ar
  55   34   39 ar
  56   35   36 ar
  57   35   56 1
  58   36   37 ar
  59   36   57 1
  60   37   38 ar
  61   37   58 1
  62   38   39 ar
  63   38   59 1
  64   39   60 1

#	End of record

