#	Name: ASD00310063
#	Creating user name:	WinNT
#	Creation time:	15. 06. 2019 18:33

#	Modifying user name:	WinNT
#	Modification time:	15. 06. 2019 18:33

#	Program:	/corina/corina34_cracker 3.40 0067  02.08.2006

@<TRIPOS>MOLECULE
ASD00310063
  46   48    0    0    0
SMALL
NO_CHARGES


@<TRIPOS>ATOM
   1 C1            -0.0184     1.5028     0.0103 C.2     
   2 C2             0.0021    -0.0041     0.0020 C.3     
   3 N3             1.1395     2.1925     0.0030 N.am    
   4 C4             1.2644     3.6574     0.0096 C.3     
   5 C5             2.7711     3.9890    -0.0293 C.3     
   6 C6             3.3952     2.7002    -0.6266 C.3     
   7 C7             2.4907     1.6029    -0.0067 C.3     
   8 C8             3.0335     5.1728    -0.9242 C.ar    
   9 C9             3.6479     6.3016    -0.4114 C.ar    
  10 C10            3.8906     7.3883    -1.2262 C.ar    
  11 C11            3.5161     7.3473    -2.5683 C.ar    
  12 C12            2.8980     6.2074    -3.0795 C.ar    
  13 C13            2.6644     5.1246    -2.2569 C.ar    
  14 O14            3.4136     8.5589    -4.8766 O.3     
  15 B15            3.7891     8.5808    -3.5004 Du      
  16 O16            4.4196     9.7572    -2.9965 O.3     
  17 C17            3.7148    10.9544    -3.3477 C.3     
  18 C18            3.4850    10.9722    -4.8618 C.3     
  19 C19            2.6869     9.7301    -5.2688 C.3     
  20 C20            2.7023    12.2299    -5.2445 C.3     
  21 C21            4.8343    10.9710    -5.5830 C.3     
  22 O22           -1.0768     2.0948     0.0185 O.2     
  23 H23            0.5293    -0.3651     0.8851 H       
  24 H24           -1.0205    -0.3814     0.0098 H       
  25 H25            0.5123    -0.3556    -0.8948 H       
  26 H26            0.7700     4.0755    -0.8672 H       
  27 H27            0.8188     4.0632     0.9178 H       
  28 H28            3.1518     4.1719     0.9756 H       
  29 H29            3.3254     2.7002    -1.7144 H       
  30 H30            4.4292     2.5806    -0.3030 H       
  31 H31            2.8115     1.3729     1.0093 H       
  32 H32            2.5082     0.7044    -0.6234 H       
  33 H33            3.9376     6.3323     0.6285 H       
  34 H34            4.3695     8.2692    -0.8249 H       
  35 H35            2.6054     6.1705    -4.1185 H       
  36 H36            2.1889     4.2395    -2.6528 H       
  37 H37            2.7544    10.9766    -2.8327 H       
  38 H38            4.3056    11.8236    -3.0583 H       
  39 H39            2.5445     9.7260    -6.3495 H       
  40 H40            1.7168     9.7408    -4.7719 H       
  41 H41            3.2696    13.1137    -4.9529 H       
  42 H42            2.5388    12.2423    -6.3221 H       
  43 H43            1.7407    12.2297    -4.7312 H       
  44 H44            5.3910    10.0743    -5.3107 H       
  45 H45            4.6704    10.9836    -6.6605 H       
  46 H46            5.4029    11.8541    -5.2916 H       
@<TRIPOS>BOND
   1    1    2 1
   2    1    3 am
   3    1   22 2
   4    2   23 1
   5    2   24 1
   6    2   25 1
   7    3    4 1
   8    3    7 1
   9    4    5 1
  10    4   26 1
  11    4   27 1
  12    5    6 1
  13    5    8 1
  14    5   28 1
  15    6    7 1
  16    6   29 1
  17    6   30 1
  18    7   31 1
  19    7   32 1
  20    8    9 ar
  21    8   13 ar
  22    9   10 ar
  23    9   33 1
  24   10   11 ar
  25   10   34 1
  26   11   12 ar
  27   11   15 1
  28   12   13 ar
  29   12   35 1
  30   13   36 1
  31   14   15 1
  32   14   19 1
  33   15   16 1
  34   16   17 1
  35   17   18 1
  36   17   37 1
  37   17   38 1
  38   18   19 1
  39   18   20 1
  40   18   21 1
  41   19   39 1
  42   19   40 1
  43   20   41 1
  44   20   42 1
  45   20   43 1
  46   21   44 1
  47   21   45 1
  48   21   46 1

#	End of record

