#	Name: ASD01230455
#	Creating user name:	WinNT
#	Creation time:	15. 06. 2019 19:14

#	Modifying user name:	WinNT
#	Modification time:	15. 06. 2019 19:14

#	Program:	/corina/corina34_cracker 3.40 0067  02.08.2006

@<TRIPOS>MOLECULE
ASD01230455
  44   46    0    0    0
SMALL
NO_CHARGES


@<TRIPOS>ATOM
   1 C1             1.3172    -0.8858     0.1255 C.ar    
   2 C2             0.1047    -0.1814     0.1391 C.ar    
   3 C3             0.1363     1.2122     0.1787 C.ar    
   4 C4             1.3706     1.8433     0.2031 C.ar    
   5 C5             2.5230     1.0820     0.1876 C.ar    
   6 N6             2.4694    -0.2364     0.1500 N.ar    
   7 N7             1.3083    -2.2737     0.0919 N.pl3   
   8 C8            -1.1887    -0.9060     0.1112 C.ar    
   9 C9            -2.1823    -0.5975     1.0393 C.ar    
  10 C10           -3.3841    -1.2731     1.0109 C.ar    
  11 C11           -3.6052    -2.2598     0.0592 C.ar    
  12 C12           -2.6174    -2.5696    -0.8662 C.ar    
  13 C13           -1.4159    -1.8932    -0.8467 C.ar    
  14 O14           -4.7904    -2.9237     0.0338 O.3     
  15 C15           -5.6818    -2.6736     1.0250 C.2     
  16 C16           -6.7933    -2.0719     0.7107 C.2     
  17 C17           -7.8664    -1.7223     1.7001 C.3     
  18 C18           -7.6759    -2.5241     2.9893 C.3     
  19 C19           -6.2148    -2.3871     3.4353 C.3     
  20 C20           -5.3303    -3.1124     2.4165 C.3     
  21 C21           -8.5995    -1.9741     4.0781 C.3     
  22 C22           -7.9988    -3.9972     2.7311 C.3     
  23 H23           -0.7786     1.7861     0.1898 H       
  24 H24            1.4305     2.9212     0.2337 H       
  25 H25            3.4843     1.5738     0.2067 H       
  26 H26            0.4652    -2.7531     0.0779 H       
  27 H27            2.1452    -2.7639     0.0825 H       
  28 H28           -2.0108     0.1696     1.7800 H       
  29 H29           -4.1540    -1.0348     1.7299 H       
  30 H30           -2.7922    -3.3377    -1.6049 H       
  31 H31           -0.6497    -2.1313    -1.5697 H       
  32 H32           -6.9524    -1.8083    -0.3245 H       
  33 H33           -7.8161    -0.6572     1.9262 H       
  34 H34           -8.8418    -1.9530     1.2718 H       
  35 H35           -5.9420    -1.3326     3.4775 H       
  36 H36           -6.0876    -2.8411     4.4181 H       
  37 H37           -5.4797    -4.1885     2.5046 H       
  38 H38           -4.2848    -2.8773     2.6162 H       
  39 H39           -9.6360    -2.0561     3.7508 H       
  40 H40           -8.4617    -2.5471     4.9950 H       
  41 H41           -8.3589    -0.9274     4.2641 H       
  42 H42           -7.3319    -4.3858     1.9615 H       
  43 H43           -7.8623    -4.5657     3.6511 H       
  44 H44           -9.0321    -4.0895     2.3969 H       
@<TRIPOS>BOND
   1    1    2 ar
   2    1    6 ar
   3    1    7 1
   4    2    3 ar
   5    2    8 1
   6    3    4 ar
   7    3   23 1
   8    4    5 ar
   9    4   24 1
  10    5    6 ar
  11    5   25 1
  12    7   26 1
  13    7   27 1
  14    8    9 ar
  15    8   13 ar
  16    9   10 ar
  17    9   28 1
  18   10   11 ar
  19   10   29 1
  20   11   12 ar
  21   11   14 1
  22   12   13 ar
  23   12   30 1
  24   13   31 1
  25   14   15 1
  26   15   16 2
  27   15   20 1
  28   16   17 1
  29   16   32 1
  30   17   18 1
  31   17   33 1
  32   17   34 1
  33   18   19 1
  34   18   21 1
  35   18   22 1
  36   19   20 1
  37   19   35 1
  38   19   36 1
  39   20   37 1
  40   20   38 1
  41   21   39 1
  42   21   40 1
  43   21   41 1
  44   22   42 1
  45   22   43 1
  46   22   44 1

#	End of record

