#	Name: ASD02030274
#	Creating user name:	WinNT
#	Creation time:	15. 06. 2019 20:15

#	Modifying user name:	WinNT
#	Modification time:	15. 06. 2019 20:15

#	Program:	/corina/corina34_cracker 3.40 0067  02.08.2006

@<TRIPOS>MOLECULE
ASD02030274
  46   49    0    0    0
SMALL
NO_CHARGES


@<TRIPOS>ATOM
   1 N1            -0.0616     1.2929     0.3302 N.am    
   2 C2            -0.2648    -0.1625     0.3499 C.3     
   3 C3            -1.3024    -0.4979     1.4284 C.3     
   4 N4            -2.4686     0.3777     1.2466 N.am    
   5 C5            -2.2654     1.8331     1.2269 C.3     
   6 C6            -1.2286     2.1687     0.1539 C.3     
   7 C7             1.1722     1.8153     0.4767 C.2     
   8 C8             2.3168     0.9323     0.7859 C.2     
   9 N9             3.5399     1.3228     1.0727 N.2     
  10 N10            2.2899    -0.4125     0.8291 N.2     
  11 C11            3.4964    -0.8160     1.1359 C.2     
  12 N12            4.2673     0.2807     1.2853 N.pl3   
  13 C13            5.6292     0.2859     1.6159 C.ar    
  14 O14            1.3437     3.0125     0.3547 O.2     
  15 C15           -3.7024    -0.1446     1.1001 C.2     
  16 C16           -3.8779    -1.5972     1.0170 C.2     
  17 O17           -4.6707     0.5900     1.0368 O.2     
  18 C18            6.3101     1.4891     1.7397 C.ar    
  19 C19            7.6536     1.4908     2.0659 C.ar    
  20 C20            8.3189     0.2944     2.2682 C.ar    
  21 C21            7.6424    -0.9053     2.1448 C.ar    
  22 C22            6.2987    -0.9126     1.8257 C.ar    
  23 C23           -0.8006     3.6310     0.2929 C.3     
  24 O24           -2.9149    -2.5241     1.2035 O.3     
  25 C25           -3.4395    -3.7474     1.0500 C.2     
  26 C26           -4.7560    -3.6226     0.7608 C.2     
  27 C27           -5.0463    -2.2499     0.7430 C.2     
  28 Br28          -2.4966    -5.3787     1.2104 Br      
  29 Br29          -5.9759    -5.0330     0.4471 Br      
  30 Cl30           8.5067     2.9947     2.2211 Cl      
  31 H31           -0.6279    -0.4944    -0.6228 H       
  32 H32            0.6770    -0.6603     0.5809 H       
  33 H33           -1.6082    -1.5395     1.3306 H       
  34 H34           -0.8707    -0.3320     2.4155 H       
  35 H35           -3.2072     2.3309     0.9959 H       
  36 H36           -1.9023     2.1650     2.1996 H       
  37 H37           -1.6578     2.0029    -0.8342 H       
  38 H38            3.8161    -1.8411     1.2518 H       
  39 H39            5.7911     2.4229     1.5811 H       
  40 H40            9.3685     0.2976     2.5225 H       
  41 H41            8.1643    -1.8375     2.3026 H       
  42 H42            5.7712    -1.8502     1.7299 H       
  43 H43           -0.2648     3.7651     1.2326 H       
  44 H44           -0.1489     3.8995    -0.5385 H       
  45 H45           -1.6834     4.2704     0.2836 H       
  46 H46           -6.0064    -1.7968     0.5444 H       
@<TRIPOS>BOND
   1    1    2 1
   2    1    7 am
   3    1    6 1
   4    2    3 1
   5    2   31 1
   6    2   32 1
   7    3    4 1
   8    3   33 1
   9    3   34 1
  10    4    5 1
  11    4   15 am
  12    5    6 1
  13    5   35 1
  14    5   36 1
  15    6   23 1
  16    6   37 1
  17    7    8 1
  18    7   14 2
  19    8    9 2
  20    8   10 1
  21    9   12 1
  22   10   11 2
  23   11   12 1
  24   11   38 1
  25   12   13 1
  26   13   18 ar
  27   13   22 ar
  28   15   16 1
  29   15   17 2
  30   16   24 1
  31   16   27 2
  32   18   19 ar
  33   18   39 1
  34   19   20 ar
  35   19   30 1
  36   20   21 ar
  37   20   40 1
  38   21   22 ar
  39   21   41 1
  40   22   42 1
  41   23   43 1
  42   23   44 1
  43   23   45 1
  44   24   25 1
  45   25   26 2
  46   25   28 1
  47   26   27 1
  48   26   29 1
  49   27   46 1

#	End of record

