#	Name: ASD04590267
#	Creating user name:	WinNT
#	Creation time:	15. 06. 2019 20:50

#	Modifying user name:	WinNT
#	Modification time:	15. 06. 2019 20:50

#	Program:	/corina/corina34_cracker 3.40 0067  02.08.2006

@<TRIPOS>MOLECULE
ASD04590267
  39   42    0    0    0
SMALL
NO_CHARGES


@<TRIPOS>ATOM
   1 C1            -0.0157     1.3069     0.0092 C.2     
   2 N2             0.0021    -0.0041     0.0020 N.2     
   3 N3             1.2661     1.7876    -0.0004 N.pl3   
   4 C4             2.1124     0.6949    -0.0144 C.ar    
   5 C5             1.2849    -0.4421    -0.0126 C.ar    
   6 C6             3.4917     0.5471    -0.0279 C.ar    
   7 C7             4.0468    -0.7154    -0.0396 C.ar    
   8 C8             3.2353    -1.8408    -0.0384 C.ar    
   9 C9             1.8649    -1.7144    -0.0254 C.ar    
  10 C10           -1.2358     2.1402     0.0198 C.2     
  11 N11           -1.2743     3.4582     0.0262 N.2     
  12 C12           -2.5674     1.6645     0.0186 C.2     
  13 C13           -3.3908     2.7410     0.0304 C.2     
  14 N14           -2.6166     3.8577     0.0353 N.pl3   
  15 N15           -2.9655     0.3174     0.0067 N.am    
  16 C16           -4.2759     0.0019     0.0070 C.2     
  17 C17           -4.7030    -1.4433    -0.0057 C.3     
  18 O18           -5.1114     0.8812     0.0174 O.2     
  19 C19           -6.2079    -1.5223    -0.0027 C.ar    
  20 C20           -6.9011    -1.5472    -1.1984 C.ar    
  21 C21           -6.8948    -1.5757     1.1957 C.ar    
  22 C22           -8.2753    -1.6482     1.1985 C.ar    
  23 C23           -8.9688    -1.6670     0.0028 C.ar    
  24 C24           -8.2815    -1.6197    -1.1957 C.ar    
  25 H25            1.5310     2.7207     0.0021 H       
  26 H26            4.1294     1.4187    -0.0297 H       
  27 H27            5.1208    -0.8289    -0.0502 H       
  28 H28            3.6825    -2.8238    -0.0480 H       
  29 H29            1.2396    -2.5950    -0.0243 H       
  30 H30           -4.4705     2.7157     0.0321 H       
  31 H31           -2.9379     4.7729     0.0435 H       
  32 H32           -2.2974    -0.3858    -0.0016 H       
  33 H33           -4.3154    -1.9288    -0.9013 H       
  34 H34           -4.3110    -1.9458     0.8786 H       
  35 H35           -6.3642    -1.5097    -2.1347 H       
  36 H36           -6.3530    -1.5611     2.1298 H       
  37 H37           -8.8119    -1.6907     2.1348 H       
  38 H38          -10.0473    -1.7240     0.0050 H       
  39 H39           -8.8234    -1.6344    -2.1298 H       
@<TRIPOS>BOND
   1    1    2 2
   2    1    3 1
   3    1   10 1
   4    2    5 1
   5    3    4 1
   6    3   25 1
   7    4    5 ar
   8    4    6 ar
   9    5    9 ar
  10    6    7 ar
  11    6   26 1
  12    7    8 ar
  13    7   27 1
  14    8    9 ar
  15    8   28 1
  16    9   29 1
  17   10   11 2
  18   10   12 1
  19   11   14 1
  20   12   13 2
  21   12   15 1
  22   13   14 1
  23   13   30 1
  24   14   31 1
  25   15   16 am
  26   15   32 1
  27   16   17 1
  28   16   18 2
  29   17   19 1
  30   17   33 1
  31   17   34 1
  32   19   20 ar
  33   19   21 ar
  34   20   24 ar
  35   20   35 1
  36   21   22 ar
  37   21   36 1
  38   22   23 ar
  39   22   37 1
  40   23   24 ar
  41   23   38 1
  42   24   39 1

#	End of record

