#	Name: ASD01152151
#	Creating user name:	WinNT
#	Creation time:	15. 06. 2019 19:05

#	Modifying user name:	WinNT
#	Modification time:	15. 06. 2019 19:05

#	Program:	/corina/corina34_cracker 3.40 0067  02.08.2006

@<TRIPOS>MOLECULE
ASD01152151
  60   63    0    0    0
SMALL
NO_CHARGES


@<TRIPOS>ATOM
   1 N1            -0.0164     1.3554     0.0095 N.pl3   
   2 C2             0.0021    -0.0041     0.0020 C.2     
   3 N3            -1.2340    -0.4570     0.0114 N.2     
   4 C4            -2.0958     0.5636     0.0251 C.2     
   5 C5            -1.3586     1.7413     0.0305 C.2     
   6 N6            -3.4819     0.4650     0.0374 N.am    
   7 N7             1.1352    -0.7843    -0.0134 N.3     
   8 C8            -1.8626     3.0575     0.0449 C.2     
   9 O9            -1.0119     4.1063     0.0490 O.3     
  10 O10           -3.0652     3.2489     0.0537 O.2     
  11 C11           -1.5921     5.4121     0.0638 C.3     
  12 C12           -2.4509     5.5745     1.3196 C.3     
  13 C13           -0.4809     6.4639     0.0664 C.3     
  14 C14           -2.4656     5.5962    -1.1788 C.3     
  15 C15            1.0970     2.2056     0.0034 C.ar    
  16 C16            1.3313     3.0373    -1.0835 C.ar    
  17 C17            2.4298     3.8745    -1.0865 C.ar    
  18 C18            3.2959     3.8849    -0.0086 C.ar    
  19 C19            3.0655     3.0574     1.0751 C.ar    
  20 C20            1.9653     2.2226     1.0868 C.ar    
  21 C21           -4.0713    -0.7470     0.0366 C.2     
  22 O22           -3.3904    -1.7540     0.0251 O.2     
  23 C23           -5.5447    -0.8518     0.0497 C.ar    
  24 C24           -6.1592    -2.1066     0.0489 C.ar    
  25 C25           -7.5377    -2.1963     0.0612 C.ar    
  26 C26           -8.3080    -1.0481     0.0737 C.ar    
  27 C27           -7.7050     0.1979     0.0741 C.ar    
  28 C28           -6.3301     0.3028     0.0687 C.ar    
  29 Cl29          -5.1932    -3.5489     0.0320 Cl      
  30 C30            0.7897    -2.2177    -0.0177 C.3     
  31 C31            1.4562    -2.8448    -1.2602 C.3     
  32 C32            2.6066    -1.8536    -1.5776 C.3     
  33 C33            1.9611    -0.4955    -1.2052 C.3     
  34 H34           -4.0252     1.2685     0.0466 H       
  35 H35           -1.8285     5.4433     2.2048 H       
  36 H36           -2.8934     6.5705     1.3308 H       
  37 H37           -3.2425     4.8252     1.3177 H       
  38 H38            0.1310     6.3482    -0.8283 H       
  39 H39           -0.9234     7.4599     0.0777 H       
  40 H40            0.1415     6.3327     0.9516 H       
  41 H41           -3.2572     4.8469    -1.1806 H       
  42 H42           -2.9081     6.5923    -1.1675 H       
  43 H43           -1.8538     5.4805    -2.0734 H       
  44 H44            0.6554     3.0294    -1.9258 H       
  45 H45            2.6128     4.5213    -1.9318 H       
  46 H46            4.1542     4.5403    -0.0133 H       
  47 H47            3.7442     3.0673     1.9152 H       
  48 H48            1.7857     1.5768     1.9337 H       
  49 H49           -8.0147    -3.1653     0.0606 H       
  50 H50           -9.3853    -1.1238     0.0829 H       
  51 H51           -8.3131     1.0904     0.0832 H       
  52 H52           -5.8616     1.2759     0.0694 H       
  53 H53            1.1695    -2.6933     0.8866 H       
  54 H54           -0.2920    -2.3382    -0.0765 H       
  55 H55            1.8524    -3.8333    -1.0274 H       
  56 H56            0.7519    -2.8965    -2.0905 H       
  57 H57            3.4785    -2.0551    -0.9554 H       
  58 H58            2.8680    -1.8846    -2.6353 H       
  59 H59            1.3357    -0.1359    -2.0222 H       
  60 H60            2.7312     0.2374    -0.9646 H       
@<TRIPOS>BOND
   1    1    2 1
   2    1   15 1
   3    1    5 1
   4    2    3 2
   5    2    7 1
   6    3    4 1
   7    4    5 2
   8    4    6 1
   9    5    8 1
  10    6   21 am
  11    6   34 1
  12    7   30 1
  13    7   33 1
  14    8    9 1
  15    8   10 2
  16    9   11 1
  17   11   12 1
  18   11   13 1
  19   11   14 1
  20   12   35 1
  21   12   36 1
  22   12   37 1
  23   13   38 1
  24   13   39 1
  25   13   40 1
  26   14   41 1
  27   14   42 1
  28   14   43 1
  29   15   16 ar
  30   15   20 ar
  31   16   17 ar
  32   16   44 1
  33   17   18 ar
  34   17   45 1
  35   18   19 ar
  36   18   46 1
  37   19   20 ar
  38   19   47 1
  39   20   48 1
  40   21   22 2
  41   21   23 1
  42   23   24 ar
  43   23   28 ar
  44   24   25 ar
  45   24   29 1
  46   25   26 ar
  47   25   49 1
  48   26   27 ar
  49   26   50 1
  50   27   28 ar
  51   27   51 1
  52   28   52 1
  53   30   31 1
  54   30   53 1
  55   30   54 1
  56   31   32 1
  57   31   55 1
  58   31   56 1
  59   32   33 1
  60   32   57 1
  61   32   58 1
  62   33   59 1
  63   33   60 1

#	End of record

