#	Name: ASD05143064
#	Creating user name:	WinNT
#	Creation time:	15. 06. 2019 20:57

#	Modifying user name:	WinNT
#	Modification time:	15. 06. 2019 20:57

#	Program:	/corina/corina34_cracker 3.40 0067  02.08.2006

@<TRIPOS>MOLECULE
ASD05143064
 149  153    0    0    0
SMALL
NO_CHARGES


@<TRIPOS>ATOM
   1 C1            -0.0893     4.5702     0.5795 C.2     
   2 C2            -0.1829     3.1800     1.1537 C.3     
   3 N3             1.1174     5.1187     0.3355 N.am    
   4 O4            -1.0999     5.1935     0.3323 O.2     
   5 C5             1.2084     6.4701    -0.2226 C.3     
   6 C6             0.5375     7.4616     0.7301 C.3     
   7 C7             0.5137     6.5093    -1.5594 C.2     
   8 C8             1.3181     7.5134     2.0450 C.3     
   9 C9             0.6472     8.5049     2.9977 C.3     
  10 N10            1.3946     8.5544     4.2567 N.pl3   
  11 C11            0.9768     9.3818     5.2721 C.2     
  12 N12            1.6783     9.4283     6.4536 N.pl3   
  13 N13           -0.0843    10.1222     5.1146 N.2     
  14 O14           -0.2998     5.6564    -1.8453 O.2     
  15 N15            0.7963     7.4922    -2.4371 N.am    
  16 C16            0.1209     7.5304    -3.7366 C.3     
  17 C17            0.1069     8.9672    -4.2621 C.3     
  18 C18           -0.4466     9.8995    -3.1827 C.3     
  19 C19            0.3858    11.1824    -3.1412 C.3     
  20 N20            1.8141    10.8388    -3.1303 N.3     
  21 C21            2.6388    12.0223    -2.8525 C.3     
  22 C22            4.0044    11.8603    -3.5232 C.3     
  23 C23            5.0144    12.7972    -2.8578 C.3     
  24 C24            6.1279    13.1341    -3.8515 C.3     
  25 N25            7.2448    12.1886    -3.6560 N.am    
  26 C26            6.6100    14.5416    -3.6113 C.2     
  27 N27            5.9093    15.5859    -4.0959 N.am    
  28 O28            7.6286    14.7345    -2.9819 O.2     
  29 C29            7.5312    11.3596    -4.6975 C.2     
  30 O30            6.8819    11.4092    -5.7207 O.2     
  31 C31            8.6679    10.3797    -4.5595 C.3     
  32 N32            8.5485     9.3594    -5.6257 N.am    
  33 C33           10.0010    11.1170    -4.7018 C.3     
  34 C34            8.3070     8.0867    -5.1915 C.2     
  35 O35            8.1962     7.8490    -4.0073 O.2     
  36 C36            8.1803     6.9837    -6.2102 C.3     
  37 N37            7.5324     5.8190    -5.5745 N.am    
  38 C38            7.3276     7.4667    -7.3852 C.3     
  39 C39            6.3505     5.4112    -6.1125 C.2     
  40 O40            5.8768     5.9921    -7.0660 O.2     
  41 C41            5.6384     4.2284    -5.5086 C.3     
  42 C42           11.1350    10.1591    -4.4418 C.2     
  43 C43           11.7530     9.2556    -5.4152 C.ar    
  44 C44           12.7605     8.5640    -4.7185 C.ar    
  45 N45           12.7447     9.0225    -3.4203 N.pl3   
  46 C46           11.7742     9.9762    -3.2756 C.2     
  47 C47           11.5361     8.9927    -6.7693 C.ar    
  48 C48           12.3048     8.0636    -7.4114 C.ar    
  49 C49           13.3001     7.3779    -6.7282 C.ar    
  50 C50           13.5316     7.6223    -5.3925 C.ar    
  51 N51            4.2278     4.2457    -5.9593 N.am    
  52 C52            5.6912     4.3216    -3.9823 C.3     
  53 C53            7.1087     4.1133    -3.5150 C.ar    
  54 C54            7.7917     5.1499    -2.9041 C.ar    
  55 C55            9.0893     4.9660    -2.4735 C.ar    
  56 C56            9.7133     3.7302    -2.6555 C.ar    
  57 C57            9.0181     2.6884    -3.2728 C.ar    
  58 C58            7.7191     2.8845    -3.6938 C.ar    
  59 C59            0.8560     6.6461    -4.7109 C.2     
  60 O60            1.2072     7.0773    -5.7887 O.2     
  61 C61            7.4194     6.4569    -8.5310 C.3     
  62 C62            6.4493     6.8587    -9.6438 C.3     
  63 N63            6.5372     5.8918   -10.7409 N.pl3   
  64 C64            5.7525     6.0476   -11.8590 C.2     
  65 N65            4.8852     7.1107   -11.9475 N.pl3   
  66 N66            5.8307     5.1874   -12.8351 N.2     
  67 N67            1.1205     5.3565    -4.3636 N.am    
  68 C68            1.8464     4.5406    -5.3573 C.3     
  69 C69            3.3062     4.5052    -4.9849 C.2     
  70 O70            3.6564     4.7031    -3.8408 O.2     
  71 C71            1.6865     5.1621    -6.7461 C.3     
  72 C72            0.2210     5.3025    -7.0680 C.2     
  73 C73           -0.4050     6.4396    -7.4268 C.2     
  74 N74           -1.7214     6.1212    -7.6254 N.pl3   
  75 C75           -1.8541     4.7998    -7.3809 C.2     
  76 N76           -0.6873     4.3158    -7.0529 N.2     
  77 C77           11.0602     3.5323    -2.2114 C.1     
  78 N78           12.1288     3.3752    -1.8592 N.1     
  79 H79            0.8201     2.7804     1.3034 H       
  80 H80           -0.7060     3.2160     2.1093 H       
  81 H81           -0.7305     2.5380     0.4637 H       
  82 H82            1.9256     4.6186     0.5295 H       
  83 H83            2.2565     6.7409    -0.3498 H       
  84 H84            0.5263     8.4520     0.2750 H       
  85 H85           -0.4854     7.1408     0.9272 H       
  86 H86            1.3293     6.5230     2.5001 H       
  87 H87            2.3410     7.8342     1.8479 H       
  88 H88            0.6360     9.4953     2.5426 H       
  89 H89           -0.3757     8.1840     3.1948 H       
  90 H90            2.1843     8.0034     4.3739 H       
  91 H91            2.4679     8.8773     6.5709 H       
  92 H92            1.3835    10.0121     7.1700 H       
  93 H93           -0.3791    10.7059     5.8310 H       
  94 H94            1.4469     8.1744    -2.2084 H       
  95 H95           -0.9032     7.1746    -3.6244 H       
  96 H96            1.1221     9.2703    -4.5183 H       
  97 H97           -0.5239     9.0235    -5.1492 H       
  98 H98           -1.4832    10.1462    -3.4125 H       
  99 H99           -0.3975     9.4030    -2.2136 H       
 100 H100           0.1645    11.7879    -4.0201 H       
 101 H101           0.1407    11.7457    -2.2408 H       
 102 H102           2.0038    10.1022    -2.4672 H       
 103 H103           2.1440    12.9105    -3.2455 H       
 104 H104           2.7729    12.1273    -1.7758 H       
 105 H105           4.3410    10.8290    -3.4173 H       
 106 H106           3.9211    12.1083    -4.5813 H       
 107 H107           4.5117    13.7143    -2.5505 H       
 108 H108           5.4433    12.3074    -1.9836 H       
 109 H109           5.7481    13.0452    -4.8694 H       
 110 H110           7.7492    12.1597    -2.8280 H       
 111 H111           5.0947    15.4316    -4.5993 H       
 112 H112           6.2197    16.4918    -3.9413 H       
 113 H113           8.6173     9.8964    -3.5838 H       
 114 H114           8.6353     9.5792    -6.5665 H       
 115 H115          10.0884    11.5180    -5.7115 H       
 116 H116          10.0430    11.9339    -3.9814 H       
 117 H117           9.1706     6.7009    -6.5673 H       
 118 H118           7.9288     5.3676    -4.8129 H       
 119 H119           6.2896     7.5609    -7.0662 H       
 120 H120           7.6927     8.4359    -7.7249 H       
 121 H121           6.1166     3.3060    -5.8382 H       
 122 H122          13.3361     8.7177    -2.7145 H       
 123 H123          11.5504    10.4986    -2.3573 H       
 124 H124          10.7632     9.5218    -7.3070 H       
 125 H125          12.1366     7.8605    -8.4587 H       
 126 H126          13.8993     6.6460    -7.2494 H       
 127 H127          14.3084     7.0839    -4.8699 H       
 128 H128           3.9758     4.0844    -6.8820 H       
 129 H129           5.3453     5.3058    -3.6662 H       
 130 H130           5.0494     3.5545    -3.5491 H       
 131 H131           7.3080     6.1054    -2.7643 H       
 132 H132           9.6214     5.7761    -1.9971 H       
 133 H133           9.4950     1.7302    -3.4170 H       
 134 H134           7.1802     2.0796    -4.1714 H       
 135 H135           8.4364     6.4435    -8.9228 H       
 136 H136           7.1589     5.4647    -8.1626 H       
 137 H137           5.4323     6.8720    -9.2519 H       
 138 H138           6.7098     7.8509   -10.0122 H       
 139 H139           7.1491     5.1417   -10.6785 H       
 140 H140           4.8270     7.7509   -11.2210 H       
 141 H141           4.3315     7.2206   -12.7363 H       
 142 H142           5.2770     5.2973   -13.6239 H       
 143 H143           0.8459     4.9924    -3.5075 H       
 144 H144           1.4456     3.5269    -5.3604 H       
 145 H145           2.1575     6.1450    -6.7608 H       
 146 H146           2.1616     4.5205    -7.4882 H       
 147 H147           0.0450     7.4152    -7.5364 H       
 148 H148          -2.4271     6.7310    -7.8920 H       
 149 H149          -2.7727     4.2361    -7.4494 H       
@<TRIPOS>BOND
   1    1    2 1
   2    1    3 am
   3    1    4 2
   4    2   79 1
   5    2   80 1
   6    2   81 1
   7    3    5 1
   8    3   82 1
   9    5    6 1
  10    5    7 1
  11    5   83 1
  12    6    8 1
  13    6   84 1
  14    6   85 1
  15    7   14 2
  16    7   15 am
  17    8    9 1
  18    8   86 1
  19    8   87 1
  20    9   10 1
  21    9   88 1
  22    9   89 1
  23   10   11 1
  24   10   90 1
  25   11   12 1
  26   11   13 2
  27   12   91 1
  28   12   92 1
  29   13   93 1
  30   15   16 1
  31   15   94 1
  32   16   17 1
  33   16   59 1
  34   16   95 1
  35   17   18 1
  36   17   96 1
  37   17   97 1
  38   18   19 1
  39   18   98 1
  40   18   99 1
  41   19   20 1
  42   19  100 1
  43   19  101 1
  44   20   21 1
  45   20  102 1
  46   21   22 1
  47   21  103 1
  48   21  104 1
  49   22   23 1
  50   22  105 1
  51   22  106 1
  52   23   24 1
  53   23  107 1
  54   23  108 1
  55   24   25 1
  56   24   26 1
  57   24  109 1
  58   25   29 am
  59   25  110 1
  60   26   27 am
  61   26   28 2
  62   27  111 1
  63   27  112 1
  64   29   30 2
  65   29   31 1
  66   31   32 1
  67   31   33 1
  68   31  113 1
  69   32   34 am
  70   32  114 1
  71   33   42 1
  72   33  115 1
  73   33  116 1
  74   34   35 2
  75   34   36 1
  76   36   37 1
  77   36   38 1
  78   36  117 1
  79   37   39 am
  80   37  118 1
  81   38   61 1
  82   38  119 1
  83   38  120 1
  84   39   40 2
  85   39   41 1
  86   41   51 1
  87   41   52 1
  88   41  121 1
  89   42   43 1
  90   42   46 2
  91   43   44 ar
  92   43   47 ar
  93   44   45 1
  94   44   50 ar
  95   45   46 1
  96   45  122 1
  97   46  123 1
  98   47   48 ar
  99   47  124 1
 100   48   49 ar
 101   48  125 1
 102   49   50 ar
 103   49  126 1
 104   50  127 1
 105   51   69 am
 106   51  128 1
 107   52   53 1
 108   52  129 1
 109   52  130 1
 110   53   54 ar
 111   53   58 ar
 112   54   55 ar
 113   54  131 1
 114   55   56 ar
 115   55  132 1
 116   56   57 ar
 117   56   77 1
 118   57   58 ar
 119   57  133 1
 120   58  134 1
 121   59   60 2
 122   59   67 am
 123   61   62 1
 124   61  135 1
 125   61  136 1
 126   62   63 1
 127   62  137 1
 128   62  138 1
 129   63   64 1
 130   63  139 1
 131   64   65 1
 132   64   66 2
 133   65  140 1
 134   65  141 1
 135   66  142 1
 136   67   68 1
 137   67  143 1
 138   68   69 1
 139   68   71 1
 140   68  144 1
 141   69   70 2
 142   71   72 1
 143   71  145 1
 144   71  146 1
 145   72   73 2
 146   72   76 1
 147   73   74 1
 148   73  147 1
 149   74   75 1
 150   74  148 1
 151   75   76 2
 152   75  149 1
 153   77   78 3

#	End of record

