#	Name: ASD07930052
#	Creating user name:	WinNT
#	Creation time:	15. 06. 2019 21:11

#	Modifying user name:	WinNT
#	Modification time:	15. 06. 2019 21:11

#	Program:	/corina/corina34_cracker 3.40 0067  02.08.2006

@<TRIPOS>MOLECULE
ASD07930052
  46   48    0    0    0
SMALL
NO_CHARGES


@<TRIPOS>ATOM
   1 C1            -0.0167     1.3790     0.0096 C.ar    
   2 C2             0.0021    -0.0041     0.0020 C.ar    
   3 C3             1.2051    -0.6804    -0.0127 C.ar    
   4 C4             2.4022     0.0327    -0.0203 C.ar    
   5 C5             2.3774     1.4259    -0.0131 C.ar    
   6 C6             1.1686     2.0919     0.0021 C.ar    
   7 C7             6.0988    -0.6499    -0.0571 C.ar    
   8 S8            -1.5982     2.2592     0.0219 Du      
   9 F9            -1.0391     3.2478     1.1631 F       
  10 F10           -1.0499     3.2601    -1.1137 F       
  11 F11           -2.1572     1.2707    -1.1193 F       
  12 F12           -3.0049     3.0422     0.0328 F       
  13 F13           -2.1465     1.2583     1.1575 F       
  14 C14            7.3938     0.1208    -0.0659 C.3     
  15 C15            8.2184    -0.2390     1.1736 C.3     
  16 C16            7.6306     0.4103     2.3947 C.2     
  17 N17            6.8439     1.4942     2.3295 N.am    
  18 C18            6.4769     2.0403     1.1115 C.2     
  19 N19            7.1127     1.5672    -0.0239 N.pl3   
  20 C20            8.1870    -0.2161    -1.3300 C.3     
  21 N21            5.5653     2.9667     1.0362 N.2     
  22 O22            7.8773    -0.0651     3.4825 O.2     
  23 C23            6.3640     2.1110     3.5687 C.3     
  24 C24            4.8957     0.0250    -0.0433 C.ar    
  25 C25            3.6987    -0.6888    -0.0357 C.ar    
  26 C26            3.7229    -2.0819    -0.0420 C.ar    
  27 C27            4.9308    -2.7489    -0.0558 C.ar    
  28 C28            6.1182    -2.0355    -0.0686 C.ar    
  29 F29            7.2986    -2.6924    -0.0825 F       
  30 H30           -0.9264    -0.5558     0.0080 H       
  31 H31            1.2186    -1.7603    -0.0179 H       
  32 H32            3.3023     1.9835    -0.0186 H       
  33 H33            1.1482     3.1717     0.0074 H       
  34 H34            8.2193    -1.3211     1.3051 H       
  35 H35            9.2431     0.1069     1.0385 H       
  36 H36            7.3603     2.1567    -0.7533 H       
  37 H37            7.6011     0.0526    -2.2090 H       
  38 H38            9.1224     0.3434    -1.3319 H       
  39 H39            8.4026    -1.2844    -1.3498 H       
  40 H40            5.1305     3.2859     1.8424 H       
  41 H41            7.0759     2.8683     3.8970 H       
  42 H42            5.3945     2.5764     3.3912 H       
  43 H43            6.2646     1.3472     4.3399 H       
  44 H44            4.8814     1.1049    -0.0381 H       
  45 H45            2.7976    -2.6389    -0.0357 H       
  46 H46            4.9505    -3.8287    -0.0603 H       
@<TRIPOS>BOND
   1    1    2 ar
   2    1    6 ar
   3    1    8 1
   4    2    3 ar
   5    2   30 1
   6    3    4 ar
   7    3   31 1
   8    4    5 ar
   9    4   25 1
  10    5    6 ar
  11    5   32 1
  12    6   33 1
  13    7   14 1
  14    7   24 ar
  15    7   28 ar
  16    8    9 1
  17    8   10 1
  18    8   11 1
  19    8   12 1
  20    8   13 1
  21   14   15 1
  22   14   20 1
  23   14   19 1
  24   15   16 1
  25   15   34 1
  26   15   35 1
  27   16   17 am
  28   16   22 2
  29   17   18 1
  30   17   23 1
  31   18   19 1
  32   18   21 2
  33   19   36 1
  34   20   37 1
  35   20   38 1
  36   20   39 1
  37   21   40 1
  38   23   41 1
  39   23   42 1
  40   23   43 1
  41   24   25 ar
  42   24   44 1
  43   25   26 ar
  44   26   27 ar
  45   26   45 1
  46   27   28 ar
  47   27   46 1
  48   28   29 1

#	End of record

