#	Name: ASD00841764
#	Creating user name:	WinNT
#	Creation time:	15. 06. 2019 18:42

#	Modifying user name:	WinNT
#	Modification time:	15. 06. 2019 18:42

#	Program:	/corina/corina34_cracker 3.40 0067  02.08.2006

@<TRIPOS>MOLECULE
ASD00841764
  95  100    0    0    0
SMALL
NO_CHARGES


@<TRIPOS>ATOM
   1 F1            -0.0795    -3.1473     4.7185 F       
   2 C2            -0.0052     1.3862     0.0369 C.ar    
   3 C3             0.0093    -0.0007     0.0189 C.ar    
   4 C4             1.2193    -0.6794    -0.0011 C.ar    
   5 C5             2.4062     0.0272    -0.0032 C.ar    
   6 C6             2.3891     1.4098     0.0152 C.ar    
   7 C7             1.1848     2.0884     0.0347 C.ar    
   8 C8             1.2387    -2.1862    -0.0202 C.3     
   9 C9             0.4942    -2.7107    -1.2292 C.2     
  10 N10            2.6178    -2.6804    -0.0126 N.am    
  11 C11            3.4633    -2.3341    -1.0034 C.2     
  12 N12            4.7589    -2.7002    -0.9424 N.am    
  13 O13            3.0572    -1.6913    -1.9522 O.2     
  14 C14            5.2906    -3.3760     0.2490 C.3     
  15 C15            6.5170    -2.6050     0.7471 C.3     
  16 C16            7.5240    -2.4623    -0.3965 C.3     
  17 C17            6.8886    -1.6712    -1.5422 C.3     
  18 C18            5.6651    -2.4366    -2.0685 C.3     
  19 C19            8.7653    -1.7227     0.1066 C.3     
  20 C20            9.4032    -2.5140     1.2519 C.3     
  21 C21           10.6775    -1.8011     1.7101 C.3     
  22 N22           11.6132    -1.6960     0.5833 N.3     
  23 C23           11.0406    -0.9002    -0.5100 C.3     
  24 C24            9.7771    -1.5861    -1.0345 C.3     
  25 C25           12.9019    -1.1416     1.0191 C.3     
  26 O26            0.7741    -2.5063    -2.3916 O.2     
  27 N27           -0.5343    -3.4453    -0.7739 N.am    
  28 C28            0.4679    -2.7406     1.1565 C.ar    
  29 C29           -0.5794    -3.4839     0.6218 C.ar    
  30 C30            0.6362    -2.6266     2.5189 C.ar    
  31 C31           -0.2432    -3.2570     3.3819 C.ar    
  32 C32           -1.3020    -4.0086     2.8624 C.ar    
  33 C33           -1.4665    -4.1202     1.4820 C.ar    
  34 C34           -0.9901    -5.8308    -2.0686 C.ar    
  35 C35           -1.3183    -6.8769    -1.2261 C.ar    
  36 C36           -0.1705    -6.0503    -3.1603 C.ar    
  37 C37            0.3225    -7.3159    -3.4120 C.ar    
  38 C38           -0.0052    -8.3672    -2.5682 C.ar    
  39 C39           -0.8274    -8.1443    -1.4731 C.ar    
  40 O40            0.4782    -9.6133    -2.8138 O.3     
  41 H41           -1.9586    -6.7029    -0.3740 H       
  42 C42            0.0993   -10.6474    -1.9032 C.3     
  43 C43           13.9239    -1.2773    -0.1113 C.3     
  44 C44           15.2661    -0.6998     0.3425 C.3     
  45 C45           -2.2168    -4.6642     3.7477 C.1     
  46 N46           -2.9425    -5.1843     4.4501 N.1     
  47 O47           -1.1598    -0.6937     0.0215 O.3     
  48 C48           -3.5696    -0.8751     0.0427 C.3     
  49 C49           -2.3670     0.0707     0.0431 C.3     
  50 S50           -1.6232    -4.2167    -1.7545 S.o2    
  51 O51           -2.8038    -4.3919    -0.9833 O.2     
  52 O52           -1.6018    -3.5284    -2.9975 O.2     
  53 H53           -0.9458     1.9168     0.0480 H       
  54 H54            3.3483    -0.5006    -0.0188 H       
  55 H55            3.3181     1.9605     0.0142 H       
  56 H56            1.1741     3.1682     0.0491 H       
  57 H57            2.9224    -3.2570     0.7055 H       
  58 H58            4.5292    -3.3947     1.0288 H       
  59 H59            5.5791    -4.3954    -0.0074 H       
  60 H60            6.2112    -1.6159     1.0880 H       
  61 H61            6.9780    -3.1482     1.5720 H       
  62 H62            7.8107    -3.4515    -0.7535 H       
  63 H63            6.5792    -0.6909    -1.1797 H       
  64 H64            7.6140    -1.5498    -2.3467 H       
  65 H65            5.9868    -3.3781    -2.5137 H       
  66 H66            5.1506    -1.8334    -2.8165 H       
  67 H67            8.4802    -0.7327     0.4624 H       
  68 H68            8.7025    -2.5779     2.0844 H       
  69 H69            9.6516    -3.5175     0.9067 H       
  70 H70           10.4264    -0.8026     2.0680 H       
  71 H71           11.1418    -2.3695     2.5160 H       
  72 H72           10.7879     0.0940    -0.1416 H       
  73 H73           11.7687    -0.8143    -1.3166 H       
  74 H74           10.0315    -2.5751    -1.4156 H       
  75 H75            9.3437    -0.9872    -1.8354 H       
  76 H76           12.7775    -0.0886     1.2719 H       
  77 H77           13.2543    -1.6864     1.8949 H       
  78 H78            1.4558    -2.0448     2.9142 H       
  79 H79           -2.2843    -4.7007     1.0812 H       
  80 H80            0.0841    -5.2316    -3.8171 H       
  81 H81            0.9624    -7.4869    -4.2651 H       
  82 H82           -1.0843    -8.9612    -0.8150 H       
  83 H83            0.4428   -10.3924    -0.9006 H       
  84 H84           -0.9859   -10.7495    -1.9005 H       
  85 H85            0.5521   -11.5890    -2.2139 H       
  86 H86           14.0483    -2.3303    -0.3642 H       
  87 H87           13.5715    -0.7325    -0.9872 H       
  88 H88           15.1417     0.3531     0.5954 H       
  89 H89           15.6185    -1.2446     1.2184 H       
  90 H90           15.9942    -0.7965    -0.4628 H       
  91 H91           -4.4904    -0.2921     0.0592 H       
  92 H92           -3.5463    -1.4921    -0.8556 H       
  93 H93           -3.5289    -1.5150     0.9242 H       
  94 H94           -2.3903     0.6877     0.9413 H       
  95 H95           -2.4077     0.7106    -0.8384 H       
@<TRIPOS>BOND
   1    1   31 1
   2    2    3 ar
   3    2    7 ar
   4    2   53 1
   5    3    4 ar
   6    3   47 1
   7    4    5 ar
   8    4    8 1
   9    5    6 ar
  10    5   54 1
  11    6    7 ar
  12    6   55 1
  13    7   56 1
  14    8    9 1
  15    8   10 1
  16    8   28 1
  17    9   26 2
  18    9   27 am
  19   10   11 am
  20   10   57 1
  21   11   12 am
  22   11   13 2
  23   12   14 1
  24   12   18 1
  25   14   15 1
  26   14   58 1
  27   14   59 1
  28   15   16 1
  29   15   60 1
  30   15   61 1
  31   16   17 1
  32   16   19 1
  33   16   62 1
  34   17   18 1
  35   17   63 1
  36   17   64 1
  37   18   65 1
  38   18   66 1
  39   19   20 1
  40   19   24 1
  41   19   67 1
  42   20   21 1
  43   20   68 1
  44   20   69 1
  45   21   22 1
  46   21   70 1
  47   21   71 1
  48   22   23 1
  49   22   25 1
  50   23   24 1
  51   23   72 1
  52   23   73 1
  53   24   74 1
  54   24   75 1
  55   25   43 1
  56   25   76 1
  57   25   77 1
  58   27   50 am
  59   27   29 1
  60   28   29 ar
  61   28   30 ar
  62   29   33 ar
  63   30   31 ar
  64   30   78 1
  65   31   32 ar
  66   32   33 ar
  67   32   45 1
  68   33   79 1
  69   34   35 ar
  70   34   36 ar
  71   34   50 1
  72   35   41 1
  73   35   39 ar
  74   36   37 ar
  75   36   80 1
  76   37   38 ar
  77   37   81 1
  78   38   39 ar
  79   38   40 1
  80   39   82 1
  81   40   42 1
  82   42   83 1
  83   42   84 1
  84   42   85 1
  85   43   44 1
  86   43   86 1
  87   43   87 1
  88   44   88 1
  89   44   89 1
  90   44   90 1
  91   45   46 3
  92   47   49 1
  93   48   49 1
  94   48   91 1
  95   48   92 1
  96   48   93 1
  97   49   94 1
  98   49   95 1
  99   50   51 2
 100   50   52 2

#	End of record

