#	Name: ASD03731080
#	Creating user name:	WinNT
#	Creation time:	15. 06. 2019 20:45

#	Modifying user name:	WinNT
#	Modification time:	15. 06. 2019 20:45

#	Program:	/corina/corina34_cracker 3.40 0067  02.08.2006

@<TRIPOS>MOLECULE
ASD03731080
  61   65    0    0    0
SMALL
NO_CHARGES


@<TRIPOS>ATOM
   1 O1            -0.0174     1.4355     0.0099 O.3     
   2 C2             0.0021    -0.0041     0.0020 C.3     
   3 O3             1.2454    -0.3261    -0.6485 O.3     
   4 C4             2.0710     0.7342    -0.4045 C.ar    
   5 C5             1.2938     1.8171    -0.0005 C.ar    
   6 C6             3.4454     0.8638    -0.4943 C.ar    
   7 C7             4.0610     2.0728    -0.1847 C.ar    
   8 C8             3.2734     3.1503     0.2090 C.ar    
   9 C9             1.9032     3.0224     0.3048 C.ar    
  10 O10            5.3841     2.4045    -0.1899 O.3     
  11 C11            4.2107     4.3045     0.4428 C.3     
  12 C12            5.5145     3.8387    -0.2196 C.3     
  13 N13            3.6163     6.4756     0.8428 N.am    
  14 C14            3.7020     5.5817    -0.1623 C.2     
  15 C15            4.3986     4.6026     1.9008 C.ar    
  16 C16            4.8352     3.8594     2.9753 C.ar    
  17 C17            4.9018     4.4300     4.2336 C.ar    
  18 C18            4.5281     5.7498     4.4103 C.ar    
  19 C19            4.0890     6.5005     3.3377 C.ar    
  20 C20            4.0194     5.9313     2.0660 C.ar    
  21 O21            3.4229     5.7715    -1.3273 O.2     
  22 C22            3.1557     7.8560     0.6734 C.3     
  23 N23           -0.9666     8.6530    -0.1269 N.3     
  24 C24           -0.3489     9.4228     0.9604 C.3     
  25 C25            1.1742     9.3737     0.8206 C.3     
  26 C26            1.6400     7.9160     0.8736 C.3     
  27 C27            0.9453     7.1257    -0.2387 C.3     
  28 C28           -0.5713     7.2400    -0.0682 C.3     
  29 C29           -2.4289     8.7918    -0.1055 C.3     
  30 C30           -3.0265     8.0810    -1.3214 C.3     
  31 C31           -2.9821     8.1638     1.1753 C.3     
  32 F32            3.7261     7.7890     3.5203 F       
  33 H33           -0.0093    -0.3928     1.0203 H       
  34 H34           -0.8408    -0.3953    -0.5677 H       
  35 H35            4.0445     0.0211    -0.8064 H       
  36 H36            1.3043     3.8646     0.6186 H       
  37 H37            6.3797     4.1608     0.3599 H       
  38 H38            5.5782     4.2005    -1.2458 H       
  39 H39            5.1260     2.8288     2.8350 H       
  40 H40            5.2441     3.8465     5.0755 H       
  41 H41            4.5796     6.1956     5.3926 H       
  42 H42            3.6449     8.4951     1.4085 H       
  43 H43            3.4036     8.2011    -0.3303 H       
  44 H44           -0.6852    10.4584     0.9087 H       
  45 H45           -0.6396     8.9942     1.9195 H       
  46 H46            1.4666     9.8147    -0.1323 H       
  47 H47            1.6328     9.9322     1.6367 H       
  48 H48            1.3832     7.4866     1.8420 H       
  49 H49            1.2340     7.5313    -1.2083 H       
  50 H50            1.2402     6.0780    -0.1794 H       
  51 H51           -0.8609     6.8216     0.8958 H       
  52 H52           -1.0690     6.6901    -0.8669 H       
  53 H53           -2.6940     9.8487    -0.1358 H       
  54 H54           -2.6324     8.5285    -2.2339 H       
  55 H55           -2.7614     7.0242    -1.2911 H       
  56 H56           -4.1115     8.1841    -1.3056 H       
  57 H57           -2.5564     8.6702     2.0415 H       
  58 H58           -4.0671     8.2669     1.1911 H       
  59 H59           -2.7171     7.1070     1.2056 H       
  60 Cl60          11.3797    15.4584    10.3926 Cl      
  61 H61           11.3797    16.8284    10.3926 H       
@<TRIPOS>BOND
   1    1    2 1
   2    1    5 1
   3    2    3 1
   4    2   33 1
   5    2   34 1
   6    3    4 1
   7    4    5 ar
   8    4    6 ar
   9    5    9 ar
  10    6    7 ar
  11    6   35 1
  12    7    8 ar
  13    7   10 1
  14    8    9 ar
  15    8   11 1
  16    9   36 1
  17   10   12 1
  18   11   12 1
  19   11   14 1
  20   11   15 1
  21   12   37 1
  22   12   38 1
  23   13   14 am
  24   13   20 1
  25   13   22 1
  26   14   21 2
  27   15   16 ar
  28   15   20 ar
  29   16   17 ar
  30   16   39 1
  31   17   18 ar
  32   17   40 1
  33   18   19 ar
  34   18   41 1
  35   19   20 ar
  36   19   32 1
  37   22   26 1
  38   22   42 1
  39   22   43 1
  40   23   24 1
  41   23   28 1
  42   23   29 1
  43   24   25 1
  44   24   44 1
  45   24   45 1
  46   25   26 1
  47   25   46 1
  48   25   47 1
  49   26   27 1
  50   26   48 1
  51   27   28 1
  52   27   49 1
  53   27   50 1
  54   28   51 1
  55   28   52 1
  56   29   30 1
  57   29   31 1
  58   29   53 1
  59   30   54 1
  60   30   55 1
  61   30   56 1
  62   31   57 1
  63   31   58 1
  64   31   59 1
  65   60   61 1

#	End of record

