#	Name: ASD01804005
#	Creating user name:	WinNT
#	Creation time:	15. 06. 2019 19:23

#	Modifying user name:	WinNT
#	Modification time:	15. 06. 2019 19:23

#	Program:	/corina/corina34_cracker 3.40 0067  02.08.2006

@<TRIPOS>MOLECULE
ASD01804005
  65   68    0    0    0
SMALL
NO_CHARGES


@<TRIPOS>ATOM
   1 N1             1.1976     0.5668    -0.7592 N.ar    
   2 C2             1.2043    -0.7100    -0.3971 C.ar    
   3 N3             1.9738    -1.1584     0.5790 N.ar    
   4 C4             2.7877    -0.3364     1.2506 C.ar    
   5 C5             2.8179     1.0220     0.9061 C.ar    
   6 C6             1.9707     1.4544    -0.1508 C.ar    
   7 S7             0.1537    -1.8427    -1.2443 S.3     
   8 C8             0.5649    -3.3705    -0.3652 C.3     
   9 S9             3.9032    -0.6510     2.5714 S.3     
  10 C10            4.3994     1.0283     2.6527 C.2     
  11 C11            3.7469     1.7750     1.7236 C.2     
  12 N12            3.9530     3.1389     1.5708 N.pl3   
  13 C13            5.3526     1.5389     3.5654 C.2     
  14 N14            5.9461     0.7147     4.4514 N.am    
  15 O15            5.6366     2.7233     3.5505 O.2     
  16 C16            6.9329     1.2433     5.3963 C.3     
  17 C17            6.2790     2.3157     6.2699 C.3     
  18 C18            7.4490     0.1082     6.2830 C.3     
  19 C19            8.1013     1.8579     4.6231 C.3     
  20 C20            1.9533     2.8759    -0.5663 C.ar    
  21 C21            3.1503     3.5522    -0.7941 C.ar    
  22 C22            3.1265     4.8828    -1.1832 C.ar    
  23 C23            1.9117     5.5375    -1.3449 C.ar    
  24 C24            0.7245     4.8665    -1.1184 C.ar    
  25 C25            0.7382     3.5405    -0.7363 C.ar    
  26 N26            4.3259     5.5663    -1.4127 N.am    
  27 C27            4.4473     6.8569    -1.0438 C.2     
  28 C28            5.6953     7.6262    -1.3927 C.3     
  29 O29            3.5520     7.3992    -0.4310 O.2     
  30 N30            5.5181     9.0382    -1.0282 N.3     
  31 C31            4.5035     9.6784    -1.8778 C.3     
  32 C32            4.3082    11.1281    -1.4259 C.3     
  33 O33            5.5640    11.8106    -1.4745 O.3     
  34 C34            6.5754    11.2142    -0.6579 C.3     
  35 C35            6.7937     9.7654    -1.1020 C.3     
  36 H36            1.6281    -3.5812    -0.4807 H       
  37 H37            0.3303    -3.2553     0.6930 H       
  38 H38           -0.0159    -4.1951    -0.7785 H       
  39 H39            4.8288     3.5192     1.7418 H       
  40 H40            3.2213     3.7119     1.2930 H       
  41 H41            5.7199    -0.2285     4.4633 H       
  42 H42            5.4467     1.8779     6.8208 H       
  43 H43            7.0133     2.7090     6.9730 H       
  44 H44            5.9114     3.1244     5.6383 H       
  45 H45            7.9149    -0.6559     5.6606 H       
  46 H46            8.1832     0.5015     6.9861 H       
  47 H47            6.6166    -0.3297     6.8339 H       
  48 H48            7.7336     2.6666     3.9914 H       
  49 H49            8.8355     2.2512     5.3262 H       
  50 H50            8.5672     1.0939     4.0007 H       
  51 H51            4.0935     3.0416    -0.6675 H       
  52 H52            1.8949     6.5740    -1.6480 H       
  53 H53           -0.2169     5.3804    -1.2452 H       
  54 H54           -0.1914     3.0195    -0.5606 H       
  55 H55            5.0699     5.1113    -1.8373 H       
  56 H56            6.5420     7.2129    -0.8447 H       
  57 H57            5.8826     7.5482    -2.4637 H       
  58 H58            4.8353     9.6623    -2.9160 H       
  59 H59            3.5606     9.1390    -1.7880 H       
  60 H60            3.5988    11.6235    -2.0888 H       
  61 H61            3.9252    11.1428    -0.4055 H       
  62 H62            7.5057    11.7719    -0.7654 H       
  63 H63            6.2583    11.2314     0.3848 H       
  64 H64            7.5225     9.2895    -0.4460 H       
  65 H65            7.1621     9.7507    -2.1278 H       
@<TRIPOS>BOND
   1    1    2 ar
   2    1    6 ar
   3    2    3 ar
   4    2    7 1
   5    3    4 ar
   6    4    5 ar
   7    4    9 1
   8    5    6 ar
   9    5   11 1
  10    6   20 1
  11    7    8 1
  12    8   36 1
  13    8   37 1
  14    8   38 1
  15    9   10 1
  16   10   11 2
  17   10   13 1
  18   11   12 1
  19   12   39 1
  20   12   40 1
  21   13   14 am
  22   13   15 2
  23   14   16 1
  24   14   41 1
  25   16   17 1
  26   16   18 1
  27   16   19 1
  28   17   42 1
  29   17   43 1
  30   17   44 1
  31   18   45 1
  32   18   46 1
  33   18   47 1
  34   19   48 1
  35   19   49 1
  36   19   50 1
  37   20   21 ar
  38   20   25 ar
  39   21   22 ar
  40   21   51 1
  41   22   23 ar
  42   22   26 1
  43   23   24 ar
  44   23   52 1
  45   24   25 ar
  46   24   53 1
  47   25   54 1
  48   26   27 am
  49   26   55 1
  50   27   28 1
  51   27   29 2
  52   28   30 1
  53   28   56 1
  54   28   57 1
  55   30   31 1
  56   30   35 1
  57   31   32 1
  58   31   58 1
  59   31   59 1
  60   32   33 1
  61   32   60 1
  62   32   61 1
  63   33   34 1
  64   34   35 1
  65   34   62 1
  66   34   63 1
  67   35   64 1
  68   35   65 1

#	End of record

