#	Name: ASD07300169
#	Creating user name:	WinNT
#	Creation time:	15. 06. 2019 21:09

#	Modifying user name:	WinNT
#	Modification time:	15. 06. 2019 21:09

#	Program:	/corina/corina34_cracker 3.40 0067  02.08.2006

@<TRIPOS>MOLECULE
ASD07300169
  52   56    0    0    0
SMALL
NO_CHARGES


@<TRIPOS>ATOM
   1 C1            -0.0296     1.3863     0.1059 C.ar    
   2 C2            -0.0123    -0.0108     0.1612 C.ar    
   3 C3             1.2027    -0.6779     0.1164 C.ar    
   4 C4             2.3625     0.0770     0.0177 C.ar    
   5 C5             2.2713     1.4552    -0.0325 C.ar    
   6 N6             1.1022     2.0644     0.0116 N.ar    
   7 C7            -2.1235     0.6630     0.2678 C.2     
   8 N8            -1.3640     1.7704     0.1749 N.am    
   9 N9            -1.3361    -0.4295     0.2568 N.am    
  10 O10           -3.3377     0.6508     0.3452 O.2     
  11 C11           -1.8389     3.0901     0.1518 C.ar    
  12 C12           -3.2027     3.3387     0.2282 C.ar    
  13 C13           -3.6698     4.6379     0.2053 C.ar    
  14 C14           -2.7764     5.6948     0.1060 C.ar    
  15 C15           -1.4134     5.4469     0.0296 C.ar    
  16 C16           -0.9451     4.1483     0.0582 C.ar    
  17 O17           -3.2368     6.9738     0.0831 O.3     
  18 C18           -4.5750     7.1667    -0.0022 C.2     
  19 N19           -5.4696     6.2294    -0.1888 N.2     
  20 C20           -6.7030     6.7925    -0.2197 C.2     
  21 C21           -6.5544     8.1295    -0.0445 C.2     
  22 N22           -5.2101     8.3649     0.0980 N.pl3   
  23 C23           -7.9865     6.0741    -0.4115 C.ar    
  24 C24           -7.9953     4.6907    -0.5810 C.ar    
  25 C25           -9.1924     4.0275    -0.7586 C.ar    
  26 C26          -10.3822     4.7331    -0.7690 C.ar    
  27 C27          -10.3795     6.1062    -0.6012 C.ar    
  28 C28           -9.1887     6.7792    -0.4171 C.ar    
  29 C29           -4.5757     9.6674     0.3152 C.3     
  30 C30           -1.7936    -1.8188     0.3393 C.3     
  31 C31           -1.8670    -2.2453     1.8068 C.3     
  32 H32            1.2449    -1.7563     0.1578 H       
  33 H33            3.3271    -0.4075    -0.0193 H       
  34 H34            3.1735     2.0439    -0.1090 H       
  35 H35           -3.8982     2.5160     0.3051 H       
  36 H36           -4.7307     4.8313     0.2644 H       
  37 H37           -0.7184     6.2699    -0.0477 H       
  38 H38            0.1162     3.9555     0.0032 H       
  39 H39           -7.3431     8.8668    -0.0188 H       
  40 H40           -7.0669     4.1389    -0.5738 H       
  41 H41           -9.2004     2.9555    -0.8901 H       
  42 H42          -11.3166     4.2101    -0.9090 H       
  43 H43          -11.3113     6.6522    -0.6106 H       
  44 H44           -9.1881     7.8507    -0.2818 H       
  45 H45           -4.3353    10.1194    -0.6471 H       
  46 H46           -5.2589    10.3177     0.8615 H       
  47 H47           -3.6610     9.5343     0.8927 H       
  48 H48           -2.7815    -1.9034    -0.1136 H       
  49 H49           -1.0939    -2.4639    -0.1920 H       
  50 H50           -0.8792    -2.1606     2.2596 H       
  51 H51           -2.5668    -1.6001     2.3381 H       
  52 H52           -2.2075    -3.2789     1.8681 H       
@<TRIPOS>BOND
   1    1    2 ar
   2    1    6 ar
   3    1    8 1
   4    2    3 ar
   5    2    9 1
   6    3    4 ar
   7    3   32 1
   8    4    5 ar
   9    4   33 1
  10    5    6 ar
  11    5   34 1
  12    7    8 am
  13    7    9 am
  14    7   10 2
  15    8   11 1
  16    9   30 1
  17   11   12 ar
  18   11   16 ar
  19   12   13 ar
  20   12   35 1
  21   13   14 ar
  22   13   36 1
  23   14   15 ar
  24   14   17 1
  25   15   16 ar
  26   15   37 1
  27   16   38 1
  28   17   18 1
  29   18   19 2
  30   18   22 1
  31   19   20 1
  32   20   21 2
  33   20   23 1
  34   21   22 1
  35   21   39 1
  36   22   29 1
  37   23   24 ar
  38   23   28 ar
  39   24   25 ar
  40   24   40 1
  41   25   26 ar
  42   25   41 1
  43   26   27 ar
  44   26   42 1
  45   27   28 ar
  46   27   43 1
  47   28   44 1
  48   29   45 1
  49   29   46 1
  50   29   47 1
  51   30   31 1
  52   30   48 1
  53   30   49 1
  54   31   50 1
  55   31   51 1
  56   31   52 1

#	End of record

