#	Name: ASD02198042
#	Creating user name:	WinNT
#	Creation time:	15. 06. 2019 20:18

#	Modifying user name:	WinNT
#	Modification time:	15. 06. 2019 20:18

#	Program:	/corina/corina34_cracker 3.40 0067  02.08.2006

@<TRIPOS>MOLECULE
ASD02198042
  40   42    0    0    0
SMALL
NO_CHARGES


@<TRIPOS>ATOM
   1 C1             0.5457     1.3838    -0.6378 C.2     
   2 C2             0.4576     0.0106    -0.5496 C.2     
   3 C3            -0.7760    -0.6793    -0.3191 C.1     
   4 S4             2.1548     1.8730    -0.9173 S.3     
   5 C5             2.7289     0.2132    -0.9177 C.2     
   6 C6             1.6768    -0.6453    -0.7058 C.2     
   7 C7             4.0684    -0.1796    -1.1071 C.2     
   8 O8             4.3856    -1.3495    -0.9726 O.2     
   9 C9             5.0895     0.8261    -1.4687 C.ar    
  10 N10            1.8148    -2.0239    -0.6529 N.pl3   
  11 N11           -0.5224     2.2435    -0.5217 N.pl3   
  12 N12           -1.7546    -1.2265    -0.1362 N.1     
  13 C13           -0.3090     3.6250    -0.5024 C.ar    
  14 C14            0.8179     4.1463     0.1205 C.ar    
  15 C15            1.0262     5.5114     0.1381 C.ar    
  16 C16            0.1134     6.3598    -0.4637 C.ar    
  17 C17           -1.0104     5.8432    -1.0846 C.ar    
  18 C18           -1.2204     4.4785    -1.1110 C.ar    
  19 C19            6.4151     0.6550    -1.0634 C.ar    
  20 C20            7.3638     1.5944    -1.4023 C.ar    
  21 C21            7.0035     2.7113    -2.1465 C.ar    
  22 C22            5.6855     2.8852    -2.5513 C.ar    
  23 C23            4.7323     1.9470    -2.2216 C.ar    
  24 Cl24           0.3782     8.0753    -0.4392 Cl      
  25 O25            7.9412     3.6349    -2.4786 O.3     
  26 C26            7.5023     4.7585    -3.2449 C.3     
  27 H27            2.6887    -2.4287    -0.7684 H       
  28 H28            1.0374    -2.5836    -0.5004 H       
  29 H29           -1.4235     1.8910    -0.4532 H       
  30 H30            1.5303     3.4847     0.5910 H       
  31 H31            1.9022     5.9172     0.6223 H       
  32 H32           -1.7213     6.5076    -1.5531 H       
  33 H33           -2.0973     4.0759    -1.5960 H       
  34 H34            6.6959    -0.2125    -0.4846 H       
  35 H35            8.3890     1.4630    -1.0889 H       
  36 H36            5.4090     3.7548    -3.1290 H       
  37 H37            3.7083     2.0827    -2.5368 H       
  38 H38            8.3483     5.4172    -3.4411 H       
  39 H39            7.0843     4.4126    -4.1902 H       
  40 H40            6.7397     5.3026    -2.6877 H       
@<TRIPOS>BOND
   1    1    2 2
   2    1    4 1
   3    1   11 1
   4    2    3 1
   5    2    6 1
   6    3   12 3
   7    4    5 1
   8    5    6 2
   9    5    7 1
  10    6   10 1
  11    7    8 2
  12    7    9 1
  13    9   19 ar
  14    9   23 ar
  15   10   27 1
  16   10   28 1
  17   11   13 1
  18   11   29 1
  19   13   14 ar
  20   13   18 ar
  21   14   15 ar
  22   14   30 1
  23   15   16 ar
  24   15   31 1
  25   16   17 ar
  26   16   24 1
  27   17   18 ar
  28   17   32 1
  29   18   33 1
  30   19   20 ar
  31   19   34 1
  32   20   21 ar
  33   20   35 1
  34   21   22 ar
  35   21   25 1
  36   22   23 ar
  37   22   36 1
  38   23   37 1
  39   25   26 1
  40   26   38 1
  41   26   39 1
  42   26   40 1

#	End of record

