#	Name: ASD01915795
#	Creating user name:	WinNT
#	Creation time:	15. 06. 2019 20:06

#	Modifying user name:	WinNT
#	Modification time:	15. 06. 2019 20:06

#	Program:	/corina/corina34_cracker 3.40 0067  02.08.2006

@<TRIPOS>MOLECULE
ASD01915795
  43   46    0    0    0
SMALL
NO_CHARGES


@<TRIPOS>ATOM
   1 C1            -0.0166     1.3728     0.0096 C.2     
   2 N2             0.0021    -0.0041     0.0020 N.pl3   
   3 C3            -1.2433    -0.7807    -0.0179 C.3     
   4 C4            -2.3411     0.0068     0.6954 C.3     
   5 N5            -2.4043     1.3988     0.2637 N.am    
   6 C6            -1.2812     2.1228     0.0392 C.2     
   7 C7             1.2845     1.7904    -0.0006 C.2     
   8 C8             2.0437     0.6124    -0.0024 C.2     
   9 N9             1.2133    -0.4042     0.0045 N.2     
  10 C10            3.5483     0.5278    -0.0102 C.3     
  11 O11            4.0995     1.8462    -0.0157 O.3     
  12 C12            5.4547     1.9482    -0.0231 C.ar    
  13 O13           -1.3169     3.3271    -0.1281 O.2     
  14 C14            6.0573     3.1978    -0.0287 C.ar    
  15 C15            6.2378     0.8031    -0.0194 C.ar    
  16 C16            7.6151     0.9095    -0.0270 C.ar    
  17 C17            8.2132     2.1560    -0.0383 C.ar    
  18 C18            7.4350     3.2989    -0.0363 C.ar    
  19 C19           -3.6492     1.9979     0.0772 C.ar    
  20 N20           -3.7288     3.2258    -0.4140 N.ar    
  21 C21           -4.8129     1.3057     0.4012 C.ar    
  22 C22           -6.0298     1.9482     0.1963 C.ar    
  23 C23           -6.0052     3.2442    -0.3203 C.ar    
  24 N24           -4.8522     3.8165    -0.6024 N.ar    
  25 Cl25          -7.4909     4.0979    -0.5986 Cl      
  26 O26           -7.2045     1.3333     0.4895 O.3     
  27 C27           -7.1289     0.0061     1.0139 C.3     
  28 H28           -1.5404    -0.9656    -1.0502 H       
  29 H29           -1.0875    -1.7313     0.4922 H       
  30 H30           -3.3017    -0.4680     0.4954 H       
  31 H31           -2.1536    -0.0209     1.7688 H       
  32 H32            1.6486     2.8072    -0.0066 H       
  33 H33            3.8869    -0.0039     0.8790 H       
  34 H34            3.8774    -0.0074    -0.9009 H       
  35 H35            5.4499     4.0908    -0.0276 H       
  36 H36            5.7710    -0.1708    -0.0101 H       
  37 H37            8.2251     0.0183    -0.0237 H       
  38 H38            9.2902     2.2371    -0.0443 H       
  39 H39            7.9046     4.2714    -0.0456 H       
  40 H40           -4.7722     0.3022     0.7983 H       
  41 H41           -8.1351    -0.3672     1.2041 H       
  42 H42           -6.6312    -0.6418     0.2923 H       
  43 H43           -6.5626     0.0152     1.9452 H       
@<TRIPOS>BOND
   1    1    2 1
   2    1    7 2
   3    1    6 1
   4    2    3 1
   5    2    9 1
   6    3    4 1
   7    3   28 1
   8    3   29 1
   9    4    5 1
  10    4   30 1
  11    4   31 1
  12    5    6 am
  13    5   19 1
  14    6   13 2
  15    7    8 1
  16    7   32 1
  17    8    9 2
  18    8   10 1
  19   10   11 1
  20   10   33 1
  21   10   34 1
  22   11   12 1
  23   12   14 ar
  24   12   15 ar
  25   14   18 ar
  26   14   35 1
  27   15   16 ar
  28   15   36 1
  29   16   17 ar
  30   16   37 1
  31   17   18 ar
  32   17   38 1
  33   18   39 1
  34   19   21 ar
  35   19   20 ar
  36   20   24 ar
  37   21   22 ar
  38   21   40 1
  39   22   23 ar
  40   22   26 1
  41   23   24 ar
  42   23   25 1
  43   26   27 1
  44   27   41 1
  45   27   42 1
  46   27   43 1

#	End of record

