#	Name: ASD01510046
#	Creating user name:	WinNT
#	Creation time:	15. 06. 2019 19:21

#	Modifying user name:	WinNT
#	Modification time:	15. 06. 2019 19:21

#	Program:	/corina/corina34_cracker 3.40 0067  02.08.2006

@<TRIPOS>MOLECULE
ASD01510046
  51   53    0    0    0
SMALL
NO_CHARGES


@<TRIPOS>ATOM
   1 C1            -0.0320     1.4068     0.0272 C.3     
   2 O2            -0.0113    -0.0220     0.0139 O.3     
   3 C3            -1.2107    -0.6552     0.0167 C.ar    
   4 N4            -2.3411     0.0431     0.0314 N.ar    
   5 C5            -3.5163    -0.5674     0.0343 C.ar    
   6 N6            -3.6171    -1.8877     0.0233 N.ar    
   7 C7            -2.5314    -2.6538     0.0084 C.ar    
   8 C8            -1.2749    -2.0484    -0.0015 C.ar    
   9 S9             0.1951    -3.0197    -0.0213 S.3     
  10 C10            0.4326    -3.1798    -1.7599 C.ar    
  11 N11           -0.4331    -2.6092    -2.5858 N.ar    
  12 C12           -0.2871    -2.7075    -3.8984 C.ar    
  13 C13            0.7846    -3.4160    -4.4084 C.ar    
  14 C14            1.6794    -4.0056    -3.5142 C.ar    
  15 N15            1.4756    -3.8631    -2.2096 N.ar    
  16 N16            2.7715    -4.7275    -3.9825 N.am    
  17 C17            3.6860    -5.2047    -3.1151 C.2     
  18 O18            3.6079    -4.9261    -1.9374 O.2     
  19 C19            4.8056    -6.0845    -3.6086 C.3     
  20 O20           -2.6437    -4.0054    -0.0028 O.3     
  21 C21           -3.9662    -4.5466     0.0022 C.3     
  22 N22           -4.6728     0.1968     0.0497 N.3     
  23 C23           -5.8686    -0.6574     0.0506 C.3     
  24 C24           -7.1189     0.2198     0.1480 C.3     
  25 N25           -7.1458     1.1573    -0.9833 N.3     
  26 C26           -5.9500     2.0116    -0.9841 C.3     
  27 C27           -4.6997     1.1344    -1.0816 C.3     
  28 C28           -8.3713     1.9671    -0.9669 C.3     
  29 H29            0.9903     1.7850     0.0233 H       
  30 H30           -0.5575     1.7708    -0.8557 H       
  31 H31           -0.5446     1.7544     0.9242 H       
  32 H32           -0.9980    -2.2394    -4.5632 H       
  33 H33            0.9261    -3.5114    -5.4748 H       
  34 H34            2.8753    -4.8877    -4.9336 H       
  35 H35            5.3986    -5.5400    -4.3434 H       
  36 H36            5.4399    -6.3704    -2.7696 H       
  37 H37            4.3880    -6.9795    -4.0699 H       
  38 H38           -3.9133    -5.6353    -0.0079 H       
  39 H39           -4.4904    -4.2166     0.8991 H       
  40 H40           -4.5037    -4.2008    -0.8807 H       
  41 H41           -5.9020    -1.2371    -0.8719 H       
  42 H42           -5.8315    -1.3340     0.9044 H       
  43 H43           -8.0081    -0.4100     0.1196 H       
  44 H44           -7.0987     0.7791     1.0834 H       
  45 H45           -5.9871     2.6882    -1.8379 H       
  46 H46           -5.9166     2.5913    -0.0616 H       
  47 H47           -3.8105     1.7641    -1.0532 H       
  48 H48           -4.7199     0.5751    -2.0170 H       
  49 H49           -8.4176     2.5375    -0.0392 H       
  50 H50           -8.3655     2.6522    -1.8147 H       
  51 H51           -9.2403     1.3126    -1.0348 H       
@<TRIPOS>BOND
   1    1    2 1
   2    1   29 1
   3    1   30 1
   4    1   31 1
   5    2    3 1
   6    3    4 ar
   7    3    8 ar
   8    4    5 ar
   9    5    6 ar
  10    5   22 1
  11    6    7 ar
  12    7    8 ar
  13    7   20 1
  14    8    9 1
  15    9   10 1
  16   10   11 ar
  17   10   15 ar
  18   11   12 ar
  19   12   13 ar
  20   12   32 1
  21   13   14 ar
  22   13   33 1
  23   14   15 ar
  24   14   16 1
  25   16   17 am
  26   16   34 1
  27   17   18 2
  28   17   19 1
  29   19   35 1
  30   19   36 1
  31   19   37 1
  32   20   21 1
  33   21   38 1
  34   21   39 1
  35   21   40 1
  36   22   23 1
  37   22   27 1
  38   23   24 1
  39   23   41 1
  40   23   42 1
  41   24   25 1
  42   24   43 1
  43   24   44 1
  44   25   26 1
  45   25   28 1
  46   26   27 1
  47   26   45 1
  48   26   46 1
  49   27   47 1
  50   27   48 1
  51   28   49 1
  52   28   50 1
  53   28   51 1

#	End of record

