#	Name: ASD04882171
#	Creating user name:	WinNT
#	Creation time:	15. 06. 2019 20:54

#	Modifying user name:	WinNT
#	Modification time:	15. 06. 2019 20:54

#	Program:	/corina/corina34_cracker 3.40 0067  02.08.2006

@<TRIPOS>MOLECULE
ASD04882171
  75   79    0    0    0
SMALL
NO_CHARGES


@<TRIPOS>ATOM
   1 C1            -0.1617     1.4752     0.4537 C.2     
   2 C2            -0.1422     0.0094     0.4881 C.2     
   3 N3            -1.1637    -0.6908    -0.0435 N.am    
   4 C4            -1.0913    -2.0879    -0.1181 C.ar    
   5 C5            -2.2495    -2.8570     0.0250 C.ar    
   6 C6            -2.1790    -4.2434    -0.0484 C.ar    
   7 C7            -0.9684    -4.8641    -0.2628 C.ar    
   8 C8             0.1937    -4.1010    -0.4068 C.ar    
   9 C9             0.1247    -2.7067    -0.3391 C.ar    
  10 N10           -3.4757    -2.2336     0.2419 N.3     
  11 C11           -3.5006    -1.5606     1.5480 C.3     
  12 C12           -4.5823    -3.1936     0.1261 C.3     
  13 C13           -5.9132    -2.4562     0.2918 C.3     
  14 N14           -5.9381    -1.7832     1.5979 N.3     
  15 C15           -4.8315    -0.8232     1.7137 C.3     
  16 C16           -7.1705    -1.1566     1.8159 C.ar    
  17 C17           -7.9579    -1.5240     2.9049 C.ar    
  18 C18           -7.6087    -0.1640     0.9514 C.ar    
  19 C19           -8.8259     0.4536     1.1691 C.ar    
  20 C20           -9.6089     0.0850     2.2474 C.ar    
  21 C21           -9.1764    -0.9003     3.1160 C.ar    
  22 C22            1.4904    -4.7662    -0.6359 C.2     
  23 N23            1.5550    -6.1106    -0.7065 N.am    
  24 O24            2.5009    -4.1016    -0.7611 O.2     
  25 O25            0.7966    -0.5749     0.9968 O.2     
  26 C26            2.8427    -6.7711    -0.9341 C.3     
  27 C27            2.6388    -8.2870    -0.9712 C.3     
  28 C28            3.9836    -8.9768    -1.2089 C.3     
  29 N29            3.7883   -10.4283    -1.2444 N.am    
  30 C30            3.5194   -11.1304    -2.3587 C.2     
  31 C31            3.3703   -12.5985    -2.0254 C.3     
  32 C32            3.1767   -12.6213    -0.4915 C.3     
  33 C33            3.8674   -11.3035    -0.0689 C.3     
  34 O34            3.4116   -10.6558    -3.4696 O.2     
  35 O35           -1.1388     2.2428    -0.0718 O.3     
  36 C36            0.8031     2.3026     0.9530 C.2     
  37 C37            0.3762     3.6164     0.7045 C.2     
  38 C38           -0.8171     3.5346     0.0757 C.2     
  39 O39           -7.5313    -2.4932     3.7585 O.3     
  40 C40           -8.3908    -2.8180     4.8529 C.3     
  41 H41           -1.9490    -0.2275    -0.3743 H       
  42 H42           -3.0756    -4.8351     0.0633 H       
  43 H43           -0.9170    -5.9414    -0.3193 H       
  44 H44            1.0210    -2.1144    -0.4503 H       
  45 H45           -3.3940    -2.3011     2.3408 H       
  46 H46           -2.6794    -0.8460     1.6046 H       
  47 H47           -4.5498    -3.6696    -0.8539 H       
  48 H48           -4.4880    -3.9526     0.9027 H       
  49 H49           -6.0198    -1.7157    -0.5010 H       
  50 H50           -6.7343    -3.1708     0.2352 H       
  51 H51           -4.8640    -0.3472     2.6937 H       
  52 H52           -4.9258    -0.0642     0.9371 H       
  53 H53           -6.9987     0.1263     0.1088 H       
  54 H54           -9.1661     1.2262     0.4955 H       
  55 H55          -10.5590     0.5707     2.4140 H       
  56 H56           -9.7906    -1.1860     3.9571 H       
  57 H57            0.7489    -6.6408    -0.6067 H       
  58 H58            3.2594    -6.4372    -1.8843 H       
  59 H59            3.5293    -6.5165    -0.1267 H       
  60 H60            2.2220    -8.6209    -0.0210 H       
  61 H61            1.9521    -8.5416    -1.7786 H       
  62 H62            4.4003    -8.6429    -2.1591 H       
  63 H63            4.6702    -8.7223    -0.4015 H       
  64 H64            2.4972   -13.0166    -2.5264 H       
  65 H65            4.2703   -13.1463    -2.3045 H       
  66 H66            2.1182   -12.6123    -0.2317 H       
  67 H67            3.6784   -13.4812    -0.0477 H       
  68 H68            4.9069   -11.4917     0.1996 H       
  69 H69            3.3366   -10.8513     0.7688 H       
  70 H70            1.7173     2.0039     1.4444 H       
  71 H71            0.9013     4.5224     0.9688 H       
  72 H72           -1.4131     4.3728    -0.2539 H       
  73 H73           -7.9326    -3.6035     5.4540 H       
  74 H74           -8.5450    -1.9322     5.4691 H       
  75 H75           -9.3503    -3.1662     4.4705 H       
@<TRIPOS>BOND
   1    1    2 1
   2    1   36 2
   3    1   35 1
   4    2    3 am
   5    2   25 2
   6    3    4 1
   7    3   41 1
   8    4    5 ar
   9    4    9 ar
  10    5    6 ar
  11    5   10 1
  12    6    7 ar
  13    6   42 1
  14    7    8 ar
  15    7   43 1
  16    8    9 ar
  17    8   22 1
  18    9   44 1
  19   10   11 1
  20   10   12 1
  21   11   15 1
  22   11   45 1
  23   11   46 1
  24   12   13 1
  25   12   47 1
  26   12   48 1
  27   13   14 1
  28   13   49 1
  29   13   50 1
  30   14   15 1
  31   14   16 1
  32   15   51 1
  33   15   52 1
  34   16   17 ar
  35   16   18 ar
  36   17   39 1
  37   17   21 ar
  38   18   19 ar
  39   18   53 1
  40   19   20 ar
  41   19   54 1
  42   20   21 ar
  43   20   55 1
  44   21   56 1
  45   22   23 am
  46   22   24 2
  47   23   26 1
  48   23   57 1
  49   26   27 1
  50   26   58 1
  51   26   59 1
  52   27   28 1
  53   27   60 1
  54   27   61 1
  55   28   29 1
  56   28   62 1
  57   28   63 1
  58   29   30 am
  59   29   33 1
  60   30   31 1
  61   30   34 2
  62   31   32 1
  63   31   64 1
  64   31   65 1
  65   32   33 1
  66   32   66 1
  67   32   67 1
  68   33   68 1
  69   33   69 1
  70   35   38 1
  71   36   37 1
  72   36   70 1
  73   37   38 2
  74   37   71 1
  75   38   72 1
  76   39   40 1
  77   40   73 1
  78   40   74 1
  79   40   75 1

#	End of record

