#	Name: ASD03081119
#	Creating user name:	WinNT
#	Creation time:	15. 06. 2019 20:27

#	Modifying user name:	WinNT
#	Modification time:	15. 06. 2019 20:27

#	Program:	/corina/corina34_cracker 3.40 0067  02.08.2006

@<TRIPOS>MOLECULE
ASD03081119
  24   26    0    0    0
SMALL
NO_CHARGES


@<TRIPOS>ATOM
   1 O1            -0.0144     1.2085     0.0087 O.3     
   2 N2             0.0021    -0.0041     0.0020 N.2     
   3 C3             1.2349    -0.4420    -0.0121 C.2     
   4 N4             2.0455     0.6368    -0.0141 N.2     
   5 C5             1.2410     1.6828    -0.0008 C.2     
   6 C6             2.3775     5.6812     0.0107 C.ar    
   7 N7             1.0932     5.3827     0.0214 N.ar    
   8 C8             0.6874     4.1250     0.0182 C.ar    
   9 C9             1.6452     3.1048     0.0030 C.ar    
  10 C10            2.9964     3.4687    -0.0080 C.ar    
  11 N11            3.3128     4.7518    -0.0037 N.ar    
  12 C12            3.0160    -2.1950    -0.0380 C.ar    
  13 C13            1.6630    -1.8633    -0.0238 C.ar    
  14 C14            0.7155    -2.8900    -0.0203 C.ar    
  15 C15            1.1658    -4.1993    -0.0312 C.ar    
  16 C16            2.5261    -4.4464    -0.0450 C.ar    
  17 N17            3.3972    -3.4557    -0.0476 N.ar    
  18 H18            2.6728     6.7201     0.0092 H       
  19 H19           -0.3663     3.8884     0.0273 H       
  20 H20            3.7681     2.7133    -0.0194 H       
  21 H21            3.7589    -1.4112    -0.0454 H       
  22 H22           -0.3414    -2.6681    -0.0091 H       
  23 H23            0.4622    -5.0186    -0.0286 H       
  24 H24            2.8811    -5.4664    -0.0535 H       
@<TRIPOS>BOND
   1    1    2 1
   2    1    5 1
   3    2    3 2
   4    3    4 1
   5    3   13 1
   6    4    5 2
   7    5    9 1
   8    6    7 ar
   9    6   11 ar
  10    6   18 1
  11    7    8 ar
  12    8    9 ar
  13    8   19 1
  14    9   10 ar
  15   10   11 ar
  16   10   20 1
  17   12   13 ar
  18   12   17 ar
  19   12   21 1
  20   13   14 ar
  21   14   15 ar
  22   14   22 1
  23   15   16 ar
  24   15   23 1
  25   16   17 ar
  26   16   24 1

#	End of record

