#	Name: ASD05130001
#	Creating user name:	WinNT
#	Creation time:	15. 06. 2019 20:56

#	Modifying user name:	WinNT
#	Modification time:	15. 06. 2019 20:56

#	Program:	/corina/corina34_cracker 3.40 0067  02.08.2006

@<TRIPOS>MOLECULE
ASD05130001
  64   68    0    0    0
SMALL
NO_CHARGES


@<TRIPOS>ATOM
   1 C1             2.4684     2.6692    -2.3224 C.ar    
   2 C2             2.3033     1.4116    -1.7759 C.ar    
   3 C3             1.5741     1.2555    -0.6044 C.ar    
   4 C4             1.0131     2.3652     0.0139 C.ar    
   5 C5             1.1819     3.6201    -0.5377 C.ar    
   6 C6             1.9086     3.7722    -1.7043 C.ar    
   7 N7             1.4046    -0.0174    -0.0484 N.am    
   8 C8             2.3949    -0.9276    -0.1342 C.2     
   9 N9             2.2690    -2.1203     0.4807 N.am    
  10 O10            3.4018    -0.6727    -0.7663 O.2     
  11 C11            3.2573    -3.0997     0.3184 C.ar    
  12 C12            4.5590    -2.7284     0.0244 C.ar    
  13 C13            5.5394    -3.7064    -0.1364 C.ar    
  14 C14            5.2049    -5.0533    -0.0004 C.ar    
  15 C15            3.9055    -5.4161     0.2928 C.ar    
  16 C16            2.9329    -4.4459     0.4581 C.ar    
  17 F17            1.6629    -4.8068     0.7449 F       
  18 C18            6.2620    -6.1133    -0.1740 C.3     
  19 C19            6.9335    -3.3157    -0.4515 C.2     
  20 C20            7.9005    -3.3747     0.5150 C.2     
  21 C21            7.2869    -2.8695    -1.8009 C.2     
  22 N22            8.5545    -2.5144    -2.0885 N.am    
  23 C23            9.5315    -2.5659    -1.1209 C.ar    
  24 C24            9.2242    -2.9966     0.1886 C.ar    
  25 C25           10.8422    -2.2019    -1.4047 C.ar    
  26 C26           11.7911    -2.2709    -0.3939 C.ar    
  27 N27           11.4677    -2.6762     0.8299 N.ar    
  28 C28           10.2436    -3.0360     1.1481 C.ar    
  29 O29            6.4315    -2.8196    -2.6668 O.2     
  30 C30            8.8954    -2.0703    -3.4423 C.3     
  31 C31            8.7169    -0.5540    -3.5417 C.3     
  32 N32           13.1023    -1.9103    -0.6665 N.pl3   
  33 C33           14.0763    -1.9791     0.3472 C.2     
  34 C34           15.4176    -2.0750     0.1618 C.2     
  35 N35           15.9992    -2.1151     1.3893 N.pl3   
  36 N36           14.9822    -2.0415     2.3497 N.2     
  37 C37           13.8340    -1.9546     1.7284 C.2     
  38 C38           17.4353    -2.2177     1.6603 C.3     
  39 H39            3.0392     2.7918    -3.2310 H       
  40 H40            2.7405     0.5504    -2.2593 H       
  41 H41            0.4452     2.2470     0.9249 H       
  42 H42            0.7456     4.4835    -0.0575 H       
  43 H43            2.0391     4.7546    -2.1336 H       
  44 H44            0.5744    -0.2447     0.3988 H       
  45 H45            1.4941    -2.3006     1.0356 H       
  46 H46            4.8137    -1.6841    -0.0804 H       
  47 H47            3.6483    -6.4598     0.3973 H       
  48 H48            6.7302    -6.3204     0.7883 H       
  49 H49            5.8034    -7.0242    -0.5585 H       
  50 H50            7.0170    -5.7617    -0.8772 H       
  51 H51            7.6563    -3.7052     1.5138 H       
  52 H52           11.1181    -1.8711    -2.3951 H       
  53 H53           10.0225    -3.3590     2.1547 H       
  54 H54            9.9317    -2.3292    -3.6595 H       
  55 H55            8.2398    -2.5612    -4.1616 H       
  56 H56            7.6806    -0.2951    -3.3245 H       
  57 H57            9.3725    -0.0630    -2.8224 H       
  58 H58            8.9705    -0.2235    -4.5490 H       
  59 H59           13.3481    -1.6107    -1.5557 H       
  60 H60           15.9295    -2.1128    -0.7885 H       
  61 H61           12.8645    -1.8831     2.1989 H       
  62 H62           17.8649    -1.2181     1.7261 H       
  63 H63           17.5907    -2.7427     2.6027 H       
  64 H64           17.9188    -2.7685     0.8535 H       
@<TRIPOS>BOND
   1    1    2 ar
   2    1    6 ar
   3    1   39 1
   4    2    3 ar
   5    2   40 1
   6    3    4 ar
   7    3    7 1
   8    4    5 ar
   9    4   41 1
  10    5    6 ar
  11    5   42 1
  12    6   43 1
  13    7    8 am
  14    7   44 1
  15    8    9 am
  16    8   10 2
  17    9   11 1
  18    9   45 1
  19   11   12 ar
  20   11   16 ar
  21   12   13 ar
  22   12   46 1
  23   13   14 ar
  24   13   19 1
  25   14   15 ar
  26   14   18 1
  27   15   16 ar
  28   15   47 1
  29   16   17 1
  30   18   48 1
  31   18   49 1
  32   18   50 1
  33   19   20 2
  34   19   21 1
  35   20   24 1
  36   20   51 1
  37   21   22 am
  38   21   29 2
  39   22   23 1
  40   22   30 1
  41   23   24 ar
  42   23   25 ar
  43   24   28 ar
  44   25   26 ar
  45   25   52 1
  46   26   27 ar
  47   26   32 1
  48   27   28 ar
  49   28   53 1
  50   30   31 1
  51   30   54 1
  52   30   55 1
  53   31   56 1
  54   31   57 1
  55   31   58 1
  56   32   33 1
  57   32   59 1
  58   33   34 2
  59   33   37 1
  60   34   35 1
  61   34   60 1
  62   35   36 1
  63   35   38 1
  64   36   37 2
  65   37   61 1
  66   38   62 1
  67   38   63 1
  68   38   64 1

#	End of record

