#	Name: ASD06162001
#	Creating user name:	WinNT
#	Creation time:	15. 06. 2019 21:05

#	Modifying user name:	WinNT
#	Modification time:	15. 06. 2019 21:05

#	Program:	/corina/corina34_cracker 3.40 0067  02.08.2006

@<TRIPOS>MOLECULE
ASD06162001
  60   63    0    0    0
SMALL
NO_CHARGES


@<TRIPOS>ATOM
   1 C1             0.0306     1.2342    -0.1293 C.ar    
   2 C2             0.1043    -0.1470    -0.0979 C.ar    
   3 C3             1.3338    -0.7785    -0.0383 C.ar    
   4 C4             2.4947    -0.0333    -0.0097 C.ar    
   5 C5             2.4269     1.3594    -0.0411 C.ar    
   6 C6             1.1845     1.9903    -0.1012 C.ar    
   7 C7            -1.1598    -0.9668    -0.1284 C.3     
   8 C8            -1.1491    -1.8751    -1.3595 C.3     
   9 C9            -1.2427    -1.8234     1.1367 C.3     
  10 C10            3.6695     2.1654    -0.0103 C.2     
  11 C11            4.0052     3.2063    -0.8827 C.2     
  12 N12            5.2360     3.6686    -0.4912 N.pl3   
  13 N13            5.6481     2.9141     0.6131 N.2     
  14 C14            4.7240     2.0312     0.9014 C.2     
  15 N15            3.3644     3.7488    -1.9248 N.2     
  16 C16            3.8900     4.7377    -2.6047 C.2     
  17 C17            5.1576     5.2510    -2.2421 C.2     
  18 C18            5.8221     4.6942    -1.1669 C.2     
  19 C19            7.1738     5.2135    -0.7493 C.3     
  20 C20            5.7603     6.3646    -3.0007 C.2     
  21 N21            6.7197     6.1163    -3.9142 N.am    
  22 C22            7.3179     7.2215    -4.6671 C.3     
  23 O23            5.3913     7.5058    -2.8015 O.2     
  24 C24            8.7191     6.8214    -5.1335 C.3     
  25 O25            8.6211     5.7402    -6.0628 O.3     
  26 C26            9.7844     5.2615    -6.5771 C.ar    
  27 C27            9.7631     4.2126    -7.4849 C.ar    
  28 C28           10.9470     3.7277    -8.0062 C.ar    
  29 C29           12.1524     4.2869    -7.6240 C.ar    
  30 C30           12.1763     5.3320    -6.7191 C.ar    
  31 C31           10.9948     5.8246    -6.1996 C.ar    
  32 C32            6.4469     7.5399    -5.8840 C.3     
  33 H33           -0.9319     1.7215    -0.1804 H       
  34 H34            1.3850    -1.8570    -0.0137 H       
  35 H35            3.4539    -0.5274     0.0372 H       
  36 H36            1.1257     3.0684    -0.1258 H       
  37 H37           -2.0227    -0.3025    -0.1745 H       
  38 H38           -0.2862    -2.5395    -1.3134 H       
  39 H39           -2.0634    -2.4681    -1.3815 H       
  40 H40           -1.0900    -1.2649    -2.2607 H       
  41 H41           -0.3798    -2.4877     1.1828 H       
  42 H42           -1.2503    -1.1763     2.0138 H       
  43 H43           -2.1570    -2.4164     1.1147 H       
  44 H44            4.7709     1.3127     1.7063 H       
  45 H45            3.3557     5.1609    -3.4425 H       
  46 H46            7.5110     5.9645    -1.4637 H       
  47 H47            7.1006     5.6615     0.2416 H       
  48 H48            7.8873     4.3899    -0.7239 H       
  49 H49            7.0141     5.2058    -4.0731 H       
  50 H50            7.3852     8.1020    -4.0281 H       
  51 H51            9.1983     7.6731    -5.6162 H       
  52 H52            9.3127     6.5094    -4.2743 H       
  53 H53            8.8218     3.7753    -7.7835 H       
  54 H54           10.9309     2.9110    -8.7127 H       
  55 H55           13.0768     3.9064    -8.0327 H       
  56 H56           13.1192     5.7666    -6.4216 H       
  57 H57           11.0140     6.6410    -5.4928 H       
  58 H58            6.8919     8.3622    -6.4442 H       
  59 H59            6.3795     6.6595    -6.5230 H       
  60 H60            5.4486     7.8250    -5.5518 H       
@<TRIPOS>BOND
   1    1    2 ar
   2    1    6 ar
   3    1   33 1
   4    2    3 ar
   5    2    7 1
   6    3    4 ar
   7    3   34 1
   8    4    5 ar
   9    4   35 1
  10    5    6 ar
  11    5   10 1
  12    6   36 1
  13    7    8 1
  14    7    9 1
  15    7   37 1
  16    8   38 1
  17    8   39 1
  18    8   40 1
  19    9   41 1
  20    9   42 1
  21    9   43 1
  22   10   11 2
  23   10   14 1
  24   11   12 1
  25   11   15 1
  26   12   13 1
  27   12   18 1
  28   13   14 2
  29   14   44 1
  30   15   16 2
  31   16   17 1
  32   16   45 1
  33   17   18 2
  34   17   20 1
  35   18   19 1
  36   19   46 1
  37   19   47 1
  38   19   48 1
  39   20   21 am
  40   20   23 2
  41   21   22 1
  42   21   49 1
  43   22   24 1
  44   22   32 1
  45   22   50 1
  46   24   25 1
  47   24   51 1
  48   24   52 1
  49   25   26 1
  50   26   27 ar
  51   26   31 ar
  52   27   28 ar
  53   27   53 1
  54   28   29 ar
  55   28   54 1
  56   29   30 ar
  57   29   55 1
  58   30   31 ar
  59   30   56 1
  60   31   57 1
  61   32   58 1
  62   32   59 1
  63   32   60 1

#	End of record

