#	Name: ASD01230062
#	Creating user name:	WinNT
#	Creation time:	15. 06. 2019 19:11

#	Modifying user name:	WinNT
#	Modification time:	15. 06. 2019 19:11

#	Program:	/corina/corina34_cracker 3.40 0067  02.08.2006

@<TRIPOS>MOLECULE
ASD01230062
  51   54    0    0    0
SMALL
NO_CHARGES


@<TRIPOS>ATOM
   1 C1            -0.0167     1.3791     0.0096 C.ar    
   2 C2             0.0021    -0.0041     0.0020 C.ar    
   3 C3             1.2063    -0.6846    -0.0132 C.ar    
   4 C4             2.3966     0.0138    -0.0204 C.ar    
   5 C5             2.3837     1.4075    -0.0128 C.ar    
   6 C6             1.1674     2.0879     0.0021 C.ar    
   7 C7             3.6596     2.1636    -0.0200 C.ar    
   8 N8             4.8249     1.5219    -0.0337 N.ar    
   9 C9             5.9656     2.1952    -0.0401 C.ar    
  10 N10            5.9920     3.5213    -0.0327 N.ar    
  11 C11            4.8718     4.2243    -0.0190 C.ar    
  12 C12            3.6561     3.5615    -0.0182 C.ar    
  13 C13            7.2463     1.4470    -0.0554 C.ar    
  14 C14            8.4557     2.1352    -0.0623 C.ar    
  15 C15            7.2407     0.0524    -0.0571 C.ar    
  16 C16            8.4322    -0.6453    -0.0709 C.ar    
  17 C17            9.6355     0.0327    -0.0831 C.ar    
  18 C18            9.6534     1.4266    -0.0762 C.ar    
  19 C19           10.9469     2.1535    -0.0899 C.ar    
  20 C20           12.1599     1.4597    -0.1097 C.ar    
  21 C21           10.9852     3.5505    -0.0892 C.ar    
  22 C22           12.2096     4.1866    -0.1027 C.ar    
  23 N23           13.3323     3.4939    -0.1164 N.ar    
  24 C24           13.3399     2.1747    -0.1223 C.ar    
  25 C25           14.6550     1.4389    -0.1382 C.3     
  26 C26           12.2651     5.6925    -0.1021 C.3     
  27 C27            4.9180     5.7306    -0.0108 C.3     
  28 F28            6.2446     6.1571    -0.1348 F       
  29 F29            4.1668     6.2260    -1.0820 F       
  30 F30            4.3854     6.2069     1.1920 F       
  31 C31           -1.2943    -0.7724     0.0108 C.3     
  32 F32           -1.7086    -1.0031    -1.3054 F       
  33 F33           -1.1066    -1.9963     0.6619 F       
  34 F34           -2.2712    -0.0311     0.6841 F       
  35 H35           -0.9598     1.9053     0.0170 H       
  36 H36            1.2150    -1.7646    -0.0191 H       
  37 H37            3.3362    -0.5186    -0.0315 H       
  38 H38            1.1516     3.1678     0.0077 H       
  39 H39            2.7268     4.1117    -0.0072 H       
  40 H40            8.4648     3.2151    -0.0573 H       
  41 H41            6.3027    -0.4829    -0.0472 H       
  42 H42            8.4232    -1.7252    -0.0717 H       
  43 H43           10.5644    -0.5182    -0.0935 H       
  44 H44           12.1736     0.3798    -0.1146 H       
  45 H45           10.0700     4.1238    -0.0787 H       
  46 H46           14.9819     1.2570     0.8856 H       
  47 H47           14.5326     0.4871    -0.6551 H       
  48 H48           15.4017     2.0405    -0.6565 H       
  49 H49           12.2902     6.0548     0.9256 H       
  50 H50           13.1620     6.0233    -0.6259 H       
  51 H51           11.3833     6.0888    -0.6056 H       
@<TRIPOS>BOND
   1    1    2 ar
   2    1    6 ar
   3    1   35 1
   4    2   31 1
   5    2    3 ar
   6    3    4 ar
   7    3   36 1
   8    4    5 ar
   9    4   37 1
  10    5    6 ar
  11    5    7 1
  12    6   38 1
  13    7    8 ar
  14    7   12 ar
  15    8    9 ar
  16    9   10 ar
  17    9   13 1
  18   10   11 ar
  19   11   27 1
  20   11   12 ar
  21   12   39 1
  22   13   14 ar
  23   13   15 ar
  24   14   18 ar
  25   14   40 1
  26   15   16 ar
  27   15   41 1
  28   16   17 ar
  29   16   42 1
  30   17   18 ar
  31   17   43 1
  32   18   19 1
  33   19   20 ar
  34   19   21 ar
  35   20   24 ar
  36   20   44 1
  37   21   22 ar
  38   21   45 1
  39   22   23 ar
  40   22   26 1
  41   23   24 ar
  42   24   25 1
  43   25   46 1
  44   25   47 1
  45   25   48 1
  46   26   49 1
  47   26   50 1
  48   26   51 1
  49   27   28 1
  50   27   29 1
  51   27   30 1
  52   31   32 1
  53   31   33 1
  54   31   34 1

#	End of record

