#	Name: ASD04882267
#	Creating user name:	WinNT
#	Creation time:	15. 06. 2019 20:54

#	Modifying user name:	WinNT
#	Modification time:	15. 06. 2019 20:54

#	Program:	/corina/corina34_cracker 3.40 0067  02.08.2006

@<TRIPOS>MOLECULE
ASD04882267
  76   81    0    0    0
SMALL
NO_CHARGES


@<TRIPOS>ATOM
   1 N1            -0.1369     1.5564    -0.0347 N.am    
   2 C2            -0.0772     0.1564    -0.0449 C.ar    
   3 C3            -1.2537    -0.5943     0.0291 C.ar    
   4 C4            -1.1961    -1.9833     0.0186 C.ar    
   5 C5             0.0199    -2.6245    -0.0643 C.ar    
   6 C6             1.2003    -1.8798    -0.1385 C.ar    
   7 C7             1.1447    -0.4831    -0.1339 C.ar    
   8 N8            -2.4854     0.0499     0.1139 N.3     
   9 C9            -2.6126     0.7778     1.3841 C.3     
  10 C10           -3.5910    -0.9031    -0.0568 C.3     
  11 C11           -4.9210    -0.1462    -0.0367 C.3     
  12 N12           -5.0483     0.5818     1.2336 N.3     
  13 C13           -3.9427     1.5347     1.4042 C.3     
  14 C14            2.5029    -2.5669    -0.2267 C.2     
  15 O15            3.5293    -1.9181    -0.2913 O.2     
  16 C16           -6.2837     1.2279     1.3187 C.ar    
  17 C17           -7.1634     0.9154     2.3475 C.ar    
  18 C18            0.8442     2.2684     0.5543 C.2     
  19 C19            0.8474     3.7388     0.4574 C.2     
  20 O20            1.7270     1.6973     1.1658 O.2     
  21 C21           -0.0632     4.5249    -0.1861 C.2     
  22 C22            1.8291     4.6657     1.0394 C.2     
  23 C23            1.4250     5.8970     0.6918 C.2     
  24 O24            0.3009     5.8021    -0.0354 O.3     
  25 N25            2.5551    -3.9136    -0.2357 N.am    
  26 C26            3.8486    -4.5959    -0.3233 C.3     
  27 C27            3.6314    -6.0871    -0.3152 C.ar    
  28 C28           -8.3838     1.5564     2.4289 C.ar    
  29 C29           -8.7308     2.5083     1.4875 C.ar    
  30 C30           -7.8577     2.8217     0.4622 C.ar    
  31 C31           -6.6330     2.1884     0.3782 C.ar    
  32 C32           -6.7865    -0.1223     3.3733 C.3     
  33 C33            3.4536    -6.7651    -1.5078 C.ar    
  34 C34            3.2537    -8.1343    -1.5091 C.ar    
  35 C35            3.2300    -8.8320    -0.3193 C.ar    
  36 C36            3.4088    -8.1540     0.8874 C.ar    
  37 C37            3.6160    -6.7741     0.8813 C.ar    
  38 C38            3.3841    -8.8955     2.1665 C.2     
  39 N39            3.2042   -10.1790     2.2926 N.2     
  40 C40            3.2129   -10.6662     3.5119 C.2     
  41 C41            3.4075    -9.7786     4.4929 C.2     
  42 S42            3.6010    -8.1855     3.7642 S.3     
  43 C43            3.0153   -12.1343     3.7885 C.3     
  44 H44           -0.8823     2.0131    -0.4550 H       
  45 H45           -2.1069    -2.5608     0.0758 H       
  46 H46            0.0614    -3.7037    -0.0715 H       
  47 H47            2.0552     0.0949    -0.1915 H       
  48 H48           -2.5842     0.0705     2.2130 H       
  49 H49           -1.7897     1.4859     1.4815 H       
  50 H50           -3.4813    -1.4204    -1.0099 H       
  51 H51           -3.5736    -1.6295     0.7558 H       
  52 H52           -4.9495     0.5611    -0.8655 H       
  53 H53           -5.7440    -0.8543    -0.1340 H       
  54 H54           -4.0523     2.0521     2.3573 H       
  55 H55           -3.9600     2.2611     0.5917 H       
  56 H56           -0.9305     4.1746    -0.7261 H       
  57 H57            2.6979     4.4081     1.6271 H       
  58 H58            1.9230     6.8178     0.9576 H       
  59 H59            1.7363    -4.4311    -0.1842 H       
  60 H60            4.3501    -4.3067    -1.2469 H       
  61 H61            4.4665    -4.3141     0.5293 H       
  62 H62           -9.0681     1.3140     3.2285 H       
  63 H63           -9.6862     3.0076     1.5530 H       
  64 H64           -8.1318     3.5654    -0.2713 H       
  65 H65           -5.9513     2.4339    -0.4227 H       
  66 H66           -6.2721     0.3590     4.2050 H       
  67 H67           -7.6872    -0.6151     3.7394 H       
  68 H68           -6.1278    -0.8614     2.9173 H       
  69 H69            3.4706    -6.2234    -2.4420 H       
  70 H70            3.1155    -8.6578    -2.4435 H       
  71 H71            3.0732    -9.9006    -0.3216 H       
  72 H72            3.7550    -6.2437     1.8118 H       
  73 H73            3.4441   -10.0003     5.5493 H       
  74 H74            3.9822   -12.6374     3.7889 H       
  75 H75            2.5400   -12.2600     4.7614 H       
  76 H76            2.3806   -12.5675     3.0155 H       
@<TRIPOS>BOND
   1    1    2 1
   2    1   18 am
   3    1   44 1
   4    2    3 ar
   5    2    7 ar
   6    3    4 ar
   7    3    8 1
   8    4    5 ar
   9    4   45 1
  10    5    6 ar
  11    5   46 1
  12    6    7 ar
  13    6   14 1
  14    7   47 1
  15    8    9 1
  16    8   10 1
  17    9   13 1
  18    9   48 1
  19    9   49 1
  20   10   11 1
  21   10   50 1
  22   10   51 1
  23   11   12 1
  24   11   52 1
  25   11   53 1
  26   12   13 1
  27   12   16 1
  28   13   54 1
  29   13   55 1
  30   14   15 2
  31   14   25 am
  32   16   17 ar
  33   16   31 ar
  34   17   28 ar
  35   17   32 1
  36   18   20 2
  37   18   19 1
  38   19   21 2
  39   19   22 1
  40   21   24 1
  41   21   56 1
  42   22   23 2
  43   22   57 1
  44   23   24 1
  45   23   58 1
  46   25   26 1
  47   25   59 1
  48   26   27 1
  49   26   60 1
  50   26   61 1
  51   27   33 ar
  52   27   37 ar
  53   28   29 ar
  54   28   62 1
  55   29   30 ar
  56   29   63 1
  57   30   31 ar
  58   30   64 1
  59   31   65 1
  60   32   66 1
  61   32   67 1
  62   32   68 1
  63   33   34 ar
  64   33   69 1
  65   34   35 ar
  66   34   70 1
  67   35   36 ar
  68   35   71 1
  69   36   37 ar
  70   36   38 1
  71   37   72 1
  72   38   39 2
  73   38   42 1
  74   39   40 1
  75   40   41 2
  76   40   43 1
  77   41   42 1
  78   41   73 1
  79   43   74 1
  80   43   75 1
  81   43   76 1

#	End of record

