#	Name: ASD01140031
#	Creating user name:	WinNT
#	Creation time:	15. 06. 2019 18:59

#	Modifying user name:	WinNT
#	Modification time:	15. 06. 2019 18:59

#	Program:	/corina/corina34_cracker 3.40 0067  02.08.2006

@<TRIPOS>MOLECULE
ASD01140031
  31   31    0    0    0
SMALL
NO_CHARGES


@<TRIPOS>ATOM
   1 C1            -0.0167     1.3831     0.0096 C.ar    
   2 C2             0.0021    -0.0041     0.0020 C.ar    
   3 C3             1.2083    -0.6773    -0.0131 C.ar    
   4 C4             2.3962     0.0303    -0.0207 C.ar    
   5 C5             2.3801     1.4128    -0.0131 C.ar    
   6 C6             1.1765     2.0907     0.0021 C.ar    
   7 O7            -1.2021     2.0477     0.0189 O.3     
   8 C8             1.8869     4.1093     1.2549 C.3     
   9 C9             1.1598     3.5976     0.0098 C.3     
  10 C10            1.8636     4.1219    -1.2434 C.3     
  11 C11           -1.3733    -1.6498    -1.2425 C.3     
  12 C12           -1.2922    -0.7759     0.0107 C.3     
  13 C13           -1.3485    -1.6632     1.2558 C.3     
  14 H14            1.2235    -1.7571    -0.0187 H       
  15 H15            3.3382    -0.4978    -0.0321 H       
  16 H16            3.3093     1.9633    -0.0186 H       
  17 H17           -1.5410     2.2352     0.9049 H       
  18 H18            1.3855     3.7358     2.1477 H       
  19 H19            2.9185     3.7575     1.2435 H       
  20 H20            1.8748     5.1993     1.2605 H       
  21 H21            0.1282     3.9494     0.0212 H       
  22 H22            1.3455     3.7574    -2.1305 H       
  23 H23            1.8514     5.2119    -1.2378 H       
  24 H24            2.8952     3.7701    -1.2549 H       
  25 H25           -1.3332    -1.0177    -2.1295 H       
  26 H26           -0.5350    -2.3464    -1.2545 H       
  27 H27           -2.3095    -2.2081    -1.2362 H       
  28 H28           -2.1306    -0.0793     0.0228 H       
  29 H29           -1.2908    -1.0406     2.1487 H       
  30 H30           -2.2847    -2.2215     1.2622 H       
  31 H31           -0.5102    -2.3598     1.2438 H       
@<TRIPOS>BOND
   1    1    2 ar
   2    1    6 ar
   3    1    7 1
   4    2    3 ar
   5    2   12 1
   6    3    4 ar
   7    3   14 1
   8    4    5 ar
   9    4   15 1
  10    5    6 ar
  11    5   16 1
  12    6    9 1
  13    7   17 1
  14    8    9 1
  15    8   18 1
  16    8   19 1
  17    8   20 1
  18    9   10 1
  19    9   21 1
  20   10   22 1
  21   10   23 1
  22   10   24 1
  23   11   12 1
  24   11   25 1
  25   11   26 1
  26   11   27 1
  27   12   13 1
  28   12   28 1
  29   13   29 1
  30   13   30 1
  31   13   31 1

#	End of record

