#	Name: ASD05740212
#	Creating user name:	WinNT
#	Creation time:	15. 06. 2019 21:03

#	Modifying user name:	WinNT
#	Modification time:	15. 06. 2019 21:03

#	Program:	/corina/corina34_cracker 3.40 0067  02.08.2006

@<TRIPOS>MOLECULE
ASD05740212
  68   72    0    0    0
SMALL
NO_CHARGES


@<TRIPOS>ATOM
   1 C1             0.7613     0.0158    -0.2355 C.3     
   2 N2            -0.2220     0.7271     0.5932 N.3     
   3 C3            -1.4796     0.1185     0.5126 C.ar    
   4 C4            -2.5508     0.6408     1.2258 C.ar    
   5 C5            -3.7915     0.0403     1.1463 C.ar    
   6 C6            -3.9682    -1.0861     0.3536 C.ar    
   7 C7            -2.8971    -1.6087    -0.3592 C.ar    
   8 C8            -1.6578    -1.0044    -0.2849 C.ar    
   9 N9            -5.2269    -1.6956     0.2733 N.pl3   
  10 C10           -6.3720    -0.9257     0.3335 C.ar    
  11 N11           -6.2523     0.3973     0.3557 N.ar    
  12 N12           -7.5485    -1.5345     0.3614 N.ar    
  13 C13           -8.6691    -0.8265     0.4191 C.ar    
  14 C14           -8.5804     0.5828     0.4500 C.ar    
  15 C15           -7.3152     1.1796     0.4129 C.ar    
  16 N16           -9.9010    -1.4274     0.4488 N.am    
  17 C17          -11.0269    -0.6942     0.5069 C.2     
  18 C18          -10.9953     0.7146     0.5394 C.2     
  19 C19           -9.8065     1.3722     0.5136 C.2     
  20 C20           -9.9922    -2.8892     0.4162 C.3     
  21 O21          -12.1043    -1.2635     0.5318 O.2     
  22 C22           -9.9724    -3.4253     1.8245 C.ar    
  23 C23          -11.1284    -3.4051     2.5915 C.ar    
  24 O24          -12.2799    -2.9020     2.0740 O.3     
  25 C25            0.2329     0.8132     1.9879 C.3     
  26 C26            1.5713     1.5539     2.0403 C.3     
  27 N27            2.5546     0.8426     1.2115 N.3     
  28 C28            2.0996     0.7565    -0.1832 C.3     
  29 C29            3.8747     1.4814     1.2961 C.3     
  30 C30          -11.1070    -3.8997     3.8873 C.ar    
  31 C31           -9.9352    -4.4111     4.4110 C.ar    
  32 C32           -8.7847    -4.4301     3.6447 C.ar    
  33 C33           -8.8047    -3.9424     2.3508 C.ar    
  34 C34          -13.4567    -3.0173     2.8765 C.3     
  35 C35          -13.5389    -1.8277     3.8351 C.3     
  36 C36          -14.6911    -3.0303     1.9727 C.3     
  37 H37            0.8915    -0.9977     0.1439 H       
  38 H38            0.4077    -0.0238    -1.2658 H       
  39 H39           -2.4132     1.5164     1.8428 H       
  40 H40           -4.6245     0.4464     1.7008 H       
  41 H41           -3.0344    -2.4852    -0.9751 H       
  42 H42           -0.8248    -1.4108    -0.8392 H       
  43 H43           -5.2943    -2.6583     0.1755 H       
  44 H44           -7.2100     2.2542     0.4353 H       
  45 H45          -11.9187     1.2730     0.5853 H       
  46 H46           -9.7698     2.4513     0.5384 H       
  47 H47          -10.9210    -3.1845    -0.0719 H       
  48 H48           -9.1457    -3.2938    -0.1386 H       
  49 H49           -0.5058     1.3548     2.5787 H       
  50 H50            0.3571    -0.1913     2.3926 H       
  51 H51            1.4411     2.5674     1.6609 H       
  52 H52            1.9248     1.5935     3.0706 H       
  53 H53            2.8384     0.2149    -0.7739 H       
  54 H54            1.9754     1.7610    -0.5878 H       
  55 H55            4.2174     1.4717     2.3308 H       
  56 H56            4.5833     0.9352     0.6736 H       
  57 H57            3.8030     2.5115     0.9468 H       
  58 H58          -12.0054    -3.8847     4.4864 H       
  59 H59           -9.9179    -4.7960     5.4199 H       
  60 H60           -7.8697    -4.8302     4.0559 H       
  61 H61           -7.9047    -3.9586     1.7541 H       
  62 H62          -13.4163    -3.9436     3.4496 H       
  63 H63          -13.5793    -0.9014     3.2620 H       
  64 H64          -14.4365    -1.9157     4.4472 H       
  65 H65          -12.6594    -1.8185     4.4790 H       
  66 H66          -14.6325    -3.8778     1.2898 H       
  67 H67          -15.5887    -3.1182     2.5848 H       
  68 H68          -14.7315    -2.1040     1.3996 H       
@<TRIPOS>BOND
   1    1    2 1
   2    1   28 1
   3    1   37 1
   4    1   38 1
   5    2    3 1
   6    2   25 1
   7    3    4 ar
   8    3    8 ar
   9    4    5 ar
  10    4   39 1
  11    5    6 ar
  12    5   40 1
  13    6    7 ar
  14    6    9 1
  15    7    8 ar
  16    7   41 1
  17    8   42 1
  18    9   10 1
  19    9   43 1
  20   10   11 ar
  21   10   12 ar
  22   11   15 ar
  23   12   13 ar
  24   13   14 ar
  25   13   16 1
  26   14   15 ar
  27   14   19 1
  28   15   44 1
  29   16   17 am
  30   16   20 1
  31   17   18 1
  32   17   21 2
  33   18   19 2
  34   18   45 1
  35   19   46 1
  36   20   22 1
  37   20   47 1
  38   20   48 1
  39   22   23 ar
  40   22   33 ar
  41   23   24 1
  42   23   30 ar
  43   24   34 1
  44   25   26 1
  45   25   49 1
  46   25   50 1
  47   26   27 1
  48   26   51 1
  49   26   52 1
  50   27   28 1
  51   27   29 1
  52   28   53 1
  53   28   54 1
  54   29   55 1
  55   29   56 1
  56   29   57 1
  57   30   31 ar
  58   30   58 1
  59   31   32 ar
  60   31   59 1
  61   32   33 ar
  62   32   60 1
  63   33   61 1
  64   34   35 1
  65   34   36 1
  66   34   62 1
  67   35   63 1
  68   35   64 1
  69   35   65 1
  70   36   66 1
  71   36   67 1
  72   36   68 1

#	End of record

