#	Name: ASD01850015
#	Creating user name:	WinNT
#	Creation time:	15. 06. 2019 19:38

#	Modifying user name:	WinNT
#	Modification time:	15. 06. 2019 19:38

#	Program:	/corina/corina34_cracker 3.40 0067  02.08.2006

@<TRIPOS>MOLECULE
ASD01850015
  48   52    0    0    0
SMALL
NO_CHARGES


@<TRIPOS>ATOM
   1 C1             0.0396     1.5033     0.0048 C.3     
   2 C2             0.0448    -0.0037    -0.0021 C.ar    
   3 C3             0.2885    -0.6970     1.1703 C.ar    
   4 C4             0.2943    -2.0765     1.1709 C.ar    
   5 C5             0.0536    -2.7729    -0.0146 C.ar    
   6 C6            -0.1915    -2.0674    -1.1937 C.ar    
   7 C7            -0.1997    -0.6879    -1.1795 C.ar    
   8 C8             0.0588    -4.2513    -0.0213 C.2     
   9 O9             0.1569    -4.8635     1.0242 O.2     
  10 N10           -0.0454    -4.9202    -1.1867 N.am    
  11 C11           -0.2871    -4.3363    -2.5232 C.3     
  12 C12           -0.3791    -5.5409    -3.4906 C.3     
  13 N13           -0.7359    -6.6577    -2.5991 N.am    
  14 C14            0.0653    -6.3715    -1.3795 C.3     
  15 C15            1.5007    -6.7921    -1.5632 C.ar    
  16 C16            2.5088    -6.1162    -0.9014 C.ar    
  17 C17            3.8255    -6.5014    -1.0695 C.ar    
  18 C18            4.1345    -7.5636    -1.9004 C.ar    
  19 C19            3.1251    -8.2397    -2.5625 C.ar    
  20 C20            1.8083    -7.8571    -2.3891 C.ar    
  21 Cl21           5.7881    -8.0477    -2.1125 Cl      
  22 C22           -0.6052    -7.1426    -0.2776 C.ar    
  23 C23           -0.4785    -7.1502     1.0916 C.ar    
  24 C24           -1.2532    -8.0074     1.8553 C.ar    
  25 C25           -2.1572    -8.8587     1.2453 C.ar    
  26 C26           -2.2968    -8.8566    -0.1276 C.ar    
  27 C27           -1.5242    -7.9944    -0.9035 C.ar    
  28 C28           -1.4404    -7.7664    -2.3679 C.2     
  29 O29           -1.9364    -8.4786    -3.2189 O.2     
  30 H30            1.0450     1.8711    -0.2001 H       
  31 H31           -0.6439     1.8678    -0.7620 H       
  32 H32           -0.2861     1.8610     0.9816 H       
  33 H33            0.4749    -0.1569     2.0868 H       
  34 H34            0.4850    -2.6165     2.0866 H       
  35 H35           -0.3784    -2.6003    -2.1143 H       
  36 H36           -0.3892    -0.1408    -2.0912 H       
  37 H37           -1.2228    -3.7773    -2.5269 H       
  38 H38            0.5417    -3.6875    -2.8067 H       
  39 H39           -1.1584    -5.3783    -4.2352 H       
  40 H40            0.5821    -5.7235    -3.9711 H       
  41 H41            2.2675    -5.2868    -0.2531 H       
  42 H42            4.6130    -5.9731    -0.5527 H       
  43 H43            3.3657    -9.0689    -3.2112 H       
  44 H44            1.0203    -8.3847    -2.9059 H       
  45 H45            0.2259    -6.4873     1.5720 H       
  46 H46           -1.1509    -8.0117     2.9304 H       
  47 H47           -2.7557    -9.5276     1.8459 H       
  48 H48           -3.0036    -9.5226    -0.6002 H       
@<TRIPOS>BOND
   1    1    2 1
   2    1   30 1
   3    1   31 1
   4    1   32 1
   5    2    3 ar
   6    2    7 ar
   7    3    4 ar
   8    3   33 1
   9    4    5 ar
  10    4   34 1
  11    5    6 ar
  12    5    8 1
  13    6    7 ar
  14    6   35 1
  15    7   36 1
  16    8    9 2
  17    8   10 am
  18   10   11 1
  19   10   14 1
  20   11   12 1
  21   11   37 1
  22   11   38 1
  23   12   13 1
  24   12   39 1
  25   12   40 1
  26   13   14 1
  27   13   28 am
  28   14   15 1
  29   14   22 1
  30   15   16 ar
  31   15   20 ar
  32   16   17 ar
  33   16   41 1
  34   17   18 ar
  35   17   42 1
  36   18   19 ar
  37   18   21 1
  38   19   20 ar
  39   19   43 1
  40   20   44 1
  41   22   23 ar
  42   22   27 ar
  43   23   24 ar
  44   23   45 1
  45   24   25 ar
  46   24   46 1
  47   25   26 ar
  48   25   47 1
  49   26   27 ar
  50   26   48 1
  51   27   28 1
  52   28   29 2

#	End of record

