#	Name: ASD01910423
#	Creating user name:	WinNT
#	Creation time:	15. 06. 2019 19:55

#	Modifying user name:	WinNT
#	Modification time:	15. 06. 2019 19:55

#	Program:	/corina/corina34_cracker 3.40 0067  02.08.2006

@<TRIPOS>MOLECULE
ASD01910423
  41   43    0    0    0
SMALL
NO_CHARGES


@<TRIPOS>ATOM
   1 C1             0.7944    -0.3336     0.6645 C.ar    
   2 C2            -0.2210     0.1027    -0.1665 C.ar    
   3 C3            -0.0421     1.2284    -0.9495 C.ar    
   4 C4             1.1523     1.9205    -0.9036 C.ar    
   5 C5             2.1739     1.4849    -0.0701 C.ar    
   6 C6             1.9911     0.3541     0.7149 C.ar    
   7 N7             3.3855     2.1837    -0.0216 N.am    
   8 C8             3.3939     3.5267    -0.1353 C.2     
   9 O9             4.5475     4.2069     0.0037 O.3     
  10 O10            2.3603     4.1235    -0.3633 O.2     
  11 C11            4.4816     5.6511    -0.1314 C.3     
  12 C12            5.5699     6.3408     0.7330 C.3     
  13 C13            5.8110     7.6710    -0.0114 C.3     
  14 N14            5.3683     7.4803    -1.4004 N.am    
  15 C15            4.8905     6.0946    -1.5582 C.3     
  16 C16            5.3941     8.4174    -2.3687 C.2     
  17 C17            5.7916     9.8029    -2.0453 C.ar    
  18 O18            5.0902     8.1225    -3.5082 O.2     
  19 C19            5.6596    10.8113    -3.0024 C.ar    
  20 C20            6.0316    12.1025    -2.6952 C.ar    
  21 C21            6.5361    12.4010    -1.4386 C.ar    
  22 C22            6.6696    11.4035    -0.4848 C.ar    
  23 C23            6.2953    10.1101    -0.7795 C.ar    
  24 F24            6.8992    13.6682    -1.1427 F       
  25 H25            0.6499    -1.2105     1.2782 H       
  26 H26           -1.1557    -0.4370    -0.2044 H       
  27 H27           -0.8369     1.5665    -1.5978 H       
  28 H28            1.2916     2.7994    -1.5156 H       
  29 H29            2.7836     0.0130     1.3645 H       
  30 H30            4.2192     1.7016     0.0938 H       
  31 H31            3.4882     6.0203     0.1235 H       
  32 H32            5.2014     6.5250     1.7422 H       
  33 H33            6.4802     5.7418     0.7571 H       
  34 H34            5.2323     8.4676     0.4561 H       
  35 H35            6.8720     7.9199     0.0086 H       
  36 H36            5.6899     5.4587    -1.9386 H       
  37 H37            4.0298     6.0639    -2.2263 H       
  38 H38            5.2672    10.5798    -3.9815 H       
  39 H39            5.9303    12.8830    -3.4347 H       
  40 H40            7.0634    11.6413     0.4923 H       
  41 H41            6.3994     9.3340    -0.0358 H       
@<TRIPOS>BOND
   1    1    2 ar
   2    1    6 ar
   3    1   25 1
   4    2    3 ar
   5    2   26 1
   6    3    4 ar
   7    3   27 1
   8    4    5 ar
   9    4   28 1
  10    5    6 ar
  11    5    7 1
  12    6   29 1
  13    7    8 am
  14    7   30 1
  15    8    9 1
  16    8   10 2
  17    9   11 1
  18   11   12 1
  19   11   15 1
  20   11   31 1
  21   12   13 1
  22   12   32 1
  23   12   33 1
  24   13   14 1
  25   13   34 1
  26   13   35 1
  27   14   15 1
  28   14   16 am
  29   15   36 1
  30   15   37 1
  31   16   17 1
  32   16   18 2
  33   17   19 ar
  34   17   23 ar
  35   19   20 ar
  36   19   38 1
  37   20   21 ar
  38   20   39 1
  39   21   22 ar
  40   21   24 1
  41   22   23 ar
  42   22   40 1
  43   23   41 1

#	End of record

