#	Name: ASD00431075
#	Creating user name:	WinNT
#	Creation time:	15. 06. 2019 18:35

#	Modifying user name:	WinNT
#	Modification time:	15. 06. 2019 18:35

#	Program:	/corina/corina34_cracker 3.40 0067  02.08.2006

@<TRIPOS>MOLECULE
ASD00431075
  51   53    0    0    0
SMALL
NO_CHARGES


@<TRIPOS>ATOM
   1 C1             0.3328     1.7315     0.0068 C.2     
   2 C2             0.3269     0.2266    -0.0725 C.3     
   3 O3             1.3832     2.3293     0.1072 O.2     
   4 N4            -0.8289     2.4133    -0.0395 N.am    
   5 C5            -0.8231     3.8763     0.0375 C.3     
   6 C6            -0.5946     4.4596    -1.3583 C.3     
   7 C7            -3.3250     3.7520     0.1678 C.ar    
   8 C8            -2.1479     4.3563     0.5719 C.ar    
   9 C9            -2.1996     5.4057     1.4720 C.ar    
  10 C10           -3.4533     5.8163     1.9411 C.ar    
  11 C11           -4.5938     5.1543     1.4843 C.ar    
  12 N12           -4.4925     4.1598     0.6268 N.ar    
  13 S13           -2.2298     7.8641     3.5729 S.3     
  14 C14           -3.3277     8.8080     4.4817 C.2     
  15 N15           -4.5448     8.4175     4.2637 N.2     
  16 C16           -4.7123     7.4163     3.4257 C.2     
  17 C17           -3.5669     6.9318     2.9042 C.2     
  18 O18           -2.9763     9.8196     5.3113 O.3     
  19 C19           -3.9700    10.5453     5.8897 C.ar    
  20 C20           -4.8051     9.9545     6.8268 C.ar    
  21 C21           -5.8146    10.6917     7.4142 C.ar    
  22 C22           -5.9934    12.0228     7.0672 C.ar    
  23 C23           -5.1584    12.6136     6.1303 C.ar    
  24 C24           -4.1453    11.8781     5.5470 C.ar    
  25 O25           -6.9875    12.7484     7.6453 O.3     
  26 C26           -7.0642    14.1332     7.3012 C.3     
  27 C27           -8.4849    14.6430     7.5515 C.3     
  28 C28           -6.0785    14.9276     8.1604 C.3     
  29 H29            1.3509    -0.1438    -0.0245 H       
  30 H30           -0.2456    -0.1790     0.7617 H       
  31 H31           -0.1289    -0.0860    -1.0120 H       
  32 H32           -1.6687     1.9354    -0.1239 H       
  33 H33           -0.0235     4.2019     0.7028 H       
  34 H34            0.3636     4.1123    -1.7448 H       
  35 H35           -1.3943     4.1339    -2.0236 H       
  36 H36           -0.5904     5.5481    -1.3010 H       
  37 H37           -3.2877     2.9356    -0.5383 H       
  38 H38           -1.2962     5.8952     1.8046 H       
  39 H39           -5.5677     5.4599     1.8372 H       
  40 H40           -5.6844     7.0167     3.1771 H       
  41 H41           -4.6662     8.9180     7.0966 H       
  42 H42           -6.4650    10.2317     8.1434 H       
  43 H43           -5.2979    13.6498     5.8600 H       
  44 H44           -3.4924    12.3393     4.8208 H       
  45 H45           -6.8128    14.2604     6.2482 H       
  46 H46           -8.7363    14.5158     8.6045 H       
  47 H47           -8.5434    15.6993     7.2890 H       
  48 H48           -9.1871    14.0770     6.9394 H       
  49 H49           -6.1370    15.9839     7.8979 H       
  50 H50           -6.3299    14.8004     9.2133 H       
  51 H51           -5.0664    14.5644     7.9820 H       
@<TRIPOS>BOND
   1    1    2 1
   2    1    3 2
   3    1    4 am
   4    2   29 1
   5    2   30 1
   6    2   31 1
   7    4    5 1
   8    4   32 1
   9    5    6 1
  10    5    8 1
  11    5   33 1
  12    6   34 1
  13    6   35 1
  14    6   36 1
  15    7    8 ar
  16    7   12 ar
  17    7   37 1
  18    8    9 ar
  19    9   10 ar
  20    9   38 1
  21   10   11 ar
  22   10   17 1
  23   11   12 ar
  24   11   39 1
  25   13   14 1
  26   13   17 1
  27   14   15 2
  28   14   18 1
  29   15   16 1
  30   16   17 2
  31   16   40 1
  32   18   19 1
  33   19   20 ar
  34   19   24 ar
  35   20   21 ar
  36   20   41 1
  37   21   22 ar
  38   21   42 1
  39   22   23 ar
  40   22   25 1
  41   23   24 ar
  42   23   43 1
  43   24   44 1
  44   25   26 1
  45   26   27 1
  46   26   28 1
  47   26   45 1
  48   27   46 1
  49   27   47 1
  50   27   48 1
  51   28   49 1
  52   28   50 1
  53   28   51 1

#	End of record

