#	Name: ASD01209345
#	Creating user name:	WinNT
#	Creation time:	15. 06. 2019 19:11

#	Modifying user name:	WinNT
#	Modification time:	15. 06. 2019 19:11

#	Program:	/corina/corina34_cracker 3.40 0067  02.08.2006

@<TRIPOS>MOLECULE
ASD01209345
  35   36    0    0    0
SMALL
NO_CHARGES


@<TRIPOS>ATOM
   1 N1            -0.0162     1.3421     0.0094 N.am    
   2 C2             0.0021    -0.0041     0.0020 C.2     
   3 C3             1.3867    -0.4870    -0.0138 C.2     
   4 C4             2.2236     0.5456    -0.0162 C.2     
   5 C5             1.3797     1.7989    -0.0015 C.3     
   6 O6            -0.9846    -0.7150     0.0076 O.2     
   7 C7             3.7291     0.4789    -0.0305 C.3     
   8 C8             1.7987    -1.9365    -0.0251 C.3     
   9 C9            -1.2081     2.1938     0.0200 C.3     
  10 C10           -1.6093     2.4787     1.4444 C.ar    
  11 C11           -1.0965     3.5839     2.0980 C.ar    
  12 C12           -1.4628     3.8472     3.4037 C.ar    
  13 C13           -2.3460     3.0015     4.0591 C.ar    
  14 C14           -2.8591     1.8933     3.4011 C.ar    
  15 C15           -2.4941     1.6375     2.0935 C.ar    
  16 O16           -2.7075     3.2582     5.3438 O.3     
  17 C17           -3.6206     2.3449     5.9556 C.3     
  18 O18            1.6342     2.5783    -1.1719 O.3     
  19 H19            1.5909     2.3838     0.8938 H       
  20 H20            4.0466    -0.5638    -0.0393 H       
  21 H21            4.1066     0.9811    -0.9213 H       
  22 H22            4.1230     0.9712     0.8586 H       
  23 H23            0.9097    -2.5671    -0.0201 H       
  24 H24            2.3841    -2.1409    -0.9216 H       
  25 H25            2.4006    -2.1500     0.8583 H       
  26 H26           -0.9889     3.1318    -0.4902 H       
  27 H27           -2.0238     1.6836    -0.4922 H       
  28 H28           -0.4087     4.2417     1.5875 H       
  29 H29           -1.0616     4.7104     3.9140 H       
  30 H30           -3.5468     1.2335     3.9092 H       
  31 H31           -2.8970     0.7775     1.5792 H       
  32 H32           -4.5508     2.3260     5.3877 H       
  33 H33           -3.1824     1.3469     5.9684 H       
  34 H34           -3.8249     2.6651     6.9772 H       
  35 H35            2.5408     2.9085    -1.2351 H       
@<TRIPOS>BOND
   1    1    2 am
   2    1    5 1
   3    1    9 1
   4    2    3 1
   5    2    6 2
   6    3    4 2
   7    3    8 1
   8    4    5 1
   9    4    7 1
  10    5   18 1
  11    5   19 1
  12    7   20 1
  13    7   21 1
  14    7   22 1
  15    8   23 1
  16    8   24 1
  17    8   25 1
  18    9   10 1
  19    9   26 1
  20    9   27 1
  21   10   11 ar
  22   10   15 ar
  23   11   12 ar
  24   11   28 1
  25   12   13 ar
  26   12   29 1
  27   13   14 ar
  28   13   16 1
  29   14   15 ar
  30   14   30 1
  31   15   31 1
  32   16   17 1
  33   17   32 1
  34   17   33 1
  35   17   34 1
  36   18   35 1

#	End of record

