#	Name: ASD01883517
#	Creating user name:	WinNT
#	Creation time:	15. 06. 2019 19:46

#	Modifying user name:	WinNT
#	Modification time:	15. 06. 2019 19:46

#	Program:	/corina/corina34_cracker 3.40 0067  02.08.2006

@<TRIPOS>MOLECULE
ASD01883517
  47   49    0    0    0
SMALL
NO_CHARGES


@<TRIPOS>ATOM
   1 N1            -0.4462     1.9691     0.5112 N.am    
   2 C2            -0.2359     0.6443     0.4030 C.2     
   3 C3            -1.3357    -0.2381     0.2793 C.2     
   4 C4            -2.6386     0.3023     0.2727 C.2     
   5 C5            -2.7913     1.7016     0.3898 C.2     
   6 C6            -1.7020     2.4903     0.5105 C.2     
   7 O7             0.9013     0.2044     0.4112 O.2     
   8 C8            -1.1298    -1.6504     0.1628 C.1     
   9 N9            -0.9664    -2.7708     0.0703 N.1     
  10 C10            0.7029     2.8689     0.6385 C.3     
  11 C11            1.1627     3.3088    -0.7528 C.3     
  12 C12            2.3628     4.2485    -0.6199 C.3     
  13 C13            2.9002     4.5894    -2.0112 C.3     
  14 C14           -3.8118    -0.5716     0.1462 C.2     
  15 C15            1.9284     5.5335     0.0880 C.3     
  16 S16           -4.2847    -1.8446     1.2689 S.3     
  17 C17           -5.6438    -2.2117     0.2996 C.2     
  18 N18           -5.6865    -1.4301    -0.7418 N.2     
  19 C19           -4.7374    -0.5393    -0.8622 C.2     
  20 C20           -4.6618     0.4287    -2.0147 C.3     
  21 C21           -6.6320    -3.2682     0.6006 C.ar    
  22 C22           -7.7093    -3.4864    -0.2603 C.ar    
  23 C23           -8.6282    -4.4744     0.0267 C.ar    
  24 C24           -8.4842    -5.2482     1.1647 C.ar    
  25 C25           -7.4191    -5.0369     2.0223 C.ar    
  26 C26           -6.4895    -4.0564     1.7440 C.ar    
  27 H27           -3.7784     2.1398     0.3874 H       
  28 H28           -1.8306     3.5589     0.5994 H       
  29 H29            0.4157     3.7449     1.2201 H       
  30 H30            1.5174     2.3489     1.1428 H       
  31 H31            1.4499     2.4328    -1.3345 H       
  32 H32            0.3482     3.8288    -1.2572 H       
  33 H33            3.1443     3.7597    -0.0382 H       
  34 H34            2.1187     5.0782    -2.5929 H       
  35 H35            3.7552     5.2589    -1.9165 H       
  36 H36            3.2097     3.6740    -2.5155 H       
  37 H37            2.7833     6.2030     0.1827 H       
  38 H38            1.1468     6.0223    -0.4937 H       
  39 H39            1.5455     5.2907     1.0792 H       
  40 H40           -5.1295     1.3709    -1.7291 H       
  41 H41           -3.6176     0.6050    -2.2732 H       
  42 H42           -5.1835     0.0103    -2.8754 H       
  43 H43           -7.8231    -2.8829    -1.1486 H       
  44 H44           -9.4622    -4.6441    -0.6382 H       
  45 H45           -9.2065    -6.0204     1.3847 H       
  46 H46           -7.3129    -5.6439     2.9092 H       
  47 H47           -5.6586    -3.8924     2.4143 H       
@<TRIPOS>BOND
   1    1    2 am
   2    1   10 1
   3    1    6 1
   4    2    3 1
   5    2    7 2
   6    3    4 2
   7    3    8 1
   8    4    5 1
   9    4   14 1
  10    5    6 2
  11    5   27 1
  12    6   28 1
  13    8    9 3
  14   10   11 1
  15   10   29 1
  16   10   30 1
  17   11   12 1
  18   11   31 1
  19   11   32 1
  20   12   13 1
  21   12   15 1
  22   12   33 1
  23   13   34 1
  24   13   35 1
  25   13   36 1
  26   14   16 1
  27   14   19 2
  28   15   37 1
  29   15   38 1
  30   15   39 1
  31   16   17 1
  32   17   21 1
  33   17   18 2
  34   18   19 1
  35   19   20 1
  36   20   40 1
  37   20   41 1
  38   20   42 1
  39   21   22 ar
  40   21   26 ar
  41   22   23 ar
  42   22   43 1
  43   23   24 ar
  44   23   44 1
  45   24   25 ar
  46   24   45 1
  47   25   26 ar
  48   25   46 1
  49   26   47 1

#	End of record

