#	Name: ASD05720130
#	Creating user name:	WinNT
#	Creation time:	15. 06. 2019 21:01

#	Modifying user name:	WinNT
#	Modification time:	15. 06. 2019 21:01

#	Program:	/corina/corina34_cracker 3.40 0067  02.08.2006

@<TRIPOS>MOLECULE
ASD05720130
  36   39    0    0    0
SMALL
NO_CHARGES


@<TRIPOS>ATOM
   1 O1            -0.0071     1.3456    -0.0348 O.3     
   2 C2            -0.0084     0.0082    -0.0049 C.2     
   3 N3             1.2166    -0.5347     0.0146 N.am    
   4 C4             2.2159     0.5445    -0.0036 C.3     
   5 C5             1.3670     1.8301    -0.0375 C.3     
   6 O6            -1.0272    -0.6537     0.0045 O.2     
   7 C7             3.0912     0.4453    -1.2546 C.3     
   8 C8             2.2206     0.5630    -2.5178 C.3     
   9 C9             2.7196     1.8062    -3.2828 C.3     
  10 C10            4.1789     1.9904    -2.7975 C.3     
  11 C11            4.0890     1.6212    -1.2960 C.3     
  12 C12            3.0322    -3.6211    -0.0157 C.2     
  13 N13            2.7439    -2.3123    -0.0461 N.2     
  14 C14            1.4970    -1.8950     0.0474 C.2     
  15 C15            0.4470    -2.8273     0.1813 C.2     
  16 C16            0.7322    -4.1483     0.2126 C.2     
  17 N17            2.0345    -4.5529     0.1135 N.pl3   
  18 N18            2.6331    -5.8181     0.1143 N.2     
  19 C19            3.9331    -5.6729    -0.0082 C.2     
  20 C20            4.2294    -4.3202    -0.0984 C.2     
  21 Br21           5.9519    -3.5651    -0.2952 Br      
  22 H22            2.8288     0.5140     0.8972 H       
  23 H23            1.5701     2.3982    -0.9453 H       
  24 H24            1.5594     2.4384     0.8462 H       
  25 H25            3.6296    -0.5024    -1.2591 H       
  26 H26            2.3370    -0.3273    -3.1358 H       
  27 H27            1.1744     0.6907    -2.2397 H       
  28 H28            2.6946     1.6281    -4.3579 H       
  29 H29            2.1191     2.6788    -3.0257 H       
  30 H30            4.8494     1.3104    -3.3230 H       
  31 H31            4.5000     3.0245    -2.9225 H       
  32 H32            3.7096     2.4639    -0.7180 H       
  33 H33            5.0634     1.3081    -0.9211 H       
  34 H34           -0.5757    -2.4887     0.2586 H       
  35 H35           -0.0595    -4.8757     0.3149 H       
  36 H36            4.6542    -6.4764    -0.0382 H       
@<TRIPOS>BOND
   1    1    2 1
   2    1    5 1
   3    2    3 am
   4    2    6 2
   5    3    4 1
   6    3   14 1
   7    4    5 1
   8    4    7 1
   9    4   22 1
  10    5   23 1
  11    5   24 1
  12    7    8 1
  13    7   11 1
  14    7   25 1
  15    8    9 1
  16    8   26 1
  17    8   27 1
  18    9   10 1
  19    9   28 1
  20    9   29 1
  21   10   11 1
  22   10   30 1
  23   10   31 1
  24   11   32 1
  25   11   33 1
  26   12   13 1
  27   12   17 1
  28   12   20 2
  29   13   14 2
  30   14   15 1
  31   15   16 2
  32   15   34 1
  33   16   17 1
  34   16   35 1
  35   17   18 1
  36   18   19 2
  37   19   20 1
  38   19   36 1
  39   20   21 1

#	End of record

