#	Name: ASD03900015
#	Creating user name:	WinNT
#	Creation time:	15. 06. 2019 20:47

#	Modifying user name:	WinNT
#	Modification time:	15. 06. 2019 20:47

#	Program:	/corina/corina34_cracker 3.40 0067  02.08.2006

@<TRIPOS>MOLECULE
ASD03900015
  49   52    0    0    0
SMALL
NO_CHARGES


@<TRIPOS>ATOM
   1 C1            -0.0104     1.5095     0.0588 C.3     
   2 C2            -0.1108     0.0159    -0.1150 C.ar    
   3 C3             1.4366     1.9460     0.0634 C.ar    
   4 C4            -0.7725     2.2190    -1.0306 C.ar    
   5 C5            -0.5230     1.9204     1.4228 C.2     
   6 C6            -0.5949    -0.7680     0.9160 C.ar    
   7 C7            -0.6875    -2.1373     0.7592 C.ar    
   8 C8            -0.2947    -2.7259    -0.4341 C.ar    
   9 C9             0.1903    -1.9371    -1.4672 C.ar    
  10 C10            0.2761    -0.5676    -1.3074 C.ar    
  11 C11            2.4430     1.8607    -0.8716 C.ar    
  12 C12            3.7010     2.3592    -0.5792 C.ar    
  13 C13            3.9410     2.9411     0.6518 C.ar    
  14 C14            2.9338     3.0279     1.5908 C.ar    
  15 C15            1.6652     2.5284     1.3039 C.ar    
  16 C16           -2.0972     1.9003    -1.2661 C.ar    
  17 C17           -2.7979     2.5489    -2.2644 C.ar    
  18 C18           -2.1715     3.5210    -3.0307 C.ar    
  19 C19           -0.8424     3.8393    -2.7921 C.ar    
  20 C20           -0.1476     3.1915    -1.7892 C.ar    
  21 O21           -0.3844    -4.0731    -0.5906 O.3     
  22 C22           -1.6182    -4.6008    -0.6349 C.2     
  23 O23           -2.5853    -3.8764    -0.6378 O.2     
  24 C24           -1.7968    -6.0964    -0.6810 C.3     
  25 N25            0.5015     2.4974     2.0731 N.am    
  26 O26           -1.6473     1.7593     1.8484 O.2     
  27 O27           -2.8586     4.1603    -4.0139 O.3     
  28 C28           -3.7380     5.0999    -3.6310 C.2     
  29 O29           -3.9552     5.2813    -2.4564 O.2     
  30 C30           -4.4541     5.9284    -4.6664 C.3     
  31 H31           -0.9005    -0.3093     1.8447 H       
  32 H32           -1.0650    -2.7493     1.5651 H       
  33 H33            0.4971    -2.3930    -2.3970 H       
  34 H34            0.6532     0.0469    -2.1114 H       
  35 H35            2.2517     1.4051    -1.8319 H       
  36 H36            4.4927     2.2940    -1.3109 H       
  37 H37            4.9226     3.3296     0.8797 H       
  38 H38            3.1293     3.4835     2.5503 H       
  39 H39           -2.5844     1.1434    -0.6693 H       
  40 H40           -3.8324     2.2991    -2.4485 H       
  41 H41           -0.3524     4.5955    -3.3875 H       
  42 H42            0.8870     3.4391    -1.6028 H       
  43 H43           -1.8645    -6.4857     0.3348 H       
  44 H44           -2.7111    -6.3366    -1.2238 H       
  45 H45           -0.9442    -6.5487    -1.1874 H       
  46 H46            0.4391     2.8522     2.9737 H       
  47 H47           -5.3833     5.4333    -4.9487 H       
  48 H48           -4.6774     6.9122    -4.2537 H       
  49 H49           -3.8195     6.0388    -5.5458 H       
@<TRIPOS>BOND
   1    1    2 1
   2    1    3 1
   3    1    4 1
   4    1    5 1
   5    2    6 ar
   6    2   10 ar
   7    3   11 ar
   8    3   15 ar
   9    4   16 ar
  10    4   20 ar
  11    5   25 am
  12    5   26 2
  13    6    7 ar
  14    6   31 1
  15    7    8 ar
  16    7   32 1
  17    8    9 ar
  18    8   21 1
  19    9   10 ar
  20    9   33 1
  21   10   34 1
  22   11   12 ar
  23   11   35 1
  24   12   13 ar
  25   12   36 1
  26   13   14 ar
  27   13   37 1
  28   14   15 ar
  29   14   38 1
  30   15   25 1
  31   16   17 ar
  32   16   39 1
  33   17   18 ar
  34   17   40 1
  35   18   19 ar
  36   18   27 1
  37   19   20 ar
  38   19   41 1
  39   20   42 1
  40   21   22 1
  41   22   23 2
  42   22   24 1
  43   24   43 1
  44   24   44 1
  45   24   45 1
  46   25   46 1
  47   27   28 1
  48   28   29 2
  49   28   30 1
  50   30   47 1
  51   30   48 1
  52   30   49 1

#	End of record

