#	Name: ASD01881531
#	Creating user name:	WinNT
#	Creation time:	15. 06. 2019 19:42

#	Modifying user name:	WinNT
#	Modification time:	15. 06. 2019 19:42

#	Program:	/corina/corina34_cracker 3.40 0067  02.08.2006

@<TRIPOS>MOLECULE
ASD01881531
  47   49    0    0    0
SMALL
NO_CHARGES


@<TRIPOS>ATOM
   1 O1            -0.0164     1.3548     0.0095 O.3     
   2 C2             0.0021    -0.0041     0.0020 C.ar    
   3 C3            -1.1891    -0.7152     0.0096 C.ar    
   4 C4             1.2479     2.0208     0.0010 C.3     
   5 C5             1.0269     3.5347     0.0112 C.3     
   6 C6             2.3733     4.2867     0.1284 C.3     
   7 N7             2.1530     5.4602    -0.7350 N.pl3   
   8 C8             1.0578     5.2187    -1.5071 C.2     
   9 O9             0.5330     3.9888    -1.2619 O.3     
  10 C10            2.6305     6.6948    -1.0482 C.2     
  11 C11            1.8082     7.2022    -2.0086 C.2     
  12 N12            0.8519     6.2720    -2.2666 N.2     
  13 C13            3.8367     7.3708    -0.4489 C.3     
  14 N14            1.0453     8.8990    -3.5922 N.am    
  15 C15            1.9331     8.5211    -2.6513 C.2     
  16 C16           -1.1677    -2.0964     0.0020 C.ar    
  17 C17            0.0396    -2.7702    -0.0131 C.ar    
  18 C18            1.2282    -2.0638    -0.0202 C.ar    
  19 C19            1.2120    -0.6824    -0.0189 C.ar    
  20 C20            0.0600    -4.2770    -0.0213 C.3     
  21 C21           -0.6423    -4.8035     1.2319 C.3     
  22 C22           -0.6661    -4.7901    -1.2665 C.3     
  23 O23            2.8376     9.2695    -2.3330 O.2     
  24 C24            1.5092    -4.7673    -0.0378 C.3     
  25 F25            2.1732    -4.2982     1.1008 F       
  26 F26            1.5282    -6.1662    -0.0454 F       
  27 F27            2.1514    -4.2860    -1.1837 F       
  28 H28           -2.1324    -0.1893     0.0217 H       
  29 H29            1.8173     1.7308     0.8840 H       
  30 H30            1.8003     1.7403    -0.8958 H       
  31 H31            0.3514     3.8209     0.8174 H       
  32 H32            2.5586     4.5921     1.1582 H       
  33 H33            3.1930     3.6756    -0.2495 H       
  34 H34            4.7219     7.1190    -1.0329 H       
  35 H35            3.6902     8.4508    -0.4585 H       
  36 H36            3.9705     7.0313     0.5783 H       
  37 H37            0.3240     8.3022    -3.8460 H       
  38 H38            1.1276     9.7679    -4.0156 H       
  39 H39           -2.0947    -2.6505     0.0082 H       
  40 H40            2.1699    -2.5924    -0.0313 H       
  41 H41            2.1407    -0.1311    -0.0245 H       
  42 H42           -1.6748    -4.4542     1.2436 H       
  43 H43           -0.6275    -5.8934     1.2259 H       
  44 H44           -0.1250    -4.4379     2.1189 H       
  45 H45           -0.1658    -4.4151    -2.1593 H       
  46 H46           -0.6513    -5.8800    -1.2724 H       
  47 H47           -1.6986    -4.4408    -1.2548 H       
@<TRIPOS>BOND
   1    1    2 1
   2    1    4 1
   3    2    3 ar
   4    2   19 ar
   5    3   16 ar
   6    3   28 1
   7    4    5 1
   8    4   29 1
   9    4   30 1
  10    5    6 1
  11    5    9 1
  12    5   31 1
  13    6    7 1
  14    6   32 1
  15    6   33 1
  16    7    8 1
  17    7   10 1
  18    8    9 1
  19    8   12 2
  20   10   11 2
  21   10   13 1
  22   11   12 1
  23   11   15 1
  24   13   34 1
  25   13   35 1
  26   13   36 1
  27   14   15 am
  28   14   37 1
  29   14   38 1
  30   15   23 2
  31   16   17 ar
  32   16   39 1
  33   17   18 ar
  34   17   20 1
  35   18   19 ar
  36   18   40 1
  37   19   41 1
  38   20   24 1
  39   20   21 1
  40   20   22 1
  41   21   42 1
  42   21   43 1
  43   21   44 1
  44   22   45 1
  45   22   46 1
  46   22   47 1
  47   24   25 1
  48   24   26 1
  49   24   27 1

#	End of record

