#	Name: ASD01811661
#	Creating user name:	WinNT
#	Creation time:	15. 06. 2019 19:27

#	Modifying user name:	WinNT
#	Modification time:	15. 06. 2019 19:27

#	Program:	/corina/corina34_cracker 3.40 0067  02.08.2006

@<TRIPOS>MOLECULE
ASD01811661
  54   58    0    0    0
SMALL
NO_CHARGES


@<TRIPOS>ATOM
   1 N1            -0.0158     1.3147     0.0093 N.ar    
   2 C2             0.0021    -0.0041     0.0020 C.ar    
   3 C3             1.1989    -0.7033    -0.0127 C.ar    
   4 C4             2.3829    -0.0014    -0.0202 C.ar    
   5 C5             2.3448     1.3978    -0.0128 C.ar    
   6 C6             1.0955     2.0332     0.0025 C.ar    
   7 C7             3.8373    -0.3890    -0.0358 C.3     
   8 N8             4.5955     0.8684    -0.0366 N.am    
   9 C9             3.7280     1.8961    -0.0233 C.2     
  10 C10            6.0558     0.9844    -0.0501 C.3     
  11 C11            6.5428     1.0316    -1.4754 C.ar    
  12 C12            6.6706     2.2487    -2.1200 C.ar    
  13 C13            7.1162     2.2976    -3.4255 C.ar    
  14 C14            7.4374     1.1183    -4.0938 C.ar    
  15 C15            7.3069    -0.1047    -3.4399 C.ar    
  16 C16            6.8658    -0.1419    -2.1325 C.ar    
  17 C17            7.9167     1.1648    -5.4983 C.2     
  18 C18            8.2643     0.0928    -6.2674 C.2     
  19 N19            8.6427     0.5618    -7.4735 N.pl3   
  20 N20            8.5285     1.9571    -7.4560 N.2     
  21 C21            8.0895     2.3230    -6.2808 C.2     
  22 C22            9.0957    -0.2487    -8.6067 C.3     
  23 O23            4.0429     3.0705    -0.0199 O.2     
  24 O24            1.0255     3.3856     0.0100 O.3     
  25 C25           -0.2795     3.9677     0.0251 C.3     
  26 C26           -0.1576     5.4928     0.0317 C.3     
  27 O27            0.4061     5.9406    -1.2066 O.3     
  28 C28           -0.5326     6.7798    -1.8980 C.3     
  29 C29           -1.4572     7.3488    -0.7925 C.3     
  30 C30           -1.5578     6.1295     0.1641 C.3     
  31 H31           -0.9309    -0.5480     0.0080 H       
  32 H32            1.2023    -1.7833    -0.0178 H       
  33 H33            4.0794    -0.9721     0.8527 H       
  34 H34            4.0627    -0.9631    -0.9345 H       
  35 H35            6.3525     1.8976     0.4657 H       
  36 H36            6.4934     0.1233     0.4550 H       
  37 H37            6.4209     3.1623    -1.6011 H       
  38 H38            7.2153     3.2484    -3.9280 H       
  39 H39            7.5542    -1.0220    -3.9537 H       
  40 H40            6.7684    -1.0892    -1.6232 H       
  41 H41            8.2406    -0.9436    -5.9649 H       
  42 H42            7.8960     3.3372    -5.9638 H       
  43 H43            8.2388    -0.5252    -9.2212 H       
  44 H44            9.8017     0.3265    -9.2056 H       
  45 H45            9.5834    -1.1505    -8.2365 H       
  46 H46           -0.8289     3.6509    -0.8614 H       
  47 H47           -0.8123     3.6419     0.9185 H       
  48 H48            0.4742     5.8096     0.8615 H       
  49 H49           -0.0114     7.5893    -2.4091 H       
  50 H50           -1.1118     6.1925    -2.6105 H       
  51 H51           -0.9957     8.2016    -0.2948 H       
  52 H52           -2.4347     7.6134    -1.1957 H       
  53 H53           -2.3315     5.4378    -0.1690 H       
  54 H54           -1.7409     6.4542     1.1884 H       
@<TRIPOS>BOND
   1    1    2 ar
   2    1    6 ar
   3    2    3 ar
   4    2   31 1
   5    3    4 ar
   6    3   32 1
   7    4    7 1
   8    4    5 ar
   9    5    6 ar
  10    5    9 1
  11    6   24 1
  12    7    8 1
  13    7   33 1
  14    7   34 1
  15    8    9 am
  16    8   10 1
  17    9   23 2
  18   10   11 1
  19   10   35 1
  20   10   36 1
  21   11   12 ar
  22   11   16 ar
  23   12   13 ar
  24   12   37 1
  25   13   14 ar
  26   13   38 1
  27   14   15 ar
  28   14   17 1
  29   15   16 ar
  30   15   39 1
  31   16   40 1
  32   17   18 2
  33   17   21 1
  34   18   19 1
  35   18   41 1
  36   19   20 1
  37   19   22 1
  38   20   21 2
  39   21   42 1
  40   22   43 1
  41   22   44 1
  42   22   45 1
  43   24   25 1
  44   25   26 1
  45   25   46 1
  46   25   47 1
  47   26   27 1
  48   26   30 1
  49   26   48 1
  50   27   28 1
  51   28   29 1
  52   28   49 1
  53   28   50 1
  54   29   30 1
  55   29   51 1
  56   29   52 1
  57   30   53 1
  58   30   54 1

#	End of record

