#	Name: ASD01816750
#	Creating user name:	WinNT
#	Creation time:	15. 06. 2019 19:35

#	Modifying user name:	WinNT
#	Modification time:	15. 06. 2019 19:35

#	Program:	/corina/corina34_cracker 3.40 0067  02.08.2006

@<TRIPOS>MOLECULE
ASD01816750
  59   63    0    0    0
SMALL
NO_CHARGES


@<TRIPOS>ATOM
   1 C1            -0.0168     1.3959     0.0022 C.2     
   2 C2             0.0025    -0.0054    -0.0114 C.2     
   3 C3             1.1990    -0.6604    -0.0283 C.2     
   4 C4             2.3922     0.0813    -0.0319 C.2     
   5 N5             2.3439     1.4490    -0.0180 N.am    
   6 C6             1.1419     2.0927    -0.0015 C.2     
   7 C7             3.6231    -0.5888    -0.0492 C.2     
   8 C8             4.7881     0.1230    -0.0524 C.2     
   9 C9             4.7341     1.5283    -0.0387 C.2     
  10 C10            3.4812     2.1731    -0.0210 C.2     
  11 C11            3.6606    -2.0952    -0.0637 C.3     
  12 O12            3.4255     3.3914    -0.0094 O.2     
  13 C13            5.9710     2.3158    -0.0413 C.2     
  14 N14            7.1646     1.6961     0.0467 N.am    
  15 O15            5.9198     3.5293    -0.1230 O.2     
  16 N16            3.7812    -2.5687    -1.4491 N.3     
  17 C17            4.0584    -4.0113    -1.4904 C.3     
  18 C18            4.0976    -4.4790    -2.9472 C.3     
  19 N19            5.1302    -3.7263    -3.6730 N.3     
  20 C20            4.8530    -2.2837    -3.6317 C.3     
  21 C21            4.8138    -1.8160    -2.1749 C.3     
  22 C22            5.2444    -4.1749    -4.9857 C.ar    
  23 C23            6.1712    -3.5876    -5.8419 C.ar    
  24 C24            6.2868    -4.0288    -7.1406 C.ar    
  25 C25            5.4722    -5.0684    -7.5992 C.ar    
  26 C26            4.5425    -5.6564    -6.7362 C.ar    
  27 C27            4.4356    -5.2135    -5.4373 C.ar    
  28 C28            8.3514     2.4388    -0.0652 C.2     
  29 C29            8.4572     3.7793    -0.2621 C.2     
  30 N30            9.6038     1.9666     0.0069 N.2     
  31 N31           10.4290     2.9418    -0.1399 N.2     
  32 N32            9.7914     4.0476    -0.3043 N.pl3   
  33 C33           10.3966     5.3670    -0.5021 C.3     
  34 C34            5.5894    -5.5296    -8.9498 C.1     
  35 N35            5.6824    -5.8955   -10.0212 N.1     
  36 H36           -0.9605     1.9210     0.0111 H       
  37 H37           -0.9228    -0.5624    -0.0080 H       
  38 H38            1.2287    -1.7399    -0.0385 H       
  39 H39            1.1151     3.1723     0.0097 H       
  40 H40            5.7399    -0.3870    -0.0650 H       
  41 H41            4.5165    -2.4430     0.5148 H       
  42 H42            2.7425    -2.4858     0.3751 H       
  43 H43            7.2041     0.7372     0.1873 H       
  44 H44            5.0205    -4.2104    -1.0185 H       
  45 H45            3.2735    -4.5478    -0.9573 H       
  46 H46            4.3317    -5.5430    -2.9813 H       
  47 H47            3.1268    -4.3048    -3.4113 H       
  48 H48            5.6379    -1.7472    -4.1649 H       
  49 H49            3.8909    -2.0846    -4.1036 H       
  50 H50            4.5797    -0.7519    -2.1408 H       
  51 H51            5.7845    -1.9901    -1.7108 H       
  52 H52            6.8002    -2.7846    -5.4870 H       
  53 H53            7.0057    -3.5722    -7.8048 H       
  54 H54            3.9115    -6.4594    -7.0874 H       
  55 H55            3.7179    -5.6675    -4.7700 H       
  56 H56            7.6481     4.4873    -0.3647 H       
  57 H57           10.5459     5.5423    -1.5675 H       
  58 H58            9.7366     6.1340    -0.0967 H       
  59 H59           11.3576     5.4066     0.0108 H       
@<TRIPOS>BOND
   1    1    2 1
   2    1    6 2
   3    1   36 1
   4    2    3 2
   5    2   37 1
   6    3    4 1
   7    3   38 1
   8    4    5 1
   9    4    7 2
  10    5    6 1
  11    5   10 am
  12    6   39 1
  13    7    8 1
  14    7   11 1
  15    8    9 2
  16    8   40 1
  17    9   10 1
  18    9   13 1
  19   10   12 2
  20   11   16 1
  21   11   41 1
  22   11   42 1
  23   13   15 2
  24   13   14 am
  25   14   28 1
  26   14   43 1
  27   16   17 1
  28   16   21 1
  29   17   18 1
  30   17   44 1
  31   17   45 1
  32   18   19 1
  33   18   46 1
  34   18   47 1
  35   19   20 1
  36   19   22 1
  37   20   21 1
  38   20   48 1
  39   20   49 1
  40   21   50 1
  41   21   51 1
  42   22   23 ar
  43   22   27 ar
  44   23   24 ar
  45   23   52 1
  46   24   25 ar
  47   24   53 1
  48   25   26 ar
  49   25   34 1
  50   26   27 ar
  51   26   54 1
  52   27   55 1
  53   28   29 2
  54   28   30 1
  55   29   32 1
  56   29   56 1
  57   30   31 2
  58   31   32 1
  59   32   33 1
  60   33   57 1
  61   33   58 1
  62   33   59 1
  63   34   35 3

#	End of record

