#	Name: ASD03331410
#	Creating user name:	WinNT
#	Creation time:	15. 06. 2019 20:39

#	Modifying user name:	WinNT
#	Modification time:	15. 06. 2019 20:39

#	Program:	/corina/corina34_cracker 3.40 0067  02.08.2006

@<TRIPOS>MOLECULE
ASD03331410
  78   82    0    0    0
SMALL
NO_CHARGES


@<TRIPOS>ATOM
   1 N1            -0.5849     1.8544    -1.1435 N.am    
   2 C2            -0.3488     0.4248    -1.3869 C.3     
   3 C3            -0.7946     0.0873    -2.8131 C.3     
   4 C4            -0.0851     1.0184    -3.7989 C.3     
   5 C5            -0.4724     2.4689    -3.5023 C.3     
   6 C6            -0.0229     2.8334    -2.0839 C.3     
   7 C7             1.4065     0.8578    -3.6564 C.2     
   8 O8             2.1051     1.8297    -3.4606 O.2     
   9 N9             1.9643    -0.3658    -3.7464 N.am    
  10 C10           -0.4954     0.6668    -5.2057 C.ar    
  11 C11           -0.0509     1.4327    -6.2672 C.ar    
  12 C12           -0.4273     1.1102    -7.5576 C.ar    
  13 C13           -1.2479     0.0216    -7.7866 C.ar    
  14 C14           -1.6917    -0.7449    -6.7252 C.ar    
  15 C15           -1.3117    -0.4250    -5.4352 C.ar    
  16 C16           -1.3080     2.2598    -0.0808 C.2     
  17 O17           -1.8521     1.4392     0.6333 O.2     
  18 N18           -2.2969     5.6697     0.7390 N.pl3   
  19 C19           -2.6009     4.3634     0.5416 C.2     
  20 C20           -1.4393     3.6965     0.2159 C.2     
  21 C21           -0.3938     4.6562     0.2204 C.2     
  22 C22           -0.9481     5.8526     0.5434 C.2     
  23 C23           -3.9712     3.7471     0.6581 C.3     
  24 C24           -4.6737     3.8052    -0.6998 C.3     
  25 C25           -6.0649     3.1795    -0.5815 C.3     
  26 N26           -6.7376     3.2352    -1.8818 N.am    
  27 S27           -8.0871     2.3155    -2.1559 S.o2    
  28 O28           -8.4400     2.6035    -3.5019 O.2     
  29 O29           -7.7036     1.0047    -1.7635 O.2     
  30 C30           -9.3294     2.9834    -1.0152 C.3     
  31 C31           -0.2235     7.1360     0.6650 C.ar    
  32 C32            0.9383     7.2150     1.4364 C.ar    
  33 C33            1.6102     8.4159     1.5454 C.ar    
  34 C34            1.1343     9.5401     0.8918 C.ar    
  35 C35           -0.0170     9.4673     0.1262 C.ar    
  36 C36           -0.6943     8.2713     0.0049 C.ar    
  37 Cl37           1.9845    11.0470     1.0333 Cl      
  38 Cl38           1.5354     5.8064     2.2567 Cl      
  39 C39           -3.2120     6.6743     1.0817 C.ar    
  40 C40           -3.1581     7.2654     2.3369 C.ar    
  41 C41           -4.0607     8.2555     2.6721 C.ar    
  42 C42           -5.0183     8.6586     1.7581 C.ar    
  43 C43           -5.0745     8.0708     0.5065 C.ar    
  44 C44           -4.1705     7.0842     0.1645 C.ar    
  45 Cl45          -6.1515     9.9035     2.1824 Cl      
  46 H46            0.7130     0.2055    -1.2745 H       
  47 H47           -0.9237    -0.1670    -0.6746 H       
  48 H48           -0.5367    -0.9472    -3.0397 H       
  49 H49           -1.8730     0.2209    -2.8984 H       
  50 H50            0.0149     3.1295    -4.2194 H       
  51 H51           -1.5539     2.5801    -3.5811 H       
  52 H52           -0.3828     3.8309    -1.8315 H       
  53 H53            1.0654     2.8105    -2.0283 H       
  54 H54            1.4160    -1.1333    -3.9728 H       
  55 H55            2.9140    -0.4790    -3.5848 H       
  56 H56            0.5902     2.2832    -6.0883 H       
  57 H57           -0.0806     1.7090    -8.3869 H       
  58 H58           -1.5425    -0.2300    -8.7948 H       
  59 H59           -2.3330    -1.5952    -6.9041 H       
  60 H60           -1.6554    -1.0259    -4.6063 H       
  61 H61            0.6482     4.4697     0.0064 H       
  62 H62           -3.8767     2.7082     0.9741 H       
  63 H63           -4.5564     4.2988     1.3938 H       
  64 H64           -4.7683     4.8441    -1.0158 H       
  65 H65           -4.0886     3.2535    -1.4355 H       
  66 H66           -5.9704     2.1406    -0.2655 H       
  67 H67           -6.6501     3.7313     0.1542 H       
  68 H68           -6.3924     3.8108    -2.5821 H       
  69 H69           -9.5015     4.0358    -1.2410 H       
  70 H70          -10.2618     2.4303    -1.1289 H       
  71 H71           -8.9716     2.8855     0.0097 H       
  72 H72            2.5084     8.4789     2.1417 H       
  73 H73           -0.3833    10.3477    -0.3808 H       
  74 H74           -1.5895     8.2152    -0.5966 H       
  75 H75           -2.4111     6.9508     3.0507 H       
  76 H76           -4.0193     8.7153     3.6485 H       
  77 H77           -5.8230     8.3869    -0.2050 H       
  78 H78           -4.2116     6.6292    -0.8140 H       
@<TRIPOS>BOND
   1    1    2 1
   2    1    6 1
   3    1   16 am
   4    2    3 1
   5    2   46 1
   6    2   47 1
   7    3    4 1
   8    3   48 1
   9    3   49 1
  10    4    5 1
  11    4    7 1
  12    4   10 1
  13    5    6 1
  14    5   50 1
  15    5   51 1
  16    6   52 1
  17    6   53 1
  18    7    8 2
  19    7    9 am
  20    9   54 1
  21    9   55 1
  22   10   11 ar
  23   10   15 ar
  24   11   12 ar
  25   11   56 1
  26   12   13 ar
  27   12   57 1
  28   13   14 ar
  29   13   58 1
  30   14   15 ar
  31   14   59 1
  32   15   60 1
  33   16   17 2
  34   16   20 1
  35   18   19 1
  36   18   22 1
  37   18   39 1
  38   19   20 2
  39   19   23 1
  40   20   21 1
  41   21   22 2
  42   21   61 1
  43   22   31 1
  44   23   24 1
  45   23   62 1
  46   23   63 1
  47   24   25 1
  48   24   64 1
  49   24   65 1
  50   25   26 1
  51   25   66 1
  52   25   67 1
  53   26   27 am
  54   26   68 1
  55   27   28 2
  56   27   29 2
  57   27   30 1
  58   30   69 1
  59   30   70 1
  60   30   71 1
  61   31   32 ar
  62   31   36 ar
  63   32   33 ar
  64   32   38 1
  65   33   34 ar
  66   33   72 1
  67   34   35 ar
  68   34   37 1
  69   35   36 ar
  70   35   73 1
  71   36   74 1
  72   39   40 ar
  73   39   44 ar
  74   40   41 ar
  75   40   75 1
  76   41   42 ar
  77   41   76 1
  78   42   43 ar
  79   42   45 1
  80   43   44 ar
  81   43   77 1
  82   44   78 1

#	End of record

