#	Name: ASD03090599
#	Creating user name:	WinNT
#	Creation time:	15. 06. 2019 20:29

#	Modifying user name:	WinNT
#	Modification time:	15. 06. 2019 20:29

#	Program:	/corina/corina34_cracker 3.40 0067  02.08.2006

@<TRIPOS>MOLECULE
ASD03090599
  37   38    0    0    0
SMALL
NO_CHARGES


@<TRIPOS>ATOM
   1 N1            -0.0162     1.3436     0.0094 N.am    
   2 C2            -0.2147     0.1140    -0.5055 C.2     
   3 O3             0.6734    -0.4346    -1.1291 O.2     
   4 N4            -1.3975    -0.5076    -0.3293 N.am    
   5 S5            -3.0416    -2.6954    -0.7249 S.3     
   6 C6            -1.6023    -1.7763    -0.8606 C.2     
   7 N7            -0.7341    -2.4608    -1.5425 N.2     
   8 N8            -1.0813    -3.6023    -1.9552 N.2     
   9 C9            -2.2816    -3.9861    -1.6567 C.2     
  10 C10           -2.9154    -5.2992    -2.0374 C.3     
  11 F11           -1.9677    -6.1070    -2.6750 F       
  12 F12           -3.3791    -5.9444    -0.8859 F       
  13 F13           -3.9879    -5.0653    -2.9047 F       
  14 C14            1.2494     1.9399    -0.0686 C.ar    
  15 C15            1.3604     3.3156    -0.2191 C.ar    
  16 C16            2.6078     3.9054    -0.2967 C.ar    
  17 C17            3.7503     3.1250    -0.2243 C.ar    
  18 C18            3.6423     1.7460    -0.0730 C.ar    
  19 C19            2.3921     1.1558     0.0104 C.ar    
  20 C20            0.1192     4.1666    -0.2986 C.3     
  21 O21            4.7632     0.9791    -0.0024 O.3     
  22 C22            4.5770    -0.4292     0.1531 C.3     
  23 O23            4.9778     3.7070    -0.3017 O.3     
  24 C24            5.0139     5.1270    -0.4572 C.3     
  25 H25           -0.7505     1.8173     0.4305 H       
  26 H26           -2.1060    -0.0700     0.1682 H       
  27 H27            2.6921     4.9757    -0.4141 H       
  28 H28            2.3063     0.0861     0.1319 H       
  29 H29           -0.1693     4.4827     0.7039 H       
  30 H30            0.3193     5.0445    -0.9129 H       
  31 H31           -0.6900     3.5882    -0.7442 H       
  32 H32            4.0304    -0.6237     1.0758 H       
  33 H33            4.0101    -0.8163    -0.6936 H       
  34 H34            5.5485    -0.9216     0.1955 H       
  35 H35            4.4994     5.4050    -1.3771 H       
  36 H36            4.5194     5.5982     0.3922 H       
  37 H37            6.0503     5.4611    -0.5054 H       
@<TRIPOS>BOND
   1    1    2 am
   2    1   14 1
   3    1   25 1
   4    2    3 2
   5    2    4 am
   6    4    6 1
   7    4   26 1
   8    5    6 1
   9    5    9 1
  10    6    7 2
  11    7    8 1
  12    8    9 2
  13    9   10 1
  14   10   11 1
  15   10   12 1
  16   10   13 1
  17   14   15 ar
  18   14   19 ar
  19   15   16 ar
  20   15   20 1
  21   16   17 ar
  22   16   27 1
  23   17   18 ar
  24   17   23 1
  25   18   19 ar
  26   18   21 1
  27   19   28 1
  28   20   29 1
  29   20   30 1
  30   20   31 1
  31   21   22 1
  32   22   32 1
  33   22   33 1
  34   22   34 1
  35   23   24 1
  36   24   35 1
  37   24   36 1
  38   24   37 1

#	End of record

