#	Name: ASD02190025
#	Creating user name:	WinNT
#	Creation time:	15. 06. 2019 20:18

#	Modifying user name:	WinNT
#	Modification time:	15. 06. 2019 20:18

#	Program:	/corina/corina34_cracker 3.40 0067  02.08.2006

@<TRIPOS>MOLECULE
ASD02190025
  49   51    0    0    0
SMALL
NO_CHARGES


@<TRIPOS>ATOM
   1 C1             0.4610     0.8090    -3.8239 C.ar    
   2 C2             2.4367    -0.0603    -2.7614 C.ar    
   3 C3             3.2240     0.6218    -3.6741 C.ar    
   4 C4             2.6329     1.4043    -4.6516 C.ar    
   5 C5            -3.0367    -0.8567     2.2120 C.3     
   6 C6             1.0519     0.0320    -2.8345 C.ar    
   7 F7            -0.8848     0.9009    -3.8978 F       
   8 C8             1.2534     1.4935    -4.7304 C.ar    
   9 F9             0.6797     2.2486    -5.6926 F       
  10 F10            4.5702     0.5325    -3.6036 F       
  11 F11            3.0142    -0.8151    -1.8012 F       
  12 N12            0.2532    -0.6563    -1.9126 N.pl3   
  13 C13            0.4311    -2.0237    -1.7221 C.2     
  14 N14           -0.3998    -2.6861    -0.9479 N.2     
  15 N15           -0.2456    -4.0595    -0.7383 N.pl3   
  16 C16           -0.9565    -4.9733     0.0069 C.2     
  17 C17           -2.1392    -4.7058     0.8235 C.2     
  18 N18           -2.7075    -3.4838     0.8066 N.am    
  19 C19           -3.8150    -3.1784     1.7157 C.3     
  20 C20           -4.1672    -1.6932     1.6095 C.3     
  21 O21           -4.3395    -1.3416     0.2352 O.3     
  22 C22           -5.4653    -1.4211     2.3723 C.3     
  23 O23           -5.7942    -0.0340     2.2731 O.3     
  24 O24           -2.6109    -5.5870     1.5189 O.2     
  25 C25           -0.3287    -6.1985    -0.1700 C.2     
  26 N26            0.7016    -6.0184    -0.9792 N.2     
  27 C27            0.7733    -4.7378    -1.3357 C.2     
  28 C28            1.6734    -4.0346    -2.1719 C.2     
  29 C29            1.4916    -2.6816    -2.3627 C.2     
  30 N30            2.7236    -4.7001    -2.7952 N.pl3   
  31 C31            3.6490    -3.9620    -3.6585 C.3     
  32 H32            3.2487     1.9357    -5.3621 H       
  33 H33           -2.0990    -1.0989     1.7118 H       
  34 H34           -3.2570     0.2023     2.0778 H       
  35 H35           -2.9485    -1.0775     3.2758 H       
  36 H36           -0.4239    -0.1802    -1.4069 H       
  37 H37           -2.3832    -2.8066     0.1925 H       
  38 H38           -4.6838    -3.7781     1.4443 H       
  39 H39           -3.5193    -3.4094     2.7390 H       
  40 H40           -5.0416    -1.8340    -0.2117 H       
  41 H41           -6.2707    -2.0171     1.9430 H       
  42 H42           -5.3338    -1.6893     3.4205 H       
  43 H43           -6.6078     0.2112     2.7346 H       
  44 H44           -0.6289    -7.1353     0.2758 H       
  45 H45            2.1659    -2.1290    -3.0001 H       
  46 H46            2.8434    -5.6529    -2.6584 H       
  47 H47            4.3998    -4.6457    -4.0548 H       
  48 H48            3.0961    -3.5120    -4.4830 H       
  49 H49            4.1396    -3.1793    -3.0800 H       
@<TRIPOS>BOND
   1    1    6 ar
   2    1    7 1
   3    1    8 ar
   4    2   11 1
   5    2    6 ar
   6    2    3 ar
   7    3    4 ar
   8    3   10 1
   9    4    8 ar
  10    4   32 1
  11    5   33 1
  12    5   34 1
  13    5   35 1
  14    5   20 1
  15    6   12 1
  16    8    9 1
  17   12   13 1
  18   12   36 1
  19   13   29 1
  20   13   14 2
  21   14   15 1
  22   15   27 1
  23   15   16 1
  24   16   25 2
  25   16   17 1
  26   17   18 am
  27   17   24 2
  28   18   37 1
  29   18   19 1
  30   19   38 1
  31   19   39 1
  32   19   20 1
  33   20   21 1
  34   20   22 1
  35   21   40 1
  36   22   41 1
  37   22   42 1
  38   22   23 1
  39   23   43 1
  40   25   26 1
  41   25   44 1
  42   26   27 2
  43   27   28 1
  44   28   30 1
  45   28   29 2
  46   29   45 1
  47   30   31 1
  48   30   46 1
  49   31   47 1
  50   31   48 1
  51   31   49 1

#	End of record

