#	Name: ASD03930202
#	Creating user name:	WinNT
#	Creation time:	15. 06. 2019 20:47

#	Modifying user name:	WinNT
#	Modification time:	15. 06. 2019 20:47

#	Program:	/corina/corina34_cracker 3.40 0067  02.08.2006

@<TRIPOS>MOLECULE
ASD03930202
  44   46    0    0    0
SMALL
NO_CHARGES


@<TRIPOS>ATOM
   1 C1            -0.0184     1.5028     0.0103 C.2     
   2 C2             2.4612     1.8835    -0.0110 C.3     
   3 N3             1.0607     2.3131     0.0044 N.pl3   
   4 C4             2.9281     1.7434    -1.4370 C.ar    
   5 C5             3.4931     2.8226    -2.0886 C.ar    
   6 C6             3.9232     2.6982    -3.3987 C.ar    
   7 C7             3.7869     1.4894    -4.0560 C.ar    
   8 C8             3.2205     0.4090    -3.4012 C.ar    
   9 C9             2.7966     0.5337    -2.0923 C.ar    
  10 C10            4.5646     3.7125    -4.3212 C.3     
  11 C11            5.2014     2.8814    -5.4552 C.3     
  12 C12            4.3274     1.6093    -5.4648 C.3     
  13 N13            5.1066     3.5880    -6.7351 N.am    
  14 S14            6.3263     3.4541    -7.8472 S.o2    
  15 O15            5.9077     4.2772    -8.9272 O.2     
  16 O16            7.5051     3.7532    -7.1121 O.2     
  17 C17            6.3056     1.7066    -8.3335 C.3     
  18 F18            5.0592     1.3907    -8.8848 F       
  19 F19            7.3074     1.4747    -9.2821 F       
  20 N20            0.6051     3.6378     0.0150 N.2     
  21 C21           -0.7031     3.6201     0.0269 C.2     
  22 C22           -1.1220     2.2856     0.0191 C.2     
  23 C23           -1.6031     4.8288     0.0410 C.3     
  24 F24           -0.8288     5.9881    -0.0760 F       
  25 F25           -2.4986     4.7559    -1.0314 F       
  26 F26           -2.3173     4.8644     1.2434 F       
  27 C27            0.0021    -0.0041     0.0020 C.3     
  28 O28           -1.3386    -0.4987     0.0122 O.3     
  29 F29            6.5343     0.9068    -7.2087 F       
  30 H30            3.0744     2.6251     0.5009 H       
  31 H31            2.5523     0.9234     0.4971 H       
  32 H32            3.5993     3.7664    -1.5746 H       
  33 H33            3.1134    -0.5354    -3.9140 H       
  34 H34            2.3554    -0.3111    -1.5842 H       
  35 H35            3.8097     4.3872    -4.7249 H       
  36 H36            5.3310     4.2762    -3.7892 H       
  37 H37            6.2378     2.6376    -5.2219 H       
  38 H38            4.9318     0.7370    -5.7135 H       
  39 H39            3.5086     1.7183    -6.1760 H       
  40 H40            4.3293     4.1342    -6.9311 H       
  41 H41           -2.1455     1.9409     0.0255 H       
  42 H42            0.5123    -0.3556    -0.8948 H       
  43 H43            0.5293    -0.3651     0.8851 H       
  44 H44           -1.4018    -1.4636     0.0076 H       
@<TRIPOS>BOND
   1    1   27 1
   2    1    3 1
   3    1   22 2
   4    2    3 1
   5    2    4 1
   6    2   30 1
   7    2   31 1
   8    3   20 1
   9    4    5 ar
  10    4    9 ar
  11    5    6 ar
  12    5   32 1
  13    6    7 ar
  14    6   10 1
  15    7    8 ar
  16    7   12 1
  17    8    9 ar
  18    8   33 1
  19    9   34 1
  20   10   11 1
  21   10   35 1
  22   10   36 1
  23   11   12 1
  24   11   13 1
  25   11   37 1
  26   12   38 1
  27   12   39 1
  28   13   14 am
  29   13   40 1
  30   14   15 2
  31   14   16 2
  32   14   17 1
  33   17   18 1
  34   17   19 1
  35   17   29 1
  36   20   21 2
  37   21   22 1
  38   21   23 1
  39   22   41 1
  40   23   24 1
  41   23   25 1
  42   23   26 1
  43   27   28 1
  44   27   42 1
  45   27   43 1
  46   28   44 1

#	End of record

