#	Name: ASD01120252
#	Creating user name:	WinNT
#	Creation time:	15. 06. 2019 18:59

#	Modifying user name:	WinNT
#	Modification time:	15. 06. 2019 18:59

#	Program:	/corina/corina34_cracker 3.40 0067  02.08.2006

@<TRIPOS>MOLECULE
ASD01120252
  59   60    0    0    0
SMALL
NO_CHARGES


@<TRIPOS>ATOM
   1 C1            -0.0167     1.3779     0.0096 C.ar    
   2 C2             0.0021    -0.0041     0.0020 C.ar    
   3 C3            -1.1857    -0.7116     0.0095 C.ar    
   4 C4            -2.3919    -0.0369     0.0251 C.ar    
   5 C5            -2.4106     1.3455     0.0336 C.ar    
   6 C6            -1.2232     2.0528     0.0305 C.ar    
   7 S7            -3.9483     2.2057     0.0529 S.o2    
   8 N8            -4.3616     2.4354     1.6399 N.am    
   9 C9            -3.6009     3.2212     2.4274 C.2     
  10 N10           -3.9372     3.4082     3.7191 N.am    
  11 O11           -3.6934     3.4955    -0.4862 O.2     
  12 O12           -4.9136     1.3142    -0.4882 O.2     
  13 O13           -2.6111     3.7615     1.9726 O.2     
  14 C14           -2.7726    -4.5375     7.6398 C.ar    
  15 C15           -1.9353    -4.9028     6.6027 C.ar    
  16 C16           -0.6729    -4.3474     6.5051 C.ar    
  17 C17           -0.2483    -3.4269     7.4446 C.ar    
  18 C18           -1.0860    -3.0615     8.4821 C.ar    
  19 C19           -2.3500    -3.6124     8.5765 C.ar    
  20 S20           -0.5447    -1.8881     9.6799 S.o2    
  21 N21           -0.9788    -0.3883     9.1278 N.am    
  22 C22           -2.2818    -0.0675     9.0026 C.2     
  23 N23           -2.6350     1.1531     8.5533 N.am    
  24 O24           -1.3161    -2.1238    10.8497 O.2     
  25 O25            0.8757    -1.9255     9.6649 O.2     
  26 O26           -3.1385    -0.8791     9.2950 O.2     
  27 C27           -4.1486    -5.1429     7.7463 C.3     
  28 C28            1.2780     2.1491     0.0014 C.3     
  29 C29           -4.0514     1.5019     8.4172 C.3     
  30 C30           -4.1759     2.9335     7.8920 C.3     
  31 O31           -3.6404     3.0037     6.5689 O.3     
  32 C32           -3.7082     4.3052     5.9828 C.3     
  33 C33           -3.1103     4.2624     4.5751 C.3     
  34 H34            0.9446    -0.5313    -0.0101 H       
  35 H35           -1.1711    -1.7915     0.0029 H       
  36 H36           -3.3198    -0.5895     0.0302 H       
  37 H37           -1.2378     3.1327     0.0372 H       
  38 H38           -5.1512     2.0044     2.0027 H       
  39 H39           -4.7269     2.9772     4.0819 H       
  40 H40           -2.2669    -5.6223     5.8687 H       
  41 H41           -0.0184    -4.6334     5.6950 H       
  42 H42            0.7380    -2.9936     7.3688 H       
  43 H43           -3.0044    -3.3270     9.3869 H       
  44 H44           -0.2952     0.2592     8.8946 H       
  45 H45           -1.9515     1.8006     8.3201 H       
  46 H46           -4.1005    -6.0510     8.3471 H       
  47 H47           -4.8237    -4.4297     8.2192 H       
  48 H48           -4.5168    -5.3857     6.7495 H       
  49 H49            1.5804     2.3405    -1.0282 H       
  50 H50            1.1397     3.0969     0.5217 H       
  51 H51            2.0505     1.5677     0.5048 H       
  52 H52           -4.5290     0.8155     7.7180 H       
  53 H53           -4.5388     1.4279     9.3893 H       
  54 H54           -5.2263     3.2241     7.8747 H       
  55 H55           -3.6226     3.6092     8.5442 H       
  56 H56           -4.7489     4.6243     5.9259 H       
  57 H57           -3.1453     5.0094     6.5954 H       
  58 H58           -2.0987     3.8591     4.6222 H       
  59 H59           -3.0806     5.2707     4.1621 H       
@<TRIPOS>BOND
   1    1    2 ar
   2    1   28 1
   3    1    6 ar
   4    2    3 ar
   5    2   34 1
   6    3    4 ar
   7    3   35 1
   8    4    5 ar
   9    4   36 1
  10    5    6 ar
  11    5    7 1
  12    6   37 1
  13    7    8 am
  14    7   11 2
  15    7   12 2
  16    8    9 am
  17    8   38 1
  18    9   10 am
  19    9   13 2
  20   10   33 1
  21   10   39 1
  22   14   15 ar
  23   14   27 1
  24   14   19 ar
  25   15   16 ar
  26   15   40 1
  27   16   17 ar
  28   16   41 1
  29   17   18 ar
  30   17   42 1
  31   18   19 ar
  32   18   20 1
  33   19   43 1
  34   20   21 am
  35   20   24 2
  36   20   25 2
  37   21   22 am
  38   21   44 1
  39   22   23 am
  40   22   26 2
  41   23   29 1
  42   23   45 1
  43   27   46 1
  44   27   47 1
  45   27   48 1
  46   28   49 1
  47   28   50 1
  48   28   51 1
  49   29   30 1
  50   29   52 1
  51   29   53 1
  52   30   31 1
  53   30   54 1
  54   30   55 1
  55   31   32 1
  56   32   33 1
  57   32   56 1
  58   32   57 1
  59   33   58 1
  60   33   59 1

#	End of record

