#	Name: ASD04590453
#	Creating user name:	WinNT
#	Creation time:	15. 06. 2019 20:50

#	Modifying user name:	WinNT
#	Modification time:	15. 06. 2019 20:50

#	Program:	/corina/corina34_cracker 3.40 0067  02.08.2006

@<TRIPOS>MOLECULE
ASD04590453
  57   61    0    0    0
SMALL
NO_CHARGES


@<TRIPOS>ATOM
   1 C1            -0.1203     1.4549    -0.5856 C.ar    
   2 C2            -0.0844     0.0591    -0.5579 C.ar    
   3 C3            -2.4803     0.0000    -0.3737 C.ar    
   4 C4            -2.5094     1.4049    -0.3905 C.ar    
   5 C5            -1.3269     2.1234    -0.5023 C.ar    
   6 N6            -3.7625    -0.4266    -0.2573 N.2     
   7 C7            -4.5676     0.6065    -0.2021 C.2     
   8 N8            -3.8407     1.7647    -0.2807 N.pl3   
   9 C9            -6.0378     0.5326    -0.0751 C.2     
  10 C10           -6.8068    -0.6515     0.0072 C.2     
  11 C11           -8.1096    -0.2915     0.1138 C.2     
  12 N12           -8.1690     1.0659     0.1002 N.pl3   
  13 N13           -6.8630     1.5590    -0.0128 N.2     
  14 N14           -6.3104    -1.9640    -0.0180 N.am    
  15 C15           -7.1592    -3.0073     0.0692 C.2     
  16 O16           -8.3543    -2.8115     0.1696 O.2     
  17 C17           -6.6347    -4.3939     0.0427 C.ar    
  18 C18           -1.2521    -0.6664    -0.4529 C.ar    
  19 N19           -6.2343    -4.9343    -1.1033 N.ar    
  20 O20            1.1095    -0.5885    -0.6354 O.3     
  21 C21            1.0764    -2.0167    -0.6017 C.3     
  22 O22            1.0383     2.1598    -0.6894 O.3     
  23 C23            0.9310     3.5846    -0.7123 C.3     
  24 C24           -5.7679    -6.1675    -1.1234 C.ar    
  25 C25           -5.6926    -6.9091     0.0507 C.ar    
  26 N26           -6.0861    -6.3859     1.1942 N.ar    
  27 C27           -6.5534    -5.1406     1.2300 C.ar    
  28 C28           -6.9951    -4.5502     2.5096 C.2     
  29 O29           -7.3217    -3.3879     2.5578 O.2     
  30 C30           -7.0385    -5.3973     3.7552 C.3     
  31 C31           -7.5200    -4.5627     4.9139 C.ar    
  32 C32           -8.8710    -4.4872     5.1969 C.ar    
  33 C33           -6.6103    -3.8772     5.6971 C.ar    
  34 C34           -7.0520    -3.1116     6.7599 C.ar    
  35 C35           -8.4035    -3.0312     7.0393 C.ar    
  36 C36           -9.3127    -3.7215     6.2598 C.ar    
  37 H37           -1.3498     3.2030    -0.5238 H       
  38 H38           -4.1933     2.6682    -0.2621 H       
  39 H39           -8.9507    -0.9641     0.1946 H       
  40 H40           -8.9758     1.6008     0.1614 H       
  41 H41           -5.3564    -2.1203    -0.0981 H       
  42 H42           -1.2192    -1.7457    -0.4322 H       
  43 H43            0.6238    -2.3476     0.3331 H       
  44 H44            0.4876    -2.3864    -1.4412 H       
  45 H45            2.0923    -2.4055    -0.6711 H       
  46 H46            0.4606     3.9284     0.2089 H       
  47 H47            1.9255     4.0225    -0.7978 H       
  48 H48            0.3251     3.8896    -1.5655 H       
  49 H49           -5.4432    -6.6040    -2.0564 H       
  50 H50           -5.3100    -7.9187     0.0250 H       
  51 H51           -7.7201    -6.2340     3.6020 H       
  52 H52           -6.0399    -5.7772     3.9712 H       
  53 H53           -9.5814    -5.0260     4.5875 H       
  54 H54           -5.5545    -3.9401     5.4788 H       
  55 H55           -6.3412    -2.5766     7.3722 H       
  56 H56           -8.7485    -2.4333     7.8699 H       
  57 H57          -10.3685    -3.6587     6.4780 H       
@<TRIPOS>BOND
   1    1    2 ar
   2    1   22 1
   3    1    5 ar
   4    2   18 ar
   5    2   20 1
   6    3    4 ar
   7    3    6 1
   8    3   18 ar
   9    4    5 ar
  10    4    8 1
  11    5   37 1
  12    6    7 2
  13    7    8 1
  14    7    9 1
  15    8   38 1
  16    9   10 1
  17    9   13 2
  18   10   11 2
  19   10   14 1
  20   11   12 1
  21   11   39 1
  22   12   13 1
  23   12   40 1
  24   14   15 am
  25   14   41 1
  26   15   16 2
  27   15   17 1
  28   17   19 ar
  29   17   27 ar
  30   18   42 1
  31   19   24 ar
  32   20   21 1
  33   21   43 1
  34   21   44 1
  35   21   45 1
  36   22   23 1
  37   23   46 1
  38   23   47 1
  39   23   48 1
  40   24   25 ar
  41   24   49 1
  42   25   26 ar
  43   25   50 1
  44   26   27 ar
  45   27   28 1
  46   28   29 2
  47   28   30 1
  48   30   31 1
  49   30   51 1
  50   30   52 1
  51   31   32 ar
  52   31   33 ar
  53   32   36 ar
  54   32   53 1
  55   33   34 ar
  56   33   54 1
  57   34   35 ar
  58   34   55 1
  59   35   36 ar
  60   35   56 1
  61   36   57 1

#	End of record

