#	Name: ASD00311328
#	Creating user name:	WinNT
#	Creation time:	15. 06. 2019 18:34

#	Modifying user name:	WinNT
#	Modification time:	15. 06. 2019 18:34

#	Program:	/corina/corina34_cracker 3.40 0067  02.08.2006

@<TRIPOS>MOLECULE
ASD00311328
  64   69    0    0    0
SMALL
NO_CHARGES


@<TRIPOS>ATOM
   1 C1            -0.0167     1.3778     0.0096 C.2     
   2 C2             0.0021    -0.0041     0.0020 C.2     
   3 C3             1.2589    -0.6766    -0.0139 C.2     
   4 C4             2.4316     0.0673    -0.0214 C.2     
   5 C5             2.3574     1.4753    -0.0131 C.2     
   6 N6             1.1648     2.0904     0.0022 N.am    
   7 C7            -1.3431    -0.5750     0.0126 C.2     
   8 C8            -2.3223     0.3256     0.0274 C.2     
   9 S9            -1.6794     1.9560     0.0358 S.3     
  10 O10            3.3822     2.1374    -0.0196 O.2     
  11 C11            3.7477    -0.6119    -0.0375 C.ar    
  12 C12            4.5932    -0.4744    -1.1382 C.ar    
  13 C13            5.8180    -1.1097    -1.1473 C.ar    
  14 C14            6.2081    -1.8817    -0.0675 C.ar    
  15 C15            5.3739    -2.0218     1.0272 C.ar    
  16 C16            4.1490    -1.3868     1.0505 C.ar    
  17 O17            1.3089    -2.0291    -0.0212 O.3     
  18 C18           -1.5955    -2.0355     0.0069 C.ar    
  19 C19           -2.4688    -2.5971     0.9367 C.ar    
  20 C20           -2.7028    -3.9625     0.9281 C.ar    
  21 C21           -2.0690    -4.7707    -0.0045 C.ar    
  22 C22           -1.1991    -4.2151    -0.9314 C.ar    
  23 C23           -0.9645    -2.8497    -0.9320 C.ar    
  24 O24           -0.5799    -5.0105    -1.8429 O.3     
  25 C25           -0.8715    -6.4084    -1.7884 C.3     
  26 C26           -0.0998    -7.1249    -2.8664 C.ar    
  27 C27            1.1657    -7.6141    -2.6016 C.ar    
  28 C28            1.8736    -8.2713    -3.5905 C.ar    
  29 C29            1.3158    -8.4397    -4.8440 C.ar    
  30 C30            0.0500    -7.9514    -5.1086 C.ar    
  31 C31           -0.6597    -7.2979    -4.1184 C.ar    
  32 O32           -3.5539    -4.5110     1.8347 O.3     
  33 C33           -3.7487    -5.9251     1.7688 C.3     
  34 C34           -4.7171    -6.3493     2.8427 C.ar    
  35 C35           -6.0732    -6.3829     2.5765 C.ar    
  36 C36           -6.9615    -6.7720     3.5616 C.ar    
  37 C37           -6.4937    -7.1280     4.8127 C.ar    
  38 C38           -5.1375    -7.0953     5.0786 C.ar    
  39 C39           -4.2489    -6.7103     4.0922 C.ar    
  40 H40            1.1326     3.0598     0.0073 H       
  41 H41           -3.3749     0.0838     0.0362 H       
  42 H42            4.2896     0.1277    -1.9818 H       
  43 H43            6.4735    -1.0043    -1.9992 H       
  44 H44            7.1676    -2.3772    -0.0794 H       
  45 H45            5.6838    -2.6258     1.8671 H       
  46 H46            3.5005    -1.4934     1.9075 H       
  47 H47            2.2062    -2.3895    -0.0320 H       
  48 H48           -2.9623    -1.9686     1.6632 H       
  49 H49           -2.2529    -5.8349    -0.0087 H       
  50 H50           -0.2907    -2.4172    -1.6567 H       
  51 H51           -0.5841    -6.8017    -0.8133 H       
  52 H52           -1.9394    -6.5630    -1.9422 H       
  53 H53            1.6015    -7.4825    -1.6222 H       
  54 H54            2.8626    -8.6528    -3.3838 H       
  55 H55            1.8692    -8.9526    -5.6168 H       
  56 H56           -0.3857    -8.0827    -6.0880 H       
  57 H57           -1.6501    -6.9196    -4.3240 H       
  58 H58           -4.1507    -6.1913     0.7912 H       
  59 H59           -2.7949    -6.4307     1.9193 H       
  60 H60           -6.4387    -6.1048     1.5990 H       
  61 H61           -8.0210    -6.7975     3.3538 H       
  62 H62           -7.1877    -7.4313     5.5826 H       
  63 H63           -4.7721    -7.3730     6.0562 H       
  64 H64           -3.1890    -6.6883     4.2988 H       
@<TRIPOS>BOND
   1    1    2 2
   2    1    6 1
   3    1    9 1
   4    2    3 1
   5    2    7 1
   6    3    4 2
   7    3   17 1
   8    4    5 1
   9    4   11 1
  10    5    6 am
  11    5   10 2
  12    6   40 1
  13    7    8 2
  14    7   18 1
  15    8    9 1
  16    8   41 1
  17   11   12 ar
  18   11   16 ar
  19   12   13 ar
  20   12   42 1
  21   13   14 ar
  22   13   43 1
  23   14   15 ar
  24   14   44 1
  25   15   16 ar
  26   15   45 1
  27   16   46 1
  28   17   47 1
  29   18   19 ar
  30   18   23 ar
  31   19   20 ar
  32   19   48 1
  33   20   21 ar
  34   20   32 1
  35   21   22 ar
  36   21   49 1
  37   22   23 ar
  38   22   24 1
  39   23   50 1
  40   24   25 1
  41   25   26 1
  42   25   51 1
  43   25   52 1
  44   26   27 ar
  45   26   31 ar
  46   27   28 ar
  47   27   53 1
  48   28   29 ar
  49   28   54 1
  50   29   30 ar
  51   29   55 1
  52   30   31 ar
  53   30   56 1
  54   31   57 1
  55   32   33 1
  56   33   34 1
  57   33   58 1
  58   33   59 1
  59   34   35 ar
  60   34   39 ar
  61   35   36 ar
  62   35   60 1
  63   36   37 ar
  64   36   61 1
  65   37   38 ar
  66   37   62 1
  67   38   39 ar
  68   38   63 1
  69   39   64 1

#	End of record

