#	Name: ASD04881337
#	Creating user name:	WinNT
#	Creation time:	15. 06. 2019 20:53

#	Modifying user name:	WinNT
#	Modification time:	15. 06. 2019 20:53

#	Program:	/corina/corina34_cracker 3.40 0067  02.08.2006

@<TRIPOS>MOLECULE
ASD04881337
  76   81    0    0    0
SMALL
NO_CHARGES


@<TRIPOS>ATOM
   1 C1             0.1965     1.3736    -0.0634 C.ar    
   2 C2            -0.0284    -0.0043    -0.0016 C.ar    
   3 C3             1.0442    -0.8880    -0.0390 C.ar    
   4 C4             2.3317    -0.4092    -0.1373 C.ar    
   5 C5             2.5637     0.9677    -0.1995 C.ar    
   6 C6             1.4871     1.8582    -0.1621 C.ar    
   7 N7            -0.8858     2.2629    -0.0310 N.am    
   8 C8            -0.7544     3.4628     0.5685 C.2     
   9 O9             0.2671     3.7331     1.1708 O.2     
  10 C10           -1.8487     4.4476     0.4942 C.2     
  11 C11           -1.8563     5.6912     1.0473 C.2     
  12 O12           -3.0382     6.2490     0.7397 O.3     
  13 C13           -3.7414     5.3683     0.0139 C.2     
  14 N14           -3.0390     4.2867    -0.1452 N.2     
  15 N15           -1.3286    -0.4928     0.0978 N.3     
  16 C16           -1.9353    -0.1176     1.3827 C.3     
  17 C17           -3.3862    -0.6034     1.4199 C.3     
  18 N18           -3.4171    -2.0605     1.2317 N.3     
  19 C19           -2.8105    -2.4358    -0.0531 C.3     
  20 C20           -1.3596    -1.9500    -0.0903 C.3     
  21 C21           -4.7095    -2.5461     1.3306 C.ar    
  22 C22           -5.1257     5.5982    -0.5354 C.3     
  23 C23           -6.2450     5.8856     0.4674 C.3     
  24 C24           -5.7061     7.0092    -0.4203 C.3     
  25 C25            3.9431     1.4804    -0.3039 C.2     
  26 N26            4.9806     0.6208    -0.3393 N.am    
  27 O27            4.1440     2.6784    -0.3579 O.2     
  28 C28            6.3504     1.1300    -0.4430 C.3     
  29 C29            7.3308    -0.0445    -0.4640 C.3     
  30 C30            8.7613     0.4872    -0.5722 C.3     
  31 N31            9.7000    -0.6374    -0.5924 N.am    
  32 C32           10.1168    -1.2575    -1.7097 C.2     
  33 C33           11.0719    -2.3768    -1.3581 C.3     
  34 C34           10.8461    -2.6070     0.1541 C.3     
  35 C35           10.3110    -1.2275     0.6045 C.3     
  36 O36            9.7765    -0.9628    -2.8359 O.2     
  37 C37           -4.9497    -3.8020     1.9148 C.ar    
  38 N38           -6.1958    -4.2582     2.0049 N.ar    
  39 C39           -7.1978    -3.5333     1.5475 C.ar    
  40 C40           -6.9608    -2.2953     0.9711 C.ar    
  41 N41           -5.7289    -1.8261     0.8795 N.ar    
  42 C42           -3.8585    -4.5862     2.4098 C.1     
  43 N43           -2.9928    -5.2082     2.8024 N.1     
  44 H44            0.8674    -1.9523     0.0097 H       
  45 H45            3.1629    -1.0982    -0.1661 H       
  46 H46            1.6633     2.9227    -0.2104 H       
  47 H47           -1.7297     2.0150    -0.4401 H       
  48 H48           -1.0628     6.1432     1.6238 H       
  49 H49           -1.3765    -0.5785     2.1971 H       
  50 H50           -1.9119     0.9665     1.4930 H       
  51 H51           -3.8294    -0.3516     2.3834 H       
  52 H52           -3.9516    -0.1216     0.6221 H       
  53 H53           -2.8339    -3.5199    -0.1635 H       
  54 H54           -3.3693    -1.9748    -0.8675 H       
  55 H55           -0.9164    -2.2018    -1.0538 H       
  56 H56           -0.7942    -2.4317     0.7074 H       
  57 H57           -5.3815     5.0193    -1.4229 H       
  58 H58           -7.2371     5.4961     0.2395 H       
  59 H59           -5.9800     5.9083     1.5244 H       
  60 H60           -5.0866     7.7711     0.0527 H       
  61 H61           -6.3437     7.3589    -1.2322 H       
  62 H62            4.8204    -0.3349    -0.2962 H       
  63 H63            6.4550     1.7070    -1.3618 H       
  64 H64            6.5665     1.7684     0.4136 H       
  65 H65            7.2262    -0.6216     0.4548 H       
  66 H66            7.1146    -0.6829    -1.3206 H       
  67 H67            8.8659     1.0643    -1.4910 H       
  68 H68            8.9774     1.1256     0.2844 H       
  69 H69           10.8281    -3.2774    -1.9217 H       
  70 H70           12.1015    -2.0737    -1.5483 H       
  71 H71           10.1075    -3.3905     0.3235 H       
  72 H72           11.7840    -2.8418     0.6573 H       
  73 H73           11.1288    -0.6001     0.9589 H       
  74 H74            9.5631    -1.3517     1.3876 H       
  75 H75           -8.2086    -3.9064     1.6220 H       
  76 H76           -7.7879    -1.7089     0.5990 H       
@<TRIPOS>BOND
   1    1    2 ar
   2    1    6 ar
   3    1    7 1
   4    2    3 ar
   5    2   15 1
   6    3    4 ar
   7    3   44 1
   8    4    5 ar
   9    4   45 1
  10    5    6 ar
  11    5   25 1
  12    6   46 1
  13    7    8 am
  14    7   47 1
  15    8    9 2
  16    8   10 1
  17   10   11 2
  18   10   14 1
  19   11   12 1
  20   11   48 1
  21   12   13 1
  22   13   14 2
  23   13   22 1
  24   15   16 1
  25   15   20 1
  26   16   17 1
  27   16   49 1
  28   16   50 1
  29   17   18 1
  30   17   51 1
  31   17   52 1
  32   18   19 1
  33   18   21 1
  34   19   20 1
  35   19   53 1
  36   19   54 1
  37   20   55 1
  38   20   56 1
  39   21   41 ar
  40   21   37 ar
  41   22   23 1
  42   22   24 1
  43   22   57 1
  44   23   24 1
  45   23   58 1
  46   23   59 1
  47   24   60 1
  48   24   61 1
  49   25   26 am
  50   25   27 2
  51   26   28 1
  52   26   62 1
  53   28   29 1
  54   28   63 1
  55   28   64 1
  56   29   30 1
  57   29   65 1
  58   29   66 1
  59   30   31 1
  60   30   67 1
  61   30   68 1
  62   31   32 am
  63   31   35 1
  64   32   33 1
  65   32   36 2
  66   33   34 1
  67   33   69 1
  68   33   70 1
  69   34   35 1
  70   34   71 1
  71   34   72 1
  72   35   73 1
  73   35   74 1
  74   37   38 ar
  75   37   42 1
  76   38   39 ar
  77   39   40 ar
  78   39   75 1
  79   40   41 ar
  80   40   76 1
  81   42   43 3

#	End of record

