#	Name: ASD01884179
#	Creating user name:	WinNT
#	Creation time:	15. 06. 2019 19:47

#	Modifying user name:	WinNT
#	Modification time:	15. 06. 2019 19:47

#	Program:	/corina/corina34_cracker 3.40 0067  02.08.2006

@<TRIPOS>MOLECULE
ASD01884179
  24   26    0    0    0
SMALL
NO_CHARGES


@<TRIPOS>ATOM
   1 Cl1            0.0021    -0.0041     0.0020 Cl      
   2 C2            -0.0215     1.7317     0.0116 C.ar    
   3 C3             1.1689     2.4368     0.0040 C.ar    
   4 C4             1.1508     3.8177     0.0116 C.ar    
   5 C5            -0.0847     4.4845     0.0270 C.ar    
   6 C6            -1.2349     3.6919     0.0337 C.ar    
   7 N7            -1.1752     2.3733     0.0205 N.ar    
   8 N8            -0.3227     5.8464     0.0361 N.am    
   9 C9            -1.5892     6.2736     0.0501 C.2     
  10 S10           -2.5999     4.8189     0.0522 S.3     
  11 C11            0.7890     6.8005     0.0310 C.3     
  12 C12            1.1631     7.1400    -1.4132 C.3     
  13 C13            2.2301     8.2144    -1.6326 C.3     
  14 O14           -1.9710     7.4292     0.0601 O.2     
  15 C15            2.5608     6.7434    -1.8928 C.3     
  16 H16            2.1107     1.9082    -0.0075 H       
  17 H17            2.0746     4.3772     0.0061 H       
  18 H18            0.4898     7.7098     0.5523 H       
  19 H19            1.6489     6.3591     0.5349 H       
  20 H20            0.3484     7.0850    -2.1352 H       
  21 H21            2.1176     8.8659    -2.4992 H       
  22 H22            2.6656     8.6793    -0.7481 H       
  23 H23            3.2138     6.2406    -1.1795 H       
  24 H24            2.6658     6.4271    -2.9306 H       
@<TRIPOS>BOND
   1    1    2 1
   2    2    3 ar
   3    2    7 ar
   4    3    4 ar
   5    3   16 1
   6    4    5 ar
   7    4   17 1
   8    5    6 ar
   9    5    8 1
  10    6    7 ar
  11    6   10 1
  12    8    9 am
  13    8   11 1
  14    9   10 1
  15    9   14 2
  16   11   12 1
  17   11   18 1
  18   11   19 1
  19   12   13 1
  20   12   15 1
  21   12   20 1
  22   13   15 1
  23   13   21 1
  24   13   22 1
  25   15   23 1
  26   15   24 1

#	End of record

