#	Name: ASD02500709
#	Creating user name:	WinNT
#	Creation time:	15. 06. 2019 20:23

#	Modifying user name:	WinNT
#	Modification time:	15. 06. 2019 20:23

#	Program:	/corina/corina34_cracker 3.40 0067  02.08.2006

@<TRIPOS>MOLECULE
ASD02500709
  66   70    0    0    0
SMALL
NO_CHARGES


@<TRIPOS>ATOM
   1 N1            -5.1514     4.7602     0.7904 N.ar    
   2 C2            -6.3808     5.2146     0.7707 C.ar    
   3 C3            -7.3237     4.8197     1.7175 C.ar    
   4 C4            -6.9754     3.9361     2.6989 C.ar    
   5 C5            -5.6544     3.4498     2.7167 C.ar    
   6 C6            -5.2233     2.5398     3.6948 C.ar    
   7 C7            -3.9371     2.0930     3.6781 C.ar    
   8 C8            -3.0420     2.5276     2.7030 C.ar    
   9 C9            -3.4262     3.4093     1.7399 C.ar    
  10 C10           -4.7458     3.8933     1.7237 C.ar    
  11 S11           -2.2735     3.9429     0.5187 S.o2    
  12 O12           -2.3683     5.3598     0.4694 O.2     
  13 O13           -1.0595     3.2539     0.7847 O.2     
  14 N14           -2.8160     3.3867    -0.9437 N.am    
  15 C15           -2.8406     2.0182    -1.2028 C.ar    
  16 C16           -2.5856     1.5484    -2.4930 C.ar    
  17 C17           -2.6097     0.1929    -2.7505 C.ar    
  18 C18           -2.8897    -0.7074    -1.7176 C.ar    
  19 C19           -3.1439    -0.2314    -0.4289 C.ar    
  20 C20           -3.1131     1.1223    -0.1756 C.ar    
  21 C21           -2.9169    -2.1573    -1.9884 C.2     
  22 O22           -3.4151    -2.5745    -3.0162 O.2     
  23 N23           -2.3897    -3.0195    -1.0967 N.am    
  24 C24           -2.3247    -4.4599    -1.3869 C.3     
  25 C25           -0.8908    -4.9417    -1.1414 C.3     
  26 N26           -0.4756    -4.5620     0.2155 N.3     
  27 C27           -0.4483    -3.1020     0.3756 C.3     
  28 C28           -1.8585    -2.5441     0.1898 C.3     
  29 C29            0.8264    -5.1530     0.5524 C.3     
  30 O30            0.4196    -4.7662     2.9294 O.3     
  31 C31            1.3487    -4.5309     1.8490 C.3     
  32 C32            2.6541    -5.2280     2.2921 C.3     
  33 C33            2.5492    -5.2769     3.8329 C.3     
  34 C34            1.1929    -4.6036     4.1383 C.3     
  35 O35           -2.3141     2.4266    -3.4955 O.3     
  36 C36           -2.0630     1.8759    -4.7900 C.3     
  37 H37           -6.6704     5.9140     0.0004 H       
  38 H38           -8.3289     5.2122     1.6755 H       
  39 H39           -7.6934     3.6195     3.4410 H       
  40 H40           -5.9078     2.1962     4.4563 H       
  41 H41           -3.6063     1.3929     4.4310 H       
  42 H42           -2.0269     2.1592     2.7115 H       
  43 H43           -3.1168     4.0138    -1.6198 H       
  44 H44           -2.4131    -0.1719    -3.7478 H       
  45 H45           -3.3603    -0.9253     0.3700 H       
  46 H46           -3.3055     1.4885     0.8220 H       
  47 H47           -3.0089    -4.9970    -0.7300 H       
  48 H48           -2.5972    -4.6365    -2.4274 H       
  49 H49           -0.8487    -6.0260    -1.2447 H       
  50 H50           -0.2226    -4.4804    -1.8687 H       
  51 H51           -0.0853    -2.8522     1.3725 H       
  52 H52            0.2137    -2.6664    -0.3728 H       
  53 H53           -1.8229    -1.4547     0.1912 H       
  54 H54           -2.4970    -2.8935     1.0011 H       
  55 H55            0.7136    -6.2290     0.6853 H       
  56 H56            1.5332    -4.9587    -0.2543 H       
  57 H57            1.5136    -3.4617     1.7164 H       
  58 H58            2.7075    -6.2360     1.8807 H       
  59 H59            3.5219    -4.6434     1.9867 H       
  60 H60            2.5508    -6.3091     4.1832 H       
  61 H61            3.3652    -4.7165     4.2892 H       
  62 H62            1.3354    -3.5456     4.3582 H       
  63 H63            0.7010    -5.1026     4.9733 H       
  64 H64           -1.8610     2.6824    -5.4949 H       
  65 H65           -1.2004     1.2114    -4.7411 H       
  66 H66           -2.9362     1.3139    -5.1214 H       
@<TRIPOS>BOND
   1    1    2 ar
   2    1   10 ar
   3    2    3 ar
   4    2   37 1
   5    3    4 ar
   6    3   38 1
   7    4    5 ar
   8    4   39 1
   9    5    6 ar
  10    5   10 ar
  11    6    7 ar
  12    6   40 1
  13    7    8 ar
  14    7   41 1
  15    8    9 ar
  16    8   42 1
  17    9   10 ar
  18    9   11 1
  19   11   12 2
  20   11   13 2
  21   11   14 am
  22   14   15 1
  23   14   43 1
  24   15   16 ar
  25   15   20 ar
  26   16   17 ar
  27   16   35 1
  28   17   18 ar
  29   17   44 1
  30   18   19 ar
  31   18   21 1
  32   19   20 ar
  33   19   45 1
  34   20   46 1
  35   21   22 2
  36   21   23 am
  37   23   24 1
  38   23   28 1
  39   24   25 1
  40   24   47 1
  41   24   48 1
  42   25   26 1
  43   25   49 1
  44   25   50 1
  45   26   27 1
  46   26   29 1
  47   27   28 1
  48   27   51 1
  49   27   52 1
  50   28   53 1
  51   28   54 1
  52   29   31 1
  53   29   55 1
  54   29   56 1
  55   30   31 1
  56   30   34 1
  57   31   32 1
  58   31   57 1
  59   32   33 1
  60   32   58 1
  61   32   59 1
  62   33   34 1
  63   33   60 1
  64   33   61 1
  65   34   62 1
  66   34   63 1
  67   35   36 1
  68   36   64 1
  69   36   65 1
  70   36   66 1

#	End of record

