#	Name: ASD01917241
#	Creating user name:	WinNT
#	Creation time:	15. 06. 2019 20:08

#	Modifying user name:	WinNT
#	Modification time:	15. 06. 2019 20:08

#	Program:	/corina/corina34_cracker 3.40 0067  02.08.2006

@<TRIPOS>MOLECULE
ASD01917241
  40   43    0    0    0
SMALL
NO_CHARGES


@<TRIPOS>ATOM
   1 N1             0.1739     0.6351    -0.4937 N.ar    
   2 C2             0.3338    -0.6618    -0.3170 C.ar    
   3 C3             1.5900    -1.1962    -0.0999 C.ar    
   4 C4             2.6879    -0.3503    -0.0694 C.ar    
   5 C5             2.4803     1.0076    -0.2592 C.ar    
   6 C6             1.1952     1.4692    -0.4710 C.ar    
   7 C7             3.6416     1.9678    -0.2344 C.3     
   8 O8             4.1701     2.1103    -1.5544 O.3     
   9 C9             5.2304     2.9480    -1.7078 C.2     
  10 N10            5.8097     3.6364    -0.7459 N.2     
  11 N11            6.8479     4.3781    -1.2945 N.pl3   
  12 C12            6.8915     4.1027    -2.6429 C.2     
  13 C13            5.8909     3.2165    -2.9148 C.2     
  14 C14            7.7789     5.3182    -0.6678 C.3     
  15 C15            9.0977     5.3120    -1.4405 C.3     
  16 N16            8.9026     5.3951    -2.8836 N.am    
  17 C17            7.9107     4.7174    -3.5096 C.2     
  18 O18            7.8648     4.6215    -4.7213 O.2     
  19 C19            9.7630     6.1969    -3.6419 C.ar    
  20 C20           11.1009     5.8491    -3.7748 C.ar    
  21 C21           11.9484     6.6419    -4.5236 C.ar    
  22 C22           11.4649     7.7828    -5.1417 C.ar    
  23 C23           10.1313     8.1317    -5.0102 C.ar    
  24 C24            9.2790     7.3384    -4.2674 C.ar    
  25 F25           12.2956     8.5569    -5.8738 F       
  26 H26           -0.5267    -1.3139    -0.3418 H       
  27 H27            1.7145    -2.2592     0.0445 H       
  28 H28            3.6812    -0.7396     0.0986 H       
  29 H29            1.0252     2.5253    -0.6197 H       
  30 H30            3.3029     2.9383     0.1281 H       
  31 H31            4.4171     1.5830     0.4279 H       
  32 H32            5.6482     2.8029    -3.8824 H       
  33 H33            7.3512     6.3206    -0.6857 H       
  34 H34            7.9602     5.0175     0.3641 H       
  35 H35            9.6995     6.1614    -1.1170 H       
  36 H36            9.6367     4.3930    -1.2102 H       
  37 H37           11.4785     4.9595    -3.2926 H       
  38 H38           12.9890     6.3719    -4.6269 H       
  39 H39            9.7564     9.0221    -5.4928 H       
  40 H40            8.2390     7.6109    -4.1650 H       
@<TRIPOS>BOND
   1    1    2 ar
   2    1    6 ar
   3    2    3 ar
   4    2   26 1
   5    3    4 ar
   6    3   27 1
   7    4    5 ar
   8    4   28 1
   9    5    6 ar
  10    5    7 1
  11    6   29 1
  12    7    8 1
  13    7   30 1
  14    7   31 1
  15    8    9 1
  16    9   10 2
  17    9   13 1
  18   10   11 1
  19   11   12 1
  20   11   14 1
  21   12   13 2
  22   12   17 1
  23   13   32 1
  24   14   15 1
  25   14   33 1
  26   14   34 1
  27   15   16 1
  28   15   35 1
  29   15   36 1
  30   16   17 am
  31   16   19 1
  32   17   18 2
  33   19   20 ar
  34   19   24 ar
  35   20   21 ar
  36   20   37 1
  37   21   22 ar
  38   21   38 1
  39   22   23 ar
  40   22   25 1
  41   23   24 ar
  42   23   39 1
  43   24   40 1

#	End of record

