#	Name: ASD03331683
#	Creating user name:	WinNT
#	Creation time:	15. 06. 2019 20:39

#	Modifying user name:	WinNT
#	Modification time:	15. 06. 2019 20:39

#	Program:	/corina/corina34_cracker 3.40 0067  02.08.2006

@<TRIPOS>MOLECULE
ASD03331683
  51   53    0    0    0
SMALL
NO_CHARGES


@<TRIPOS>ATOM
   1 C1             0.2790     1.4937     0.1340 C.3     
   2 N2             0.2009     0.0272     0.0800 N.3     
   3 C3             0.5969    -0.4796    -1.2464 C.3     
   4 C4             1.9127     0.1568    -1.6133 C.2     
   5 N5             2.4250     1.2532    -0.9797 N.pl3   
   6 C6             1.7476     1.9373     0.1252 C.3     
   7 C7             2.7970    -0.1996    -2.5768 C.2     
   8 N8             3.8346     0.6681    -2.5261 N.2     
   9 C9             3.6175     1.5441    -1.5668 C.2     
  10 C10            4.5133     2.6506    -1.1930 C.2     
  11 C11            2.6543    -1.3293    -3.5119 C.2     
  12 O12            1.6703    -2.0421    -3.4588 O.2     
  13 N13            3.6143    -1.5727    -4.4260 N.am    
  14 C14            3.4725    -2.6960    -5.3557 C.3     
  15 C15            2.6400    -2.2574    -6.5622 C.3     
  16 C16            4.8360    -3.1387    -5.8204 C.2     
  17 N17            5.0360    -4.4157    -6.2022 N.am    
  18 O18            5.7532    -2.3459    -5.8509 O.2     
  19 C19            6.3830    -4.8730    -6.5526 C.3     
  20 C20            3.2744    -1.0178    -7.1961 C.3     
  21 C21            2.5958    -3.3898    -7.5901 C.3     
  22 C22            1.2174    -1.9260    -6.1069 C.3     
  23 C23            5.5354     3.1148    -1.9444 C.2     
  24 S24            4.4143     3.5786     0.2979 S.3     
  25 C25            5.7931     4.5582    -0.1838 C.2     
  26 C26            6.2335     4.1611    -1.3826 C.2     
  27 H27           -0.2321     1.9158    -0.7313 H       
  28 H28           -0.2012     1.8487     1.0458 H       
  29 H29            0.7592    -0.3917     0.8086 H       
  30 H30            0.7094    -1.5631    -1.2085 H       
  31 H31           -0.1600    -0.2126    -1.9840 H       
  32 H32            1.8052     3.0161    -0.0196 H       
  33 H33            2.2193     1.6667     1.0698 H       
  34 H34            4.3991    -1.0043    -4.4683 H       
  35 H35            2.9738    -3.5240    -4.8519 H       
  36 H36            4.2882    -5.0320    -6.2449 H       
  37 H37            6.7597    -4.2857    -7.3900 H       
  38 H38            7.0438    -4.7480    -5.6947 H       
  39 H39            6.3477    -5.9256    -6.8336 H       
  40 H40            4.2879    -1.2539    -7.5204 H       
  41 H41            2.6813    -0.7053    -8.0556 H       
  42 H42            3.3059    -0.2110    -6.4638 H       
  43 H43            2.2398    -4.3018    -7.1109 H       
  44 H44            1.9202    -3.1181    -8.4012 H       
  45 H45            3.5958    -3.5563    -7.9906 H       
  46 H46            1.2489    -1.1193    -5.3746 H       
  47 H47            0.6243    -1.6136    -6.9664 H       
  48 H48            0.7654    -2.8092    -5.6553 H       
  49 H49            5.7857     2.6983    -2.9089 H       
  50 H50            6.2180     5.3619     0.3992 H       
  51 H51            7.0758     4.6258    -1.8736 H       
@<TRIPOS>BOND
   1    1    2 1
   2    1    6 1
   3    1   27 1
   4    1   28 1
   5    2    3 1
   6    2   29 1
   7    3    4 1
   8    3   30 1
   9    3   31 1
  10    4    5 1
  11    4    7 2
  12    5    6 1
  13    5    9 1
  14    6   32 1
  15    6   33 1
  16    7    8 1
  17    7   11 1
  18    8    9 2
  19    9   10 1
  20   10   24 1
  21   10   23 2
  22   11   12 2
  23   11   13 am
  24   13   14 1
  25   13   34 1
  26   14   15 1
  27   14   16 1
  28   14   35 1
  29   15   20 1
  30   15   21 1
  31   15   22 1
  32   16   17 am
  33   16   18 2
  34   17   19 1
  35   17   36 1
  36   19   37 1
  37   19   38 1
  38   19   39 1
  39   20   40 1
  40   20   41 1
  41   20   42 1
  42   21   43 1
  43   21   44 1
  44   21   45 1
  45   22   46 1
  46   22   47 1
  47   22   48 1
  48   23   26 1
  49   23   49 1
  50   24   25 1
  51   25   26 2
  52   25   50 1
  53   26   51 1

#	End of record

