#	Name: ASD08830145
#	Creating user name:	WinNT
#	Creation time:	15. 06. 2019 21:19

#	Modifying user name:	WinNT
#	Modification time:	15. 06. 2019 21:19

#	Program:	/corina/corina34_cracker 3.40 0067  02.08.2006

@<TRIPOS>MOLECULE
ASD08830145
  50   52    0    0    0
SMALL
NO_CHARGES


@<TRIPOS>ATOM
   1 C1            -0.0179     1.4665     0.0101 C.ar    
   2 C2             0.0021    -0.0041     0.0020 C.2     
   3 C3            -1.2926    -0.7753     0.0102 C.3     
   4 C4            -0.9927    -2.2755    -0.0007 C.3     
   5 N5            -2.2547    -3.0273     0.0073 N.3     
   6 O6             1.0604    -0.5961    -0.0113 O.2     
   7 C7             1.1774     2.1722     0.0025 C.ar    
   8 C8            -0.0981     4.2489     0.0258 C.ar    
   9 C9            -1.2934     3.5051     0.0274 C.ar    
  10 C10           -2.0183    -4.4552    -0.2407 C.3     
  11 C11           -2.9826    -2.8203     1.2658 C.3     
  12 C12            1.1497     3.5742     0.0103 C.ar    
  13 C13           -1.2502     2.1496     0.0197 C.ar    
  14 C14            2.3394     4.3244     0.0035 C.ar    
  15 C15            2.2784     5.6843     0.0117 C.ar    
  16 C16            1.0527     6.3463     0.0273 C.ar    
  17 C17           -0.1195     5.6528     0.0348 C.ar    
  18 C18           -3.3595    -5.1808    -0.3699 C.3     
  19 C19           -4.1619    -4.9938     0.9207 C.3     
  20 C20           -4.3526    -3.4971     1.1816 C.3     
  21 C21           -5.3367    -7.1596     0.5065 C.3     
  22 C22           -5.5288    -5.6656     0.7749 C.3     
  23 C23           -6.3294    -5.4780     2.0652 C.3     
  24 H24           -1.8592    -0.5245     0.9070 H       
  25 H25           -1.8762    -0.5150    -0.8728 H       
  26 H26           -0.4261    -2.5263    -0.8975 H       
  27 H27           -0.4091    -2.5358     0.8824 H       
  28 H28            2.1205     1.6461    -0.0090 H       
  29 H29           -2.2457     4.0145     0.0396 H       
  30 H30           -1.4505    -4.5744    -1.1634 H       
  31 H31           -1.4544    -4.8796     0.5900 H       
  32 H32           -2.4141    -3.2523     2.0894 H       
  33 H33           -3.1151    -1.7520     1.4372 H       
  34 H34           -2.1719     1.5867     0.0206 H       
  35 H35            3.2965     3.8241    -0.0079 H       
  36 H36            3.1933     6.2582     0.0065 H       
  37 H37            1.0316     7.4261     0.0340 H       
  38 H38           -1.0617     6.1806     0.0468 H       
  39 H39           -3.9182    -4.7662    -1.2090 H       
  40 H40           -3.1838    -6.2432    -0.5384 H       
  41 H41           -3.6213    -5.4427     1.7540 H       
  42 H42           -4.8863    -3.3566     2.1215 H       
  43 H43           -4.9269    -3.0560     0.3669 H       
  44 H44           -4.7965    -7.6117     1.3384 H       
  45 H45           -6.3105    -7.6382     0.4027 H       
  46 H46           -4.7663    -7.2932    -0.4126 H       
  47 H47           -6.0689    -5.2135    -0.0569 H       
  48 H48           -5.7893    -5.9301     2.8970 H       
  49 H49           -6.4663    -4.4137     2.2564 H       
  50 H50           -7.3032    -5.9566     1.9613 H       
@<TRIPOS>BOND
   1    1    2 1
   2    1    7 ar
   3    1   13 ar
   4    2    3 1
   5    2    6 2
   6    3    4 1
   7    3   24 1
   8    3   25 1
   9    4    5 1
  10    4   26 1
  11    4   27 1
  12    5   10 1
  13    5   11 1
  14    7   12 ar
  15    7   28 1
  16    8    9 ar
  17    8   12 ar
  18    8   17 ar
  19    9   13 ar
  20    9   29 1
  21   10   18 1
  22   10   30 1
  23   10   31 1
  24   11   20 1
  25   11   32 1
  26   11   33 1
  27   12   14 ar
  28   13   34 1
  29   14   15 ar
  30   14   35 1
  31   15   16 ar
  32   15   36 1
  33   16   17 ar
  34   16   37 1
  35   17   38 1
  36   18   19 1
  37   18   39 1
  38   18   40 1
  39   19   20 1
  40   19   22 1
  41   19   41 1
  42   20   42 1
  43   20   43 1
  44   21   22 1
  45   21   44 1
  46   21   45 1
  47   21   46 1
  48   22   23 1
  49   22   47 1
  50   23   48 1
  51   23   49 1
  52   23   50 1

#	End of record

