#	Name: ASD03091911
#	Creating user name:	WinNT
#	Creation time:	15. 06. 2019 20:31

#	Modifying user name:	WinNT
#	Modification time:	15. 06. 2019 20:31

#	Program:	/corina/corina34_cracker 3.40 0067  02.08.2006

@<TRIPOS>MOLECULE
ASD03091911
  55   59    0    0    0
SMALL
NO_CHARGES


@<TRIPOS>ATOM
   1 C1            -0.5073     1.9417     0.3384 C.ar    
   2 C2            -1.8510     2.3504     0.2644 C.ar    
   3 C3            -2.8677     1.3691     0.1491 C.ar    
   4 C4            -2.5229     0.0037     0.1080 C.ar    
   5 C5            -1.2219    -0.3770     0.1800 C.ar    
   6 C6            -0.2026     0.5806     0.2958 C.ar    
   7 O7             0.5018     2.8349     0.4557 O.3     
   8 C8             1.6417     2.4383     1.2186 C.3     
   9 N9             2.1066     1.1136     0.8046 N.am    
  10 C10            1.2172     0.1854     0.3823 C.2     
  11 C11           -3.6037    -1.0392    -0.0161 C.3     
  12 N12           -4.1507    -1.0177    -1.3793 N.3     
  13 C13           -5.3842    -1.8032    -1.4623 C.3     
  14 C14           -3.1455    -1.4452    -2.3550 C.3     
  15 C15           -3.5652    -1.0050    -3.7617 C.3     
  16 S16           -5.1379    -1.8193    -4.1763 S.o     
  17 C17           -6.1612    -1.4201    -2.7264 C.3     
  18 O18            1.5757    -0.9379     0.0841 O.2     
  19 C19            3.5354     0.7926     0.8474 C.3     
  20 C20            4.3116     1.7064    -0.1233 C.3     
  21 C21            4.0957     1.0686     2.2537 C.3     
  22 C22            5.1929     2.1403     2.0884 C.3     
  23 C23            4.8214     2.8641     0.7704 C.3     
  24 O24            4.6572    -0.1265     2.8001 O.3     
  25 C25           -2.2047     3.7086     0.3034 C.ar    
  26 C26           -4.2096     1.7773     0.0778 C.ar    
  27 C27           -3.5166     4.0670     0.2322 C.ar    
  28 C28           -4.5160     3.1036     0.1187 C.ar    
  29 O29           -5.6963    -1.2102    -5.3323 O.2     
  30 H30           -0.9689    -1.4265     0.1478 H       
  31 H31            2.4427     3.1625     1.0701 H       
  32 H32            1.3747     2.4110     2.2751 H       
  33 H33           -3.1842    -2.0236     0.1916 H       
  34 H34           -4.3989    -0.8250     0.6980 H       
  35 H35           -5.1363    -2.8641    -1.4971 H       
  36 H36           -5.9996    -1.6049    -0.5848 H       
  37 H37           -2.1846    -0.9948    -2.1062 H       
  38 H38           -3.0531    -2.5309    -2.3278 H       
  39 H39           -3.6962     0.0769    -3.7830 H       
  40 H40           -2.8002    -1.2983    -4.4806 H       
  41 H41           -7.0926    -1.9847    -2.7689 H       
  42 H42           -6.3775    -0.3519    -2.7137 H       
  43 H43            3.6909    -0.2531     0.5820 H       
  44 H44            5.1500     1.1683    -0.5657 H       
  45 H45            3.6491     2.0876    -0.9004 H       
  46 H46            3.3046     1.4413     2.9043 H       
  47 H47            5.1735     2.8383     2.9255 H       
  48 H48            6.1736     1.6723     2.0033 H       
  49 H49            5.6989     3.3359     0.3282 H       
  50 H50            4.0324     3.5966     0.9411 H       
  51 H51            5.0276    -0.0175     3.6867 H       
  52 H52           -1.4396     4.4659     0.3900 H       
  53 H53           -4.9957     1.0420    -0.0094 H       
  54 H54           -3.7856     5.1126     0.2628 H       
  55 H55           -5.5494     3.4128     0.0643 H       
@<TRIPOS>BOND
   1    1    6 ar
   2    1    7 1
   3    1    2 ar
   4    2    3 ar
   5    2   25 ar
   6    3    4 ar
   7    3   26 ar
   8    4    5 ar
   9    4   11 1
  10    5    6 ar
  11    5   30 1
  12    6   10 1
  13    7    8 1
  14    8    9 1
  15    8   31 1
  16    8   32 1
  17    9   10 am
  18    9   19 1
  19   10   18 2
  20   11   12 1
  21   11   33 1
  22   11   34 1
  23   12   14 1
  24   12   13 1
  25   13   17 1
  26   13   35 1
  27   13   36 1
  28   14   15 1
  29   14   37 1
  30   14   38 1
  31   15   16 1
  32   15   39 1
  33   15   40 1
  34   16   29 2
  35   16   17 1
  36   17   41 1
  37   17   42 1
  38   19   21 1
  39   19   20 1
  40   19   43 1
  41   20   23 1
  42   20   44 1
  43   20   45 1
  44   21   22 1
  45   21   24 1
  46   21   46 1
  47   22   23 1
  48   22   47 1
  49   22   48 1
  50   23   49 1
  51   23   50 1
  52   24   51 1
  53   25   27 ar
  54   25   52 1
  55   26   28 ar
  56   26   53 1
  57   27   28 ar
  58   27   54 1
  59   28   55 1

#	End of record

