#	Name: ASD03082388
#	Creating user name:	WinNT
#	Creation time:	15. 06. 2019 20:27

#	Modifying user name:	WinNT
#	Modification time:	15. 06. 2019 20:27

#	Program:	/corina/corina34_cracker 3.40 0067  02.08.2006

@<TRIPOS>MOLECULE
ASD03082388
  46   48    0    0    0
SMALL
NO_CHARGES


@<TRIPOS>ATOM
   1 C1             2.6859     0.8916    -1.9462 C.ar    
   2 C2             2.6317    -0.3527    -1.3278 C.ar    
   3 C3             3.7760    -0.8885    -0.7514 C.ar    
   4 C4             4.9641    -0.1852    -0.7936 C.ar    
   5 C5             5.0166     1.0522    -1.4085 C.ar    
   6 C6             3.8807     1.5885    -1.9895 C.ar    
   7 Cl7            3.9515     3.1421    -2.7608 Cl      
   8 N8             1.4275    -1.0628    -1.2859 N.pl3   
   9 C9             1.4087    -2.3808    -0.8182 C.2     
  10 C10            0.2616    -3.1678    -0.6173 C.2     
  11 N11            2.4596    -3.0984    -0.4965 N.2     
  12 N12            2.0168    -4.3591    -0.0759 N.pl3   
  13 C13            0.6608    -4.3756    -0.1599 C.2     
  14 C14            2.8274    -5.4154     0.3504 C.ar    
  15 C15            2.5766    -6.7215    -0.0654 C.ar    
  16 C16            3.9106    -5.1885     1.1976 C.ar    
  17 C17            4.6864    -6.2578     1.5951 C.ar    
  18 N18            4.4135    -7.4816     1.1836 N.ar    
  19 C19            3.4005    -7.7362     0.3776 C.ar    
  20 C20            5.8607    -6.0253     2.5106 C.3     
  21 H21            3.2108    -8.7522     0.0642 H       
  22 C22           -0.2373    -5.5330     0.1934 C.3     
  23 C23           -0.6376    -6.2761    -1.0827 C.3     
  24 C24           -1.4266    -7.5341    -0.7142 C.3     
  25 C25           -1.7193    -8.3417    -1.9803 C.3     
  26 O26           -1.4496    -5.4253    -1.8945 O.3     
  27 F27            1.5754     1.4167    -2.5087 F       
  28 H28            3.7368    -1.8546    -0.2701 H       
  29 H29            5.8537    -0.6024    -0.3452 H       
  30 H30            5.9471     1.5995    -1.4393 H       
  31 H31            0.6054    -0.6412    -1.5812 H       
  32 H32           -0.7585    -2.8614    -0.7961 H       
  33 H33            1.7488    -6.9368    -0.7248 H       
  34 H34            4.1397    -4.1894     1.5378 H       
  35 H35            5.5349    -6.1075     3.5475 H       
  36 H36            6.6301    -6.7712     2.3112 H       
  37 H37            6.2665    -5.0289     2.3352 H       
  38 H38            0.2927    -6.2141     0.8593 H       
  39 H39           -1.1317    -5.1598     0.6923 H       
  40 H40            0.2587    -6.5582    -1.6352 H       
  41 H41           -0.8411    -8.1409    -0.0235 H       
  42 H42           -2.3656    -7.2482    -0.2404 H       
  43 H43           -2.3048    -7.7349    -2.6710 H       
  44 H44           -0.7802    -8.6275    -2.4542 H       
  45 H45           -2.2814    -9.2379    -1.7178 H       
  46 H46           -2.2660    -5.1346    -1.4655 H       
@<TRIPOS>BOND
   1    1    2 ar
   2    1   27 1
   3    1    6 ar
   4    2    3 ar
   5    2    8 1
   6    3    4 ar
   7    3   28 1
   8    4    5 ar
   9    4   29 1
  10    5    6 ar
  11    5   30 1
  12    6    7 1
  13    8    9 1
  14    8   31 1
  15    9   10 1
  16    9   11 2
  17   10   13 2
  18   10   32 1
  19   11   12 1
  20   12   13 1
  21   12   14 1
  22   13   22 1
  23   14   15 ar
  24   14   16 ar
  25   15   19 ar
  26   15   33 1
  27   16   17 ar
  28   16   34 1
  29   17   18 ar
  30   17   20 1
  31   18   19 ar
  32   19   21 1
  33   20   35 1
  34   20   36 1
  35   20   37 1
  36   22   23 1
  37   22   38 1
  38   22   39 1
  39   23   24 1
  40   23   26 1
  41   23   40 1
  42   24   25 1
  43   24   41 1
  44   24   42 1
  45   25   43 1
  46   25   44 1
  47   25   45 1
  48   26   46 1

#	End of record

