#	Name: ASD05140007
#	Creating user name:	WinNT
#	Creation time:	15. 06. 2019 20:57

#	Modifying user name:	WinNT
#	Modification time:	15. 06. 2019 20:57

#	Program:	/corina/corina34_cracker 3.40 0067  02.08.2006

@<TRIPOS>MOLECULE
ASD05140007
  34   36    0    0    0
SMALL
NO_CHARGES


@<TRIPOS>ATOM
   1 C1            -0.0164     1.3604     0.0095 C.ar    
   2 C2             0.0021    -0.0041     0.0020 C.ar    
   3 C3             1.2056    -0.7025    -0.0132 C.ar    
   4 C4             2.3997    -0.0444    -0.0206 C.ar    
   5 C5             2.4175     1.3573    -0.0132 C.ar    
   6 C6             1.1907     2.0661     0.0018 C.ar    
   7 N7             3.5640     2.0510    -0.0195 N.ar    
   8 C8             3.5467     3.3706    -0.0119 C.ar    
   9 N9             2.4172     4.0761     0.0022 N.ar    
  10 C10            1.2330     3.4832     0.0085 C.ar    
  11 C11            4.8387     4.0981    -0.0188 C.ar    
  12 C12            6.0398     3.3908    -0.0330 C.ar    
  13 C13            7.2393     4.0733    -0.0393 C.ar    
  14 C14            7.2512     5.4565    -0.0311 C.ar    
  15 C15            6.0623     6.1637    -0.0169 C.ar    
  16 C16            4.8568     5.4920    -0.0168 C.ar    
  17 N17            0.0710     4.2251     0.0230 N.pl3   
  18 C18            0.1364     5.6886     0.0297 C.3     
  19 C19           -1.2605     6.2538     0.0455 C.2     
  20 O20           -2.2130     5.5103     0.0506 O.2     
  21 O21           -1.4467     7.5831     0.0539 O.3     
  22 H22           -0.9568     1.8914     0.0169 H       
  23 H23           -0.9301    -0.5494     0.0084 H       
  24 H24            1.1936    -1.7824    -0.0189 H       
  25 H25            3.3261    -0.5996    -0.0317 H       
  26 H26            6.0317     2.3109    -0.0388 H       
  27 H27            8.1705     3.5264    -0.0504 H       
  28 H28            8.1922     5.9864    -0.0353 H       
  29 H29            6.0776     7.2436    -0.0102 H       
  30 H30            3.9292     6.0451    -0.0106 H       
  31 H31           -0.7898     3.7780     0.0287 H       
  32 H32            0.6742     6.0242     0.9164 H       
  33 H33            0.6576     6.0331    -0.8635 H       
  34 H34           -2.3608     7.8983     0.0639 H       
@<TRIPOS>BOND
   1    1    2 ar
   2    1    6 ar
   3    1   22 1
   4    2    3 ar
   5    2   23 1
   6    3    4 ar
   7    3   24 1
   8    4    5 ar
   9    4   25 1
  10    5    7 ar
  11    5    6 ar
  12    6   10 ar
  13    7    8 ar
  14    8    9 ar
  15    8   11 1
  16    9   10 ar
  17   10   17 1
  18   11   12 ar
  19   11   16 ar
  20   12   13 ar
  21   12   26 1
  22   13   14 ar
  23   13   27 1
  24   14   15 ar
  25   14   28 1
  26   15   16 ar
  27   15   29 1
  28   16   30 1
  29   17   18 1
  30   17   31 1
  31   18   19 1
  32   18   32 1
  33   18   33 1
  34   19   20 2
  35   19   21 1
  36   21   34 1

#	End of record

