#	Name: ASD01816603
#	Creating user name:	WinNT
#	Creation time:	15. 06. 2019 19:35

#	Modifying user name:	WinNT
#	Modification time:	15. 06. 2019 19:35

#	Program:	/corina/corina34_cracker 3.40 0067  02.08.2006

@<TRIPOS>MOLECULE
ASD01816603
  46   50    0    0    0
SMALL
NO_CHARGES


@<TRIPOS>ATOM
   1 C1            -0.0167     1.3813     0.0096 C.ar    
   2 C2             0.0021    -0.0041     0.0020 C.ar    
   3 C3             1.1984    -0.6909    -0.0131 C.ar    
   4 C4             2.4015     0.0059    -0.0204 C.ar    
   5 C5             2.3790     1.4106    -0.0127 C.ar    
   6 C6             1.1663     2.0916     0.0022 C.ar    
   7 N7             3.6053    -0.6772    -0.0347 N.pl3   
   8 C8             4.7970    -0.0586    -0.0423 C.2     
   9 C9             4.9000     1.3103    -0.0359 C.2     
  10 C10            3.6670     2.1302    -0.0207 C.2     
  11 C11            5.9971     2.2730    -0.0413 C.2     
  12 N12            5.4245     3.4960    -0.0301 N.am    
  13 N13            4.0323     3.3799    -0.0180 N.2     
  14 O14            7.1914     2.0229    -0.0530 O.2     
  15 C15            6.1259     4.7074    -0.0310 C.ar    
  16 C16            5.8873     5.6504     0.9602 C.ar    
  17 C17            7.0664     4.9665    -1.0201 C.ar    
  18 C18            7.7569     6.1623    -1.0178 C.ar    
  19 C19            7.5134     7.1013    -0.0319 C.ar    
  20 C20            6.5815     6.8445     0.9568 C.ar    
  21 C21            3.5779    -2.1419    -0.0413 C.3     
  22 C22            3.5555    -2.6375    -1.4643 C.ar    
  23 C23            4.7404    -2.9832    -2.0856 C.ar    
  24 C24            4.7093    -3.4382    -3.3950 C.ar    
  25 C25            3.4811    -3.5286    -4.0333 C.ar    
  26 C26            2.3368    -3.1645    -3.3469 C.ar    
  27 N27            2.4046    -2.7412    -2.1000 N.ar    
  28 Br28           3.3727    -4.1412    -5.8191 Br      
  29 C29            4.8718     5.3713     2.0381 C.3     
  30 H30           -0.9602     1.9068     0.0170 H       
  31 H31           -0.9288    -0.5516     0.0083 H       
  32 H32            1.2004    -1.7709    -0.0189 H       
  33 H33            1.1506     3.1715     0.0084 H       
  34 H34            5.6983    -0.6536    -0.0534 H       
  35 H35            7.2574     4.2334    -1.7898 H       
  36 H36            8.4881     6.3643    -1.7864 H       
  37 H37            8.0554     8.0355    -0.0319 H       
  38 H38            6.3935     7.5799     1.7250 H       
  39 H39            4.4656    -2.5242     0.4626 H       
  40 H40            2.6860    -2.4910     0.4791 H       
  41 H41            5.6790    -2.8998    -1.5579 H       
  42 H42            5.6197    -3.7151    -3.9058 H       
  43 H43            1.3765    -3.2315    -3.8364 H       
  44 H44            5.3604     4.8789     2.8789 H       
  45 H45            4.4304     6.3099     2.3732 H       
  46 H46            4.0901     4.7232     1.6419 H       
@<TRIPOS>BOND
   1    1    2 ar
   2    1    6 ar
   3    1   30 1
   4    2    3 ar
   5    2   31 1
   6    3    4 ar
   7    3   32 1
   8    4    5 ar
   9    4    7 1
  10    5    6 ar
  11    5   10 1
  12    6   33 1
  13    7    8 1
  14    7   21 1
  15    8    9 2
  16    8   34 1
  17    9   10 1
  18    9   11 1
  19   10   13 2
  20   11   12 am
  21   11   14 2
  22   12   13 1
  23   12   15 1
  24   15   16 ar
  25   15   17 ar
  26   16   29 1
  27   16   20 ar
  28   17   18 ar
  29   17   35 1
  30   18   19 ar
  31   18   36 1
  32   19   20 ar
  33   19   37 1
  34   20   38 1
  35   21   22 1
  36   21   39 1
  37   21   40 1
  38   22   23 ar
  39   22   27 ar
  40   23   24 ar
  41   23   41 1
  42   24   25 ar
  43   24   42 1
  44   25   26 ar
  45   25   28 1
  46   26   27 ar
  47   26   43 1
  48   29   44 1
  49   29   45 1
  50   29   46 1

#	End of record

