#	Name: ASD01814108
#	Creating user name:	WinNT
#	Creation time:	15. 06. 2019 19:31

#	Modifying user name:	WinNT
#	Modification time:	15. 06. 2019 19:31

#	Program:	/corina/corina34_cracker 3.40 0067  02.08.2006

@<TRIPOS>MOLECULE
ASD01814108
  61   65    0    0    0
SMALL
NO_CHARGES


@<TRIPOS>ATOM
   1 N1            -0.5310     1.8901    -1.7085 N.2     
   2 C2            -0.7770     0.7675    -2.3417 C.2     
   3 C3             0.0317     0.3704    -3.4177 C.2     
   4 C4             1.0694     1.1567    -3.7971 C.2     
   5 N5             1.3032     2.3200    -3.1207 N.pl3   
   6 C6             0.4913     2.6747    -2.0745 C.2     
   7 N7             2.2696     3.3208    -3.2653 N.2     
   8 C8             2.0634     4.2481    -2.3520 C.2     
   9 C9             0.9657     3.8874    -1.5888 C.2     
  10 C10            2.5961     5.5643    -1.8414 C.3     
  11 N11            1.7525     5.9815    -0.7172 N.am    
  12 C12            0.7280     4.9468    -0.5436 C.3     
  13 C13            1.8921     7.1030     0.0172 C.2     
  14 O14            1.0668     7.3807     0.8654 O.2     
  15 C15            3.0490     7.9954    -0.2088 C.ar    
  16 C16            2.8595     9.3738    -0.3214 C.ar    
  17 C17            4.3358     7.4639    -0.3047 C.ar    
  18 C18            5.4111     8.3023    -0.5158 C.ar    
  19 C19            5.2159     9.6668    -0.6321 C.ar    
  20 C20            3.9431    10.2008    -0.5322 C.ar    
  21 C21            1.4742     9.9570    -0.2133 C.3     
  22 N22            1.5616    11.3392     0.2764 N.3     
  23 C23            0.4221    13.4830     0.5918 C.3     
  24 C24            0.2692    12.0267     0.1466 C.3     
  25 C25            2.0374    11.3765     1.6663 C.3     
  26 C26            2.1903    12.8328     2.1115 C.3     
  27 N27            0.8979    13.5202     1.9817 N.3     
  28 C28            1.9528     0.7522    -4.9490 C.3     
  29 Cl29          -0.2932    -1.1150    -4.2554 Cl      
  30 C30           -1.9325    -0.0991    -1.9116 C.3     
  31 C31            0.8069     9.9449    -1.5900 C.3     
  32 C32            0.9853    14.9025     2.4714 C.3     
  33 H33            3.6254     5.4405    -1.5047 H       
  34 H34            2.5530     6.3124    -2.6330 H       
  35 H35           -0.2628     5.3813    -0.6765 H       
  36 H36            0.8101     4.5093     0.4514 H       
  37 H37            4.4896     6.3988    -0.2137 H       
  38 H38            6.4076     7.8923    -0.5899 H       
  39 H39            6.0610    10.3188    -0.7969 H       
  40 H40            3.7979    11.2675    -0.6195 H       
  41 H41            0.8826     9.3618     0.4824 H       
  42 H42            1.1425    13.9866    -0.0528 H       
  43 H43           -0.5419    13.9871     0.5238 H       
  44 H44           -0.0559    11.9965    -0.8934 H       
  45 H45           -0.4713    11.5304     0.7739 H       
  46 H46            1.3170    10.8729     2.3109 H       
  47 H47            3.0014    10.8723     1.7343 H       
  48 H48            2.5153    12.8629     3.1515 H       
  49 H49            2.9307    13.3290     1.4842 H       
  50 H50            1.6078    -0.1987    -5.3550 H       
  51 H51            1.9097     1.5159    -5.7256 H       
  52 H52            2.9799     0.6468    -4.5996 H       
  53 H53           -2.4413     0.3664    -1.0675 H       
  54 H54           -2.6314    -0.2106    -2.7406 H       
  55 H55           -1.5605    -1.0800    -1.6156 H       
  56 H56            1.3984    10.5401    -2.2857 H       
  57 H57            0.7420     8.9193    -1.9534 H       
  58 H58           -0.1952    10.3668    -1.5119 H       
  59 H59            0.0002    15.3668     2.4266 H       
  60 H60            1.3399    14.9010     3.5021 H       
  61 H61            1.6808    15.4652     1.8487 H       
@<TRIPOS>BOND
   1    1    2 2
   2    1    6 1
   3    2    3 1
   4    2   30 1
   5    3    4 2
   6    3   29 1
   7    4    5 1
   8    4   28 1
   9    5    7 1
  10    5    6 1
  11    6    9 2
  12    7    8 2
  13    8   10 1
  14    8    9 1
  15    9   12 1
  16   10   11 1
  17   10   33 1
  18   10   34 1
  19   11   12 1
  20   11   13 am
  21   12   35 1
  22   12   36 1
  23   13   14 2
  24   13   15 1
  25   15   17 ar
  26   15   16 ar
  27   16   20 ar
  28   16   21 1
  29   17   18 ar
  30   17   37 1
  31   18   19 ar
  32   18   38 1
  33   19   20 ar
  34   19   39 1
  35   20   40 1
  36   21   31 1
  37   21   22 1
  38   21   41 1
  39   22   25 1
  40   22   24 1
  41   23   24 1
  42   23   27 1
  43   23   42 1
  44   23   43 1
  45   24   44 1
  46   24   45 1
  47   25   26 1
  48   25   46 1
  49   25   47 1
  50   26   27 1
  51   26   48 1
  52   26   49 1
  53   27   32 1
  54   28   50 1
  55   28   51 1
  56   28   52 1
  57   30   53 1
  58   30   54 1
  59   30   55 1
  60   31   56 1
  61   31   57 1
  62   31   58 1
  63   32   59 1
  64   32   60 1
  65   32   61 1

#	End of record

