#	Name: ASD01816226
#	Creating user name:	WinNT
#	Creation time:	15. 06. 2019 19:34

#	Modifying user name:	WinNT
#	Modification time:	15. 06. 2019 19:34

#	Program:	/corina/corina34_cracker 3.40 0067  02.08.2006

@<TRIPOS>MOLECULE
ASD01816226
  43   47    0    0    0
SMALL
NO_CHARGES


@<TRIPOS>ATOM
   1 C1            -0.5726     0.6569     0.3899 C.ar    
   2 C2            -0.3066    -0.7019     0.3390 C.ar    
   3 C3             0.9883    -1.1606     0.2137 C.ar    
   4 C4             2.0428    -0.2577     0.1375 C.ar    
   5 C5             1.7698     1.1195     0.1894 C.ar    
   6 C6             0.4597     1.5696     0.3154 C.ar    
   7 N7             3.3446    -0.7114     0.0127 N.pl3   
   8 C8             4.4018     0.1126    -0.0653 C.2     
   9 C9             4.2581     1.4772    -0.0257 C.2     
  10 C10            2.9034     2.0602     0.1069 C.2     
  11 C11            5.1612     2.6225    -0.0840 C.2     
  12 N12            4.3815     3.7215     0.0068 N.am    
  13 N13            3.0380     3.3552     0.1199 N.2     
  14 C14            4.8527     5.0404    -0.0095 C.ar    
  15 C15            4.5275     5.9097     1.0263 C.ar    
  16 C16            5.6502     5.4816    -1.0569 C.ar    
  17 C17            6.1134     6.7828    -1.0704 C.ar    
  18 C18            5.7845     7.6471    -0.0420 C.ar    
  19 C19            4.9950     7.2112     1.0061 C.ar    
  20 F20            3.7561     5.4836     2.0503 F       
  21 O21            6.3763     2.5928    -0.1924 O.2     
  22 C22            3.5795    -2.1566    -0.0362 C.3     
  23 C23            3.4325    -2.6418    -1.4554 C.2     
  24 C24            4.4255    -2.8232    -2.3311 C.2     
  25 N25            4.0387    -3.2564    -3.5140 N.2     
  26 C26            2.7746    -3.4504    -3.6849 C.2     
  27 S27            1.9218    -3.0772    -2.2507 S.3     
  28 C28            5.8695    -2.5545    -1.9935 C.3     
  29 H29           -1.5913     1.0029     0.4837 H       
  30 H30           -1.1210    -1.4088     0.3984 H       
  31 H31            1.1833    -2.2222     0.1751 H       
  32 H32            0.2515     2.6285     0.3555 H       
  33 H33            5.3914    -0.3093    -0.1614 H       
  34 H34            5.9086     4.8077    -1.8604 H       
  35 H35            6.7338     7.1258    -1.8852 H       
  36 H36            6.1490     8.6636    -0.0554 H       
  37 H37            4.7397     7.8888     1.8074 H       
  38 H38            4.5869    -2.3732     0.3193 H       
  39 H39            2.8532    -2.6644     0.5985 H       
  40 H40            2.3213    -3.8022    -4.5999 H       
  41 H41            6.2971    -3.4296    -1.5041 H       
  42 H42            6.4231    -2.3429    -2.9082 H       
  43 H43            5.9325    -1.6967    -1.3239 H       
@<TRIPOS>BOND
   1    1    2 ar
   2    1    6 ar
   3    1   29 1
   4    2    3 ar
   5    2   30 1
   6    3    4 ar
   7    3   31 1
   8    4    5 ar
   9    4    7 1
  10    5    6 ar
  11    5   10 1
  12    6   32 1
  13    7    8 1
  14    7   22 1
  15    8    9 2
  16    8   33 1
  17    9   10 1
  18    9   11 1
  19   10   13 2
  20   11   12 am
  21   11   21 2
  22   12   13 1
  23   12   14 1
  24   14   15 ar
  25   14   16 ar
  26   15   20 1
  27   15   19 ar
  28   16   17 ar
  29   16   34 1
  30   17   18 ar
  31   17   35 1
  32   18   19 ar
  33   18   36 1
  34   19   37 1
  35   22   23 1
  36   22   38 1
  37   22   39 1
  38   23   24 2
  39   23   27 1
  40   24   25 1
  41   24   28 1
  42   25   26 2
  43   26   27 1
  44   26   40 1
  45   28   41 1
  46   28   42 1
  47   28   43 1

#	End of record

