#	Name: ASD03091700
#	Creating user name:	WinNT
#	Creation time:	15. 06. 2019 20:31

#	Modifying user name:	WinNT
#	Modification time:	15. 06. 2019 20:31

#	Program:	/corina/corina34_cracker 3.40 0067  02.08.2006

@<TRIPOS>MOLECULE
ASD03091700
  45   48    0    0    0
SMALL
NO_CHARGES


@<TRIPOS>ATOM
   1 C1            -0.0150     1.4052     0.0122 C.ar    
   2 C2            -1.2244     2.0746     0.0343 C.ar    
   3 C3            -2.4115     1.3523     0.0344 C.ar    
   4 C4            -2.3910    -0.0388     0.0124 C.ar    
   5 C5            -1.1914    -0.7163    -0.0092 C.ar    
   6 C6             0.0034     0.0002    -0.0097 C.ar    
   7 O7             1.1662     2.0716     0.0168 O.3     
   8 C8             2.2613     1.4547     0.6938 C.3     
   9 N9             2.4067     0.0570     0.2860 N.am    
  10 C10            1.3137    -0.6772    -0.0268 C.2     
  11 C11           -3.6869    -0.8080     0.0126 C.3     
  12 C12           -4.2315    -0.8743     1.4162 C.ar    
  13 C13           -3.8787    -1.9143     2.2549 C.ar    
  14 C14           -5.0882     0.1108     1.8838 C.ar    
  15 C15           -5.5644     0.0097     3.1816 C.ar    
  16 C16           -5.1718    -1.0632     3.9619 C.ar    
  17 N17           -4.3508    -1.9797     3.4845 N.ar    
  18 O18            1.4086    -1.8556    -0.3121 O.2     
  19 C19            3.7387    -0.5490     0.2162 C.3     
  20 O20           -3.5999     2.0086     0.0567 O.3     
  21 Cl21          -5.7603    -1.2019     5.5892 Cl      
  22 F22           -1.2520     3.4252     0.0560 F       
  23 C23            4.5935     0.1745    -0.8447 C.3     
  24 C24            4.4675    -0.3763     1.5604 C.3     
  25 C25            5.7397     0.4461     1.2694 C.3     
  26 C26            5.4057     1.2143    -0.0334 C.3     
  27 O27            4.8218    -1.6542     2.0929 O.3     
  28 H28           -1.1774    -1.7961    -0.0256 H       
  29 H29            3.1784     1.9942     0.4575 H       
  30 H30            2.0880     1.4980     1.7691 H       
  31 H31           -4.4074    -0.3063    -0.6333 H       
  32 H32           -3.5098    -1.8182    -0.3564 H       
  33 H33           -3.2087    -2.6830     1.8991 H       
  34 H34           -5.3772     0.9375     1.2518 H       
  35 H35           -6.2330     0.7591     3.5787 H       
  36 H36            3.6545    -1.6076    -0.0295 H       
  37 H37           -3.9528     2.2129    -0.8201 H       
  38 H38            5.2622    -0.5292    -1.3405 H       
  39 H39            3.9550     0.6737    -1.5735 H       
  40 H40            3.8301     0.1584     2.2647 H       
  41 H41            5.9377     1.1435     2.0834 H       
  42 H42            6.5935    -0.2137     1.1150 H       
  43 H43            6.3172     1.4911    -0.5632 H       
  44 H44            4.8003     2.0948     0.1817 H       
  45 H45            5.2848    -1.6124     2.9408 H       
@<TRIPOS>BOND
   1    1    6 ar
   2    1    7 1
   3    1    2 ar
   4    2    3 ar
   5    2   22 1
   6    3    4 ar
   7    3   20 1
   8    4    5 ar
   9    4   11 1
  10    5    6 ar
  11    5   28 1
  12    6   10 1
  13    7    8 1
  14    8    9 1
  15    8   29 1
  16    8   30 1
  17    9   10 am
  18    9   19 1
  19   10   18 2
  20   11   12 1
  21   11   31 1
  22   11   32 1
  23   12   14 ar
  24   12   13 ar
  25   13   17 ar
  26   13   33 1
  27   14   15 ar
  28   14   34 1
  29   15   16 ar
  30   15   35 1
  31   16   21 1
  32   16   17 ar
  33   19   24 1
  34   19   23 1
  35   19   36 1
  36   20   37 1
  37   23   26 1
  38   23   38 1
  39   23   39 1
  40   24   25 1
  41   24   27 1
  42   24   40 1
  43   25   26 1
  44   25   41 1
  45   25   42 1
  46   26   43 1
  47   26   44 1
  48   27   45 1

#	End of record

