#	Name: ASD01913920
#	Creating user name:	WinNT
#	Creation time:	15. 06. 2019 20:02

#	Modifying user name:	WinNT
#	Modification time:	15. 06. 2019 20:02

#	Program:	/corina/corina34_cracker 3.40 0067  02.08.2006

@<TRIPOS>MOLECULE
ASD01913920
  43   45    0    0    0
SMALL
NO_CHARGES


@<TRIPOS>ATOM
   1 C1            -0.0173     1.4278     0.0099 C.ar    
   2 C2             0.0021    -0.0041     0.0020 C.1     
   3 C3             0.0180    -1.1779    -0.0044 C.1     
   4 C4             0.0374    -2.6098    -0.0123 C.ar    
   5 C5            -1.1552    -3.3455    -0.0049 C.ar    
   6 C6             0.0738    -5.2913    -0.0280 C.ar    
   7 N7             1.2234    -4.6331    -0.0407 N.ar    
   8 C8             1.2495    -3.3127    -0.0336 C.ar    
   9 N9            -1.0933    -4.6646    -0.0130 N.ar    
  10 C10            1.1561     3.5287     0.0099 C.ar    
  11 C11           -1.2347     2.1133     0.0310 C.ar    
  12 C12           -0.0527     4.2003     0.0250 C.ar    
  13 N13            0.0926    -6.6796    -0.0366 N.am    
  14 C14            1.1827     2.1472     0.0023 C.ar    
  15 C15           -1.2456     3.4943     0.0385 C.ar    
  16 C16            1.2760    -7.3020    -0.0574 C.2     
  17 O17            1.4006    -8.6371    -0.1125 O.3     
  18 C18            0.2277    -9.4283     0.2240 C.3     
  19 C19           -0.9785    -8.8306    -0.5132 C.3     
  20 C20           -1.1810    -7.3944    -0.0165 C.3     
  21 C21           -0.7119    -8.8272    -2.0198 C.3     
  22 C22            0.4377   -10.8776    -0.2189 C.3     
  23 C23           -0.0132    -9.3784     1.7341 C.3     
  24 O24            2.2858    -6.6271    -0.0253 O.2     
  25 F25            2.3646     1.4927    -0.0120 F       
  26 F26           -2.4218     4.1588     0.0527 F       
  27 H27           -2.1103    -2.8415     0.0077 H       
  28 H28            2.1905    -2.7828    -0.0443 H       
  29 H29            2.0815     4.0853    -0.0005 H       
  30 H30           -2.1649     1.5645     0.0412 H       
  31 H31           -0.0674     5.2802     0.0310 H       
  32 H32           -1.8693    -9.4211    -0.2988 H       
  33 H33           -1.5755    -7.4149     0.9994 H       
  34 H34           -1.8890    -6.8824    -0.6681 H       
  35 H35           -0.5490    -9.8492    -2.3622 H       
  36 H36           -1.5704    -8.4022    -2.5398 H       
  37 H37            0.1738    -8.2279    -2.2306 H       
  38 H38            1.3093   -11.2902     0.2892 H       
  39 H39           -0.4436   -11.4665     0.0353 H       
  40 H40            0.5969   -10.9087    -1.2968 H       
  41 H41           -0.1740    -8.3454     2.0425 H       
  42 H42           -0.8929    -9.9726     1.9816 H       
  43 H43            0.8557    -9.7818     2.2542 H       
@<TRIPOS>BOND
   1    1    2 1
   2    1   14 ar
   3    1   11 ar
   4    2    3 3
   5    3    4 1
   6    4    5 ar
   7    4    8 ar
   8    5    9 ar
   9    5   27 1
  10    6    7 ar
  11    6   13 1
  12    6    9 ar
  13    7    8 ar
  14    8   28 1
  15   10   12 ar
  16   10   14 ar
  17   10   29 1
  18   11   15 ar
  19   11   30 1
  20   12   15 ar
  21   12   31 1
  22   13   16 am
  23   13   20 1
  24   14   25 1
  25   15   26 1
  26   16   17 1
  27   16   24 2
  28   17   18 1
  29   18   19 1
  30   18   22 1
  31   18   23 1
  32   19   20 1
  33   19   21 1
  34   19   32 1
  35   20   33 1
  36   20   34 1
  37   21   35 1
  38   21   36 1
  39   21   37 1
  40   22   38 1
  41   22   39 1
  42   22   40 1
  43   23   41 1
  44   23   42 1
  45   23   43 1

#	End of record

