#	Name: ASD01200293
#	Creating user name:	WinNT
#	Creation time:	15. 06. 2019 19:08

#	Modifying user name:	WinNT
#	Modification time:	15. 06. 2019 19:08

#	Program:	/corina/corina34_cracker 3.40 0067  02.08.2006

@<TRIPOS>MOLECULE
ASD01200293
  52   53    0    0    0
SMALL
NO_CHARGES


@<TRIPOS>ATOM
   1 C1             0.1570     1.5060     0.1125 C.3     
   2 C2             0.1565    -0.0238     0.0914 C.3     
   3 O3             0.7981    -0.5167     1.2693 O.3     
   4 C4            -1.2856    -0.5328     0.0453 C.3     
   5 C5             1.3502    -1.7566     1.1983 C.ar    
   6 C6             2.0818    -2.2500     2.2659 C.ar    
   7 C7             1.1754    -2.5285     0.0589 C.ar    
   8 C8             1.7367    -3.7948    -0.0189 C.ar    
   9 C9             2.4745    -4.2938     1.0417 C.ar    
  10 C10            2.6481    -3.5231     2.1919 C.ar    
  11 O11            1.5620    -4.5469    -1.1373 O.3     
  12 C12            2.2759    -5.7829    -1.2060 C.3     
  13 C13            1.3852    -6.9157    -0.6918 C.3     
  14 C14            2.6711    -6.0636    -2.6572 C.3     
  15 C15            3.4348    -4.0514     3.3264 C.2     
  16 O16            3.9315    -5.1587     3.2582 O.2     
  17 N17            3.6013    -3.3054     4.4365 N.am    
  18 C18            4.4273    -3.7557     5.4586 C.ar    
  19 N19            4.9708    -4.9621     5.3751 N.ar    
  20 C20            5.7595    -5.4315     6.3184 C.ar    
  21 C21            6.0493    -4.6608     7.4494 C.ar    
  22 C22            5.4859    -3.3788     7.5622 C.ar    
  23 C23            4.6764    -2.9308     6.5528 C.ar    
  24 C24            6.9291    -5.1845     8.5037 C.2     
  25 C25            7.4650    -6.4189     8.3849 C.2     
  26 C26            8.3138    -6.9241     9.4020 C.2     
  27 O27            8.8490    -8.1570     9.2834 O.3     
  28 O28            8.5596    -6.2460    10.3816 O.2     
  29 H29            1.1844     1.8686     0.1454 H       
  30 H30           -0.3324     1.8820    -0.7859 H       
  31 H31           -0.3806     1.8574     0.9932 H       
  32 H32            0.6942    -0.3752    -0.7893 H       
  33 H33           -1.8233    -0.1814     0.9259 H       
  34 H34           -1.7750    -0.1568    -0.8532 H       
  35 H35           -1.2860    -1.6226     0.0302 H       
  36 H36            2.2140    -1.6500     3.1542 H       
  37 H37            0.6003    -2.1426    -0.7699 H       
  38 H38            2.9108    -5.2798     0.9805 H       
  39 H39            3.1735    -5.7187    -0.5909 H       
  40 H40            1.9298    -7.8584    -0.7442 H       
  41 H41            1.1036    -6.7157     0.3420 H       
  42 H42            0.4876    -6.9799    -1.3069 H       
  43 H43            3.3057    -5.2566    -3.0235 H       
  44 H44            3.2157    -7.0064    -2.7096 H       
  45 H45            1.7736    -6.1278    -3.2723 H       
  46 H46            3.1443    -2.4540     4.5217 H       
  47 H47            6.1858    -6.4188     6.2188 H       
  48 H48            5.6899    -2.7594     8.4230 H       
  49 H49            4.2281    -1.9499     6.6088 H       
  50 H50            7.1473    -4.5824     9.3733 H       
  51 H51            7.2468    -7.0209     7.5152 H       
  52 H52            9.4134    -8.4138    10.0254 H       
@<TRIPOS>BOND
   1    1    2 1
   2    1   29 1
   3    1   30 1
   4    1   31 1
   5    2    3 1
   6    2    4 1
   7    2   32 1
   8    3    5 1
   9    4   33 1
  10    4   34 1
  11    4   35 1
  12    5    6 ar
  13    5    7 ar
  14    6   10 ar
  15    6   36 1
  16    7    8 ar
  17    7   37 1
  18    8    9 ar
  19    8   11 1
  20    9   10 ar
  21    9   38 1
  22   10   15 1
  23   11   12 1
  24   12   13 1
  25   12   14 1
  26   12   39 1
  27   13   40 1
  28   13   41 1
  29   13   42 1
  30   14   43 1
  31   14   44 1
  32   14   45 1
  33   15   16 2
  34   15   17 am
  35   17   18 1
  36   17   46 1
  37   18   19 ar
  38   18   23 ar
  39   19   20 ar
  40   20   21 ar
  41   20   47 1
  42   21   22 ar
  43   21   24 1
  44   22   23 ar
  45   22   48 1
  46   23   49 1
  47   24   25 2
  48   24   50 1
  49   25   26 1
  50   25   51 1
  51   26   27 1
  52   26   28 2
  53   27   52 1

#	End of record

