#	Name: ASD01880055
#	Creating user name:	WinNT
#	Creation time:	15. 06. 2019 19:39

#	Modifying user name:	WinNT
#	Modification time:	15. 06. 2019 19:39

#	Program:	/corina/corina34_cracker 3.40 0067  02.08.2006

@<TRIPOS>MOLECULE
ASD01880055
  43   47    0    0    0
SMALL
NO_CHARGES


@<TRIPOS>ATOM
   1 C1            -0.0169     1.3927     0.0097 C.ar    
   2 C2             0.0021    -0.0041     0.0020 C.ar    
   3 C3             1.2135    -0.6907    -0.0128 C.ar    
   4 C4             2.4022     0.0193    -0.0203 C.ar    
   5 C5             2.3727     1.4246    -0.0130 C.ar    
   6 C6             1.1522     2.0999     0.0023 C.ar    
   7 N7             3.6286    -0.6376    -0.0346 N.pl3   
   8 C8             4.7929     0.0687    -0.0416 C.2     
   9 N9             4.8015     1.4561    -0.0353 N.am    
  10 C10            3.6502     2.1585    -0.0210 C.2     
  11 N11            3.9493    -2.0026    -0.0437 N.2     
  12 C12            5.2606    -2.1201    -0.0558 C.2     
  13 C13            5.8179    -0.8302    -0.0548 C.2     
  14 C14            6.0812     2.1693    -0.0429 C.3     
  15 O15            3.6662     3.3751    -0.0158 O.2     
  16 C16           -1.2742    -0.7594     0.0101 C.ar    
  17 C17            6.0195    -3.3954    -0.0676 C.ar    
  18 C18            5.3413    -4.6126    -0.0670 C.ar    
  19 C19            6.0521    -5.7956    -0.0780 C.ar    
  20 C20            7.4351    -5.7744    -0.0892 C.ar    
  21 C21            8.1134    -4.5689    -0.0894 C.ar    
  22 C22            7.4126    -3.3799    -0.0852 C.ar    
  23 C23           -2.4985    -0.0851     0.0255 C.ar    
  24 C24           -3.6615    -0.8361     0.0326 C.ar    
  25 C25           -3.5757    -2.2162     0.0244 C.ar    
  26 N26           -2.4053    -2.8250     0.0099 N.ar    
  27 C27           -1.2725    -2.1532    -0.0031 C.ar    
  28 H28           -0.9612     1.9167     0.0170 H       
  29 H29            1.2257    -1.7707    -0.0180 H       
  30 H30            1.1314     3.1797     0.0076 H       
  31 H31            6.8715    -0.5928    -0.0627 H       
  32 H32            6.3898     2.3509    -1.0724 H       
  33 H33            5.9697     3.1212     0.4763 H       
  34 H34            6.8361     1.5664     0.4617 H       
  35 H35            4.2615    -4.6303    -0.0575 H       
  36 H36            5.5275    -6.7396    -0.0775 H       
  37 H37            7.9874    -6.7025    -0.0974 H       
  38 H38            9.1933    -4.5581    -0.0978 H       
  39 H39            7.9432    -2.4392    -0.0857 H       
  40 H40           -2.5362     0.9942     0.0319 H       
  41 H41           -4.6255    -0.3493     0.0448 H       
  42 H42           -4.4810    -2.8051     0.0303 H       
  43 H43           -0.3338    -2.6871    -0.0148 H       
@<TRIPOS>BOND
   1    1    2 ar
   2    1    6 ar
   3    1   28 1
   4    2    3 ar
   5    2   16 1
   6    3    4 ar
   7    3   29 1
   8    4    5 ar
   9    4    7 1
  10    5    6 ar
  11    5   10 1
  12    6   30 1
  13    7    8 1
  14    7   11 1
  15    8    9 1
  16    8   13 2
  17    9   10 am
  18    9   14 1
  19   10   15 2
  20   11   12 2
  21   12   13 1
  22   12   17 1
  23   13   31 1
  24   14   32 1
  25   14   33 1
  26   14   34 1
  27   16   23 ar
  28   16   27 ar
  29   17   18 ar
  30   17   22 ar
  31   18   19 ar
  32   18   35 1
  33   19   20 ar
  34   19   36 1
  35   20   21 ar
  36   20   37 1
  37   21   22 ar
  38   21   38 1
  39   22   39 1
  40   23   24 ar
  41   23   40 1
  42   24   25 ar
  43   24   41 1
  44   25   26 ar
  45   25   42 1
  46   26   27 ar
  47   27   43 1

#	End of record

