#	Name: ASD01812625
#	Creating user name:	WinNT
#	Creation time:	15. 06. 2019 19:28

#	Modifying user name:	WinNT
#	Modification time:	15. 06. 2019 19:28

#	Program:	/corina/corina34_cracker 3.40 0067  02.08.2006

@<TRIPOS>MOLECULE
ASD01812625
  56   60    0    0    0
SMALL
NO_CHARGES


@<TRIPOS>ATOM
   1 O1            -0.0163     1.3522     0.0095 O.3     
   2 C2             0.0021    -0.0041     0.0020 C.ar    
   3 C3             1.2105    -0.6847    -0.0132 C.ar    
   4 C4             1.2312    -2.0655    -0.0208 C.ar    
   5 C5             0.0448    -2.7828    -0.0128 C.ar    
   6 C6            -1.1603    -2.1223     0.0027 C.ar    
   7 C7            -1.2004    -0.7252     0.0155 C.ar    
   8 C8            -2.5947    -2.5891     0.0137 C.3     
   9 N9            -3.4200    -1.3759     0.0279 N.am    
  10 C10           -2.6104    -0.3028     0.0372 C.2     
  11 C11           -4.8845    -1.3401     0.0414 C.3     
  12 O12           -2.9891     0.8526     0.0485 O.2     
  13 C13            1.1734     2.0057     0.0016 C.ar    
  14 C14            1.8048     2.3329     1.2089 C.ar    
  15 C15            1.1984     1.9798     2.4572 C.1     
  16 C16            1.7735     2.3480    -1.2031 C.ar    
  17 C17            2.9856     3.0133    -1.2084 C.ar    
  18 C18            3.6092     3.3421    -0.0160 C.ar    
  19 C19            3.0296     3.0054     1.1881 C.ar    
  20 N20            0.7174     1.6997     3.4475 N.1     
  21 F21            1.1726     2.0305    -2.3707 F       
  22 C22           -5.3737    -1.3358     1.4668 C.ar    
  23 C23           -5.5681    -0.1348     2.1249 C.ar    
  24 C24           -6.0156    -0.1249     3.4305 C.ar    
  25 C25           -6.2721    -1.3278     4.0855 C.ar    
  26 C26           -6.0750    -2.5348     3.4174 C.ar    
  27 C27           -5.6322    -2.5327     2.1102 C.ar    
  28 C28           -6.7528    -1.3236     5.4890 C.ar    
  29 C29           -7.0090    -2.5275     6.1430 C.ar    
  30 C30           -7.4554    -2.5204     7.4478 C.ar    
  31 C31           -7.6500    -1.3157     8.1099 C.ar    
  32 C32           -7.3961    -0.1149     7.4609 C.ar    
  33 C33           -6.9437    -0.1159     6.1581 C.ar    
  34 O34           -8.0902    -1.3118     9.3953 O.3     
  35 C35           -8.2688    -0.0371    10.0160 C.3     
  36 H36            2.1387    -0.1327    -0.0195 H       
  37 H37            2.1758    -2.5889    -0.0333 H       
  38 H38            0.0677    -3.8625    -0.0192 H       
  39 H39           -2.8050    -3.1749    -0.8812 H       
  40 H40           -2.7882    -3.1845     0.9060 H       
  41 H41           -5.2306    -0.4387    -0.4642 H       
  42 H42           -5.2741    -2.2181    -0.4738 H       
  43 H43            3.4489     3.2777    -2.1475 H       
  44 H44            4.5560     3.8614    -0.0301 H       
  45 H45            3.5218     3.2608     2.1149 H       
  46 H46           -5.3690     0.7969     1.6163 H       
  47 H47           -6.1664     0.8134     3.9436 H       
  48 H48           -6.2719    -3.4700     3.9204 H       
  49 H49           -5.4829    -3.4674     1.5902 H       
  50 H50           -6.8585    -3.4649     5.6283 H       
  51 H51           -7.6540    -3.4529     7.9551 H       
  52 H52           -7.5490     0.8207     7.9782 H       
  53 H53           -6.7417     0.8184     5.6553 H       
  54 H54           -7.3184     0.4964    10.0303 H       
  55 H55           -9.0018     0.5413     9.4536 H       
  56 H56           -8.6225    -0.1768    11.0375 H       
@<TRIPOS>BOND
   1    1    2 1
   2    1   13 1
   3    2    3 ar
   4    2    7 ar
   5    3    4 ar
   6    3   36 1
   7    4    5 ar
   8    4   37 1
   9    5    6 ar
  10    5   38 1
  11    6    8 1
  12    6    7 ar
  13    7   10 1
  14    8    9 1
  15    8   39 1
  16    8   40 1
  17    9   10 am
  18    9   11 1
  19   10   12 2
  20   11   22 1
  21   11   41 1
  22   11   42 1
  23   13   16 ar
  24   13   14 ar
  25   14   15 1
  26   14   19 ar
  27   15   20 3
  28   16   17 ar
  29   16   21 1
  30   17   18 ar
  31   17   43 1
  32   18   19 ar
  33   18   44 1
  34   19   45 1
  35   22   23 ar
  36   22   27 ar
  37   23   24 ar
  38   23   46 1
  39   24   25 ar
  40   24   47 1
  41   25   26 ar
  42   25   28 1
  43   26   27 ar
  44   26   48 1
  45   27   49 1
  46   28   29 ar
  47   28   33 ar
  48   29   30 ar
  49   29   50 1
  50   30   31 ar
  51   30   51 1
  52   31   32 ar
  53   31   34 1
  54   32   33 ar
  55   32   52 1
  56   33   53 1
  57   34   35 1
  58   35   54 1
  59   35   55 1
  60   35   56 1

#	End of record

