#	Name: ASD00190029
#	Creating user name:	WinNT
#	Creation time:	15. 06. 2019 18:33

#	Modifying user name:	WinNT
#	Modification time:	15. 06. 2019 18:33

#	Program:	/corina/corina34_cracker 3.40 0067  02.08.2006

@<TRIPOS>MOLECULE
ASD00190029
  52   57    0    0    0
SMALL
NO_CHARGES


@<TRIPOS>ATOM
   1 C1            -0.0141     1.3575     0.0059 C.ar    
   2 C2             0.0051    -0.0052    -0.0093 C.ar    
   3 C3             1.2070    -0.7047    -0.0390 C.ar    
   4 C4             2.3992    -0.0413    -0.0531 C.ar    
   5 C5             2.4138     1.3571    -0.0380 C.ar    
   6 C6             1.1926     2.0734    -0.0083 C.ar    
   7 C7             3.6589     2.1125    -0.0526 C.ar    
   8 C8             3.5789     3.5086    -0.0363 C.ar    
   9 C9             2.3057     4.1210    -0.0064 C.ar    
  10 N10            1.1984     3.4146     0.0067 N.ar    
  11 N11            4.9901     1.8003    -0.0808 N.pl3   
  12 C12            5.6815     2.9727    -0.0813 C.2     
  13 N13            4.8504     3.9751    -0.0551 N.2     
  14 N14            2.2231     5.5041     0.0102 N.pl3   
  15 C15            0.9773     6.1309    -0.0801 C.ar    
  16 C16            7.1835     3.0929    -0.1073 C.3     
  17 C17            7.7450     2.9946     1.3220 C.3     
  18 C18            8.6769     1.7654     1.3457 C.3     
  19 C19            9.0940     1.5764    -0.1339 C.3     
  20 C20            7.7938     1.9201    -0.9022 C.3     
  21 C21            0.7422     7.3148     0.6048 C.ar    
  22 C22           -0.4908     7.9364     0.5157 C.ar    
  23 C23           -1.4913     7.3767    -0.2577 C.ar    
  24 C24           -1.2578     6.1944    -0.9418 C.ar    
  25 C25           -0.0282     5.5740    -0.8605 C.ar    
  26 C26           -0.9923     9.2139     1.1546 C.3     
  27 C27           -2.2483     9.6036     0.3466 C.3     
  28 C28           -2.7329     8.2403    -0.1907 C.3     
  29 H29           -0.9562     1.8853     0.0245 H       
  30 H30           -0.9272    -0.5503     0.0021 H       
  31 H31            1.1964    -1.7846    -0.0506 H       
  32 H32            3.3271    -0.5934    -0.0754 H       
  33 H33            5.3710     0.9084    -0.0970 H       
  34 H34            3.0301     6.0372     0.0846 H       
  35 H35            7.4741     4.0418    -0.5581 H       
  36 H36            8.3088     3.8954     1.5644 H       
  37 H37            6.9311     2.8599     2.0344 H       
  38 H38            9.5511     1.9615     1.9665 H       
  39 H39            8.1410     0.8874     1.7062 H       
  40 H40            9.8944     2.2665    -0.4008 H       
  41 H41            9.3929     0.5452    -0.3222 H       
  42 H42            7.1153     1.0670    -0.9047 H       
  43 H43            8.0236     2.2290    -1.9219 H       
  44 H44            1.5234     7.7518     1.2091 H       
  45 H45           -2.0405     5.7591    -1.5453 H       
  46 H46            0.1494     4.6527    -1.3953 H       
  47 H47           -1.2535     9.0377     2.1981 H       
  48 H48           -0.2368     9.9960     1.0799 H       
  49 H49           -3.0006    10.0547     0.9936 H       
  50 H50           -1.9891    10.2733    -0.4734 H       
  51 H51           -3.1661     8.3577    -1.1840 H       
  52 H52           -3.4618     7.8025     0.4913 H       
@<TRIPOS>BOND
   1    1    2 ar
   2    1    6 ar
   3    1   29 1
   4    2    3 ar
   5    2   30 1
   6    3    4 ar
   7    3   31 1
   8    4    5 ar
   9    4   32 1
  10    5    6 ar
  11    5    7 ar
  12    6   10 ar
  13    7    8 ar
  14    7   11 1
  15    8    9 ar
  16    8   13 1
  17    9   10 ar
  18    9   14 1
  19   11   12 1
  20   11   33 1
  21   12   13 2
  22   12   16 1
  23   14   15 1
  24   14   34 1
  25   15   21 ar
  26   15   25 ar
  27   16   17 1
  28   16   20 1
  29   16   35 1
  30   17   18 1
  31   17   36 1
  32   17   37 1
  33   18   19 1
  34   18   38 1
  35   18   39 1
  36   19   20 1
  37   19   40 1
  38   19   41 1
  39   20   42 1
  40   20   43 1
  41   21   22 ar
  42   21   44 1
  43   22   23 ar
  44   22   26 1
  45   23   24 ar
  46   23   28 1
  47   24   25 ar
  48   24   45 1
  49   25   46 1
  50   26   27 1
  51   26   47 1
  52   26   48 1
  53   27   28 1
  54   27   49 1
  55   27   50 1
  56   28   51 1
  57   28   52 1

#	End of record

