#	Name: ASD01810723
#	Creating user name:	WinNT
#	Creation time:	15. 06. 2019 19:25

#	Modifying user name:	WinNT
#	Modification time:	15. 06. 2019 19:25

#	Program:	/corina/corina34_cracker 3.40 0067  02.08.2006

@<TRIPOS>MOLECULE
ASD01810723
  48   51    0    0    0
SMALL
NO_CHARGES


@<TRIPOS>ATOM
   1 N1            -0.0153     1.2758     0.0091 N.pl3   
   2 N2             0.0021    -0.0041     0.0020 N.2     
   3 C3             1.0990    -0.7288    -0.0124 C.2     
   4 C4             2.4108    -0.0540    -0.0213 C.2     
   5 C5             2.3835     1.4204    -0.0131 C.ar    
   6 C6             3.5482     2.1832    -0.0197 C.ar    
   7 C7             3.4600     3.5483    -0.0111 C.ar    
   8 C8             2.2207     4.1742     0.0040 C.ar    
   9 C9             1.0569     3.4371     0.0108 C.ar    
  10 C10            1.1218     2.0463     0.0023 C.ar    
  11 C11            1.0188    -2.1998    -0.0191 C.2     
  12 O12            2.0366    -2.8637    -0.0324 O.2     
  13 O13           -0.1832    -2.8093    -0.0104 O.3     
  14 O14            3.4567    -0.6790    -0.0343 O.2     
  15 C15           -1.3141     1.9533     0.0188 C.3     
  16 C16           -2.5272     1.2466    -2.0580 C.ar    
  17 C17           -1.7661     2.1934    -1.3987 C.ar    
  18 C18           -1.4224     3.3675    -2.0542 C.ar    
  19 C19           -1.8576     3.5496    -3.3551 C.ar    
  20 C20           -2.6219     2.5533    -3.9590 C.ar    
  21 N21           -2.9294     1.4451    -3.2973 N.ar    
  22 N22           -4.1108     2.4147    -7.2661 N.pl3   
  23 N23           -3.3795     3.6055    -7.3513 N.2     
  24 C24           -2.7710     3.8019    -6.2120 C.2     
  25 C25           -3.0962     2.7333    -5.3529 C.2     
  26 C26           -3.9269     1.8937    -6.0375 C.2     
  27 C27           -4.9388     1.8379    -8.3282 C.3     
  28 C28           -0.1862    -4.2613    -0.0177 C.3     
  29 C29           -1.6297    -4.7684    -0.0061 C.3     
  30 H30            4.5143     1.7006    -0.0312 H       
  31 H31            4.3610     4.1437    -0.0158 H       
  32 H32            2.1685     5.2529     0.0110 H       
  33 H33            0.0989     3.9356     0.0229 H       
  34 H34           -2.0455     1.3295     0.5326 H       
  35 H35           -1.2222     2.9077     0.5374 H       
  36 H36           -2.7926     0.3300    -1.5522 H       
  37 H37           -0.8288     4.1223    -1.5599 H       
  38 H38           -1.6087     4.4515    -3.8946 H       
  39 H39           -2.1301     4.6371    -5.9710 H       
  40 H40           -4.3587     0.9777    -5.6620 H       
  41 H41           -4.3318     1.1706    -8.9401 H       
  42 H42           -5.7606     1.2764    -7.8838 H       
  43 H43           -5.3399     2.6375    -8.9509 H       
  44 H44            0.3181    -4.6211    -0.9145 H       
  45 H45            0.3356    -4.6301     0.8654 H       
  46 H46           -1.6319    -5.8583    -0.0116 H       
  47 H47           -2.1340    -4.4085     0.8907 H       
  48 H48           -2.1514    -4.3995    -0.8892 H       
@<TRIPOS>BOND
   1    1    2 1
   2    1   10 1
   3    1   15 1
   4    2    3 2
   5    3    4 1
   6    3   11 1
   7    4    5 1
   8    4   14 2
   9    5    6 ar
  10    5   10 ar
  11    6    7 ar
  12    6   30 1
  13    7    8 ar
  14    7   31 1
  15    8    9 ar
  16    8   32 1
  17    9   10 ar
  18    9   33 1
  19   11   12 2
  20   11   13 1
  21   13   28 1
  22   15   17 1
  23   15   34 1
  24   15   35 1
  25   16   17 ar
  26   16   21 ar
  27   16   36 1
  28   17   18 ar
  29   18   19 ar
  30   18   37 1
  31   19   20 ar
  32   19   38 1
  33   20   21 ar
  34   20   25 1
  35   22   23 1
  36   22   26 1
  37   22   27 1
  38   23   24 2
  39   24   25 1
  40   24   39 1
  41   25   26 2
  42   26   40 1
  43   27   41 1
  44   27   42 1
  45   27   43 1
  46   28   29 1
  47   28   44 1
  48   28   45 1
  49   29   46 1
  50   29   47 1
  51   29   48 1

#	End of record

