#	Name: ASD01911497
#	Creating user name:	WinNT
#	Creation time:	15. 06. 2019 19:57

#	Modifying user name:	WinNT
#	Modification time:	15. 06. 2019 19:57

#	Program:	/corina/corina34_cracker 3.40 0067  02.08.2006

@<TRIPOS>MOLECULE
ASD01911497
  81   84    0    0    0
SMALL
NO_CHARGES


@<TRIPOS>ATOM
   1 C1            -0.5700     1.5408    -1.3817 C.2     
   2 C2            -0.0811     0.1283    -1.1901 C.3     
   3 C3            -0.2767    -0.6595    -2.4870 C.3     
   4 O4             0.2096     2.4624    -1.3282 O.2     
   5 O5            -1.8706     1.7747    -1.6173 O.3     
   6 N6             0.1429    -2.0523    -2.2820 N.3     
   7 C7            -0.4190    -2.9293    -3.3179 C.3     
   8 C8            -0.3169    -4.3647    -2.8704 C.ar    
   9 C9            -1.3866    -4.9689    -2.2368 C.ar    
  10 C10           -1.2929    -6.2855    -1.8263 C.ar    
  11 C11           -0.1297    -6.9981    -2.0498 C.ar    
  12 C12            0.9397    -6.3942    -2.6843 C.ar    
  13 C13            0.8445    -5.0789    -3.0987 C.ar    
  14 C14            1.6073    -2.1600    -2.2385 C.3     
  15 C15            2.1928    -1.5551    -3.4884 C.ar    
  16 C16            2.6119    -0.2378    -3.4880 C.ar    
  17 C17            3.1489     0.3170    -4.6345 C.ar    
  18 C18            3.2673    -0.4455    -5.7814 C.ar    
  19 C19            2.8491    -1.7631    -5.7816 C.ar    
  20 C20            2.3160    -2.3192    -4.6338 C.ar    
  21 O21            1.3064     0.1466    -0.8485 O.3     
  22 Si22           1.5992    -0.0238     0.7469 Si      
  23 C23            0.5599    -1.4201     1.4249 C.ar    
  24 C24            0.6454    -2.6807     0.8642 C.ar    
  25 C25           -0.1237    -3.7140     1.3659 C.ar    
  26 C26           -0.9779    -3.4867     2.4288 C.ar    
  27 C27           -1.0627    -2.2263     2.9901 C.ar    
  28 C28           -0.2904    -1.1941     2.4911 C.ar    
  29 C29            3.4079    -0.4091     1.0103 C.ar    
  30 C30            3.7995    -1.6912     1.3477 C.ar    
  31 C31            5.1380    -1.9763     1.5427 C.ar    
  32 C32            6.0850    -0.9794     1.3999 C.ar    
  33 C33            5.6935     0.3024     1.0616 C.ar    
  34 C34            4.3554     0.5865     0.8623 C.ar    
  35 C35            1.1662     1.5582     1.6302 C.3     
  36 C36           -0.3406     1.8035     1.5279 C.3     
  37 C37            1.5658     1.4459     3.1029 C.3     
  38 C38            1.9177     2.7245     0.9854 C.3     
  39 C39           -2.2702     3.1597    -1.7919 C.3     
  40 C40           -3.7769     3.2272    -2.0490 C.3     
  41 H41           -0.6464    -0.3462    -0.3880 H       
  42 H42           -1.3285    -0.6350    -2.7719 H       
  43 H43            0.3245    -0.2117    -3.2783 H       
  44 H44           -1.4657    -2.6734    -3.4820 H       
  45 H45            0.1370    -2.7976    -4.2461 H       
  46 H46           -2.2954    -4.4122    -2.0622 H       
  47 H47           -2.1285    -6.7574    -1.3306 H       
  48 H48           -0.0563    -8.0266    -1.7285 H       
  49 H49            1.8486    -6.9508    -2.8586 H       
  50 H50            1.6787    -4.6081    -3.5976 H       
  51 H51            1.9850    -1.6274    -1.3657 H       
  52 H52            1.8926    -3.2101    -2.1749 H       
  53 H53            2.5194     0.3579    -2.5919 H       
  54 H54            3.4757     1.3464    -4.6343 H       
  55 H55            3.6862    -0.0118    -6.6774 H       
  56 H56            2.9412    -2.3587    -6.6778 H       
  57 H57            1.9926    -3.3497    -4.6329 H       
  58 H58            1.3128    -2.8583     0.0338 H       
  59 H59           -0.0574    -4.6987     0.9274 H       
  60 H60           -1.5793    -4.2938     2.8203 H       
  61 H61           -1.7303    -2.0487     3.8202 H       
  62 H62           -0.3539    -0.2103     2.9321 H       
  63 H63            3.0597    -2.4700     1.4593 H       
  64 H64            5.4439    -2.9778     1.8070 H       
  65 H65            7.1306    -1.2020     1.5529 H       
  66 H66            6.4333     1.0813     0.9503 H       
  67 H67            4.0499     1.5872     0.5944 H       
  68 H68           -0.8736     1.0204     2.0671 H       
  69 H69           -0.5812     2.7732     1.9638 H       
  70 H70           -0.6403     1.7917     0.4800 H       
  71 H71            2.6499     1.3635     3.1799 H       
  72 H72            1.2299     2.3334     3.6392 H       
  73 H73            1.1022     0.5609     3.5386 H       
  74 H74            1.7381     2.7225    -0.0897 H       
  75 H75            1.5648     3.6639     1.4110 H       
  76 H76            2.9857     2.6181     1.1755 H       
  77 H77           -2.0298     3.7236    -0.8906 H       
  78 H78           -1.7372     3.5874    -2.6410 H       
  79 H79           -4.0769     4.2669    -2.1800 H       
  80 H80           -4.0173     2.6633    -2.9503 H       
  81 H81           -4.3099     2.7995    -1.1998 H       
@<TRIPOS>BOND
   1    1    2 1
   2    1    4 2
   3    1    5 1
   4    2    3 1
   5    2   21 1
   6    2   41 1
   7    3    6 1
   8    3   42 1
   9    3   43 1
  10    5   39 1
  11    6    7 1
  12    6   14 1
  13    7    8 1
  14    7   44 1
  15    7   45 1
  16    8    9 ar
  17    8   13 ar
  18    9   10 ar
  19    9   46 1
  20   10   11 ar
  21   10   47 1
  22   11   12 ar
  23   11   48 1
  24   12   13 ar
  25   12   49 1
  26   13   50 1
  27   14   15 1
  28   14   51 1
  29   14   52 1
  30   15   16 ar
  31   15   20 ar
  32   16   17 ar
  33   16   53 1
  34   17   18 ar
  35   17   54 1
  36   18   19 ar
  37   18   55 1
  38   19   20 ar
  39   19   56 1
  40   20   57 1
  41   21   22 1
  42   22   23 1
  43   22   29 1
  44   22   35 1
  45   23   24 ar
  46   23   28 ar
  47   24   25 ar
  48   24   58 1
  49   25   26 ar
  50   25   59 1
  51   26   27 ar
  52   26   60 1
  53   27   28 ar
  54   27   61 1
  55   28   62 1
  56   29   30 ar
  57   29   34 ar
  58   30   31 ar
  59   30   63 1
  60   31   32 ar
  61   31   64 1
  62   32   33 ar
  63   32   65 1
  64   33   34 ar
  65   33   66 1
  66   34   67 1
  67   35   36 1
  68   35   38 1
  69   35   37 1
  70   36   68 1
  71   36   69 1
  72   36   70 1
  73   37   71 1
  74   37   72 1
  75   37   73 1
  76   38   74 1
  77   38   75 1
  78   38   76 1
  79   39   40 1
  80   39   77 1
  81   39   78 1
  82   40   79 1
  83   40   80 1
  84   40   81 1

#	End of record

