#	Name: ASD03490043
#	Creating user name:	WinNT
#	Creation time:	15. 06. 2019 20:42

#	Modifying user name:	WinNT
#	Modification time:	15. 06. 2019 20:42

#	Program:	/corina/corina34_cracker 3.40 0067  02.08.2006

@<TRIPOS>MOLECULE
ASD03490043
  59   58    0    0    0
SMALL
NO_CHARGES


@<TRIPOS>ATOM
   1 O1            -0.3859     0.5480    -1.0108 O.co2   
   2 C2            -0.2330     1.7368    -0.7878 C.2     
   3 C3             1.1458     2.2812    -0.5164 C.3     
   4 O4            -1.1948     2.4860    -0.7894 O.co2   
   5 O5             2.1111     1.2419    -0.6893 O.3     
   6 C6             1.4449     3.4231    -1.4914 C.3     
   7 O7             1.2089     2.7722     0.8242 O.3     
   8 C8             2.4877     3.2905     1.1961 C.3     
   9 C9             2.8406     4.4730     0.2901 C.3     
  10 C10            2.8226     4.0105    -1.1703 C.3     
  11 C11            2.4448     3.7582     2.6522 C.3     
  12 C12            2.2568     2.5493     3.5709 C.3     
  13 C13            2.3386     3.0004     5.0306 C.3     
  14 O14            2.2797     1.8575     5.8864 O.3     
  15 O15            0.9788     1.9588     3.3257 O.3     
  16 C16            1.8141     5.5907     0.4853 C.3     
  17 O17            2.0772     6.6462    -0.4414 O.3     
  18 O18            3.8259     3.0123    -1.3680 O.3     
  19 N19            1.9084     6.1070     1.8531 N.am    
  20 O20           -0.2978     6.2760     2.0137 O.2     
  21 C21            0.7883     6.4209     2.5336 C.2     
  22 C22            0.8853     6.9520     3.9406 C.3     
  23 H23            1.9829     0.4843    -0.1021 H       
  24 H24            1.4407     3.0409    -2.5122 H       
  25 H25            0.6854     4.1982    -1.3885 H       
  26 H26            3.2417     2.5110     1.0866 H       
  27 H27            3.8346     4.8418     0.5432 H       
  28 H28            3.0181     4.8603    -1.8243 H       
  29 H29            3.3796     4.2610     2.9000 H       
  30 H30            1.6133     4.4500     2.7872 H       
  31 H31            3.0395     1.8170     3.3725 H       
  32 H32            3.2771     3.5296     5.1953 H       
  33 H33            1.5032     3.6643     5.2531 H       
  34 H34            2.3265     2.0690     6.8288 H       
  35 H35            0.2336     2.5548     3.4823 H       
  36 H36            0.8120     5.1978     0.3135 H       
  37 H37            2.9218     7.0946    -0.2975 H       
  38 H38            3.8709     2.6736    -2.2726 H       
  39 H39            2.7771     6.2229     2.2689 H       
  40 H40            1.9331     7.0127     4.2346 H       
  41 H41            0.4370     7.9445     3.9860 H       
  42 H42            0.3558     6.2828     4.6188 H       
  43 C43            9.8727    18.0002    15.1958 C.3     
  44 C44            9.8935    16.4704    15.1874 C.3     
  45 N45           10.5810    15.9966    13.9787 N.4     
  46 C46           10.6010    14.5278    13.9707 C.3     
  47 C47           11.3171    14.0344    12.7119 C.3     
  48 H48           10.8953    18.3775    15.1880 H       
  49 H49            9.3455    18.3613    14.3127 H       
  50 H50            9.3625    18.3517    16.0926 H       
  51 H51           10.4206    16.1093    16.0704 H       
  52 H52            8.8709    16.0931    15.1951 H       
  53 H53           10.0930    16.3309    13.1613 H       
  54 H54           11.5276    16.3459    13.9716 H       
  55 H55           11.1281    14.1667    14.8537 H       
  56 H56            9.5784    14.1505    13.9784 H       
  57 H57           10.7899    14.3955    11.8288 H       
  58 H58           12.3397    14.4117    12.7041 H       
  59 H59           11.3319    12.9445    12.7059 H       
@<TRIPOS>BOND
   1    1    2 ar
   2    2    3 1
   3    2    4 ar
   4    3    5 1
   5    3    6 1
   6    3    7 1
   7    5   23 1
   8    6   10 1
   9    6   24 1
  10    6   25 1
  11    7    8 1
  12    8    9 1
  13    8   11 1
  14    8   26 1
  15    9   10 1
  16    9   16 1
  17    9   27 1
  18   10   18 1
  19   10   28 1
  20   11   12 1
  21   11   29 1
  22   11   30 1
  23   12   13 1
  24   12   15 1
  25   12   31 1
  26   13   14 1
  27   13   32 1
  28   13   33 1
  29   14   34 1
  30   15   35 1
  31   16   17 1
  32   16   19 1
  33   16   36 1
  34   17   37 1
  35   18   38 1
  36   19   21 am
  37   19   39 1
  38   20   21 2
  39   21   22 1
  40   22   40 1
  41   22   41 1
  42   22   42 1
  43   43   44 1
  44   43   48 1
  45   43   49 1
  46   43   50 1
  47   44   45 1
  48   44   51 1
  49   44   52 1
  50   45   46 1
  51   45   53 1
  52   45   54 1
  53   46   47 1
  54   46   55 1
  55   46   56 1
  56   47   57 1
  57   47   58 1
  58   47   59 1

#	End of record

