#	Name: ASD00100147
#	Creating user name:	WinNT
#	Creation time:	15. 06. 2019 18:30

#	Modifying user name:	WinNT
#	Modification time:	15. 06. 2019 18:30

#	Program:	/corina/corina34_cracker 3.40 0067  02.08.2006

@<TRIPOS>MOLECULE
ASD00100147
  42   44    0    0    0
SMALL
NO_CHARGES


@<TRIPOS>ATOM
   1 N1            -0.1249     1.5357     0.3558 N.pl3   
   2 C2            -0.0181     0.1671     0.1770 C.2     
   3 N3             1.1017    -0.4989     0.0326 N.2     
   4 C4             0.8188    -1.8170    -0.1190 C.2     
   5 C5            -0.5282    -1.9631    -0.0651 C.2     
   6 N6            -1.0578    -0.7094     0.1279 N.pl3   
   7 C7            -2.4791    -0.3778     0.2545 C.3     
   8 C8            -3.0249     0.0166    -1.0937 C.ar    
   9 C9            -3.4581    -0.9592    -1.9799 C.ar    
  10 C10           -3.9599    -0.5930    -3.2202 C.ar    
  11 C11           -4.0272     0.7419    -3.5701 C.ar    
  12 C12           -3.5946     1.7122    -2.6855 C.ar    
  13 C13           -3.0996     1.3500    -1.4461 C.ar    
  14 O14           -3.3905    -2.2716    -1.6336 O.3     
  15 C15           -3.8541    -3.2212    -2.5956 C.3     
  16 C16            1.8081    -2.9059    -0.3099 C.ar    
  17 C17            3.1704    -2.6134    -0.3455 C.ar    
  18 C18            4.0878    -3.6280    -0.5227 C.ar    
  19 C19            3.6555    -4.9393    -0.6654 C.ar    
  20 C20            2.2995    -5.2339    -0.6303 C.ar    
  21 C21            1.3775    -4.2243    -0.4482 C.ar    
  22 O22            4.5619    -5.9369    -0.8403 O.3     
  23 C23            4.0481    -7.2630    -0.9805 C.3     
  24 F24            3.3268    -7.6075     0.1677 F       
  25 F25            3.2053    -7.3211    -2.0956 F       
  26 H26            0.6751     2.0786     0.4342 H       
  27 H27           -0.9998     1.9524     0.3989 H       
  28 H28           -1.0791    -2.8879    -0.1530 H       
  29 H29           -3.0230    -1.2459     0.6268 H       
  30 H30           -2.5980     0.4518     0.9514 H       
  31 H31           -4.2974    -1.3507    -3.9118 H       
  32 H32           -4.4179     1.0276    -4.5356 H       
  33 H33           -3.6473     2.7551    -2.9612 H       
  34 H34           -2.7667     2.1102    -0.7549 H       
  35 H35           -3.7447    -4.2285    -2.1938 H       
  36 H36           -4.9041    -3.0306    -2.8174 H       
  37 H37           -3.2672    -3.1288    -3.5094 H       
  38 H38            3.5073    -1.5932    -0.2349 H       
  39 H39            5.1435    -3.4020    -0.5507 H       
  40 H40            1.9663    -6.2551    -0.7420 H       
  41 H41            0.3228    -4.4547    -0.4165 H       
  42 H42            4.8749    -7.9608    -1.1131 H       
@<TRIPOS>BOND
   1    1    2 1
   2    1   26 1
   3    1   27 1
   4    2    3 2
   5    2    6 1
   6    3    4 1
   7    4    5 2
   8    4   16 1
   9    5    6 1
  10    5   28 1
  11    6    7 1
  12    7    8 1
  13    7   29 1
  14    7   30 1
  15    8    9 ar
  16    8   13 ar
  17    9   10 ar
  18    9   14 1
  19   10   11 ar
  20   10   31 1
  21   11   12 ar
  22   11   32 1
  23   12   13 ar
  24   12   33 1
  25   13   34 1
  26   14   15 1
  27   15   35 1
  28   15   36 1
  29   15   37 1
  30   16   17 ar
  31   16   21 ar
  32   17   18 ar
  33   17   38 1
  34   18   19 ar
  35   18   39 1
  36   19   20 ar
  37   19   22 1
  38   20   21 ar
  39   20   40 1
  40   21   41 1
  41   22   23 1
  42   23   24 1
  43   23   25 1
  44   23   42 1

#	End of record

