#	Name: ASD00110052
#	Creating user name:	WinNT
#	Creation time:	15. 06. 2019 18:30

#	Modifying user name:	WinNT
#	Modification time:	15. 06. 2019 18:30

#	Program:	/corina/corina34_cracker 3.40 0067  02.08.2006

@<TRIPOS>MOLECULE
ASD00110052
  40   43    0    0    0
SMALL
NO_CHARGES


@<TRIPOS>ATOM
   1 C1            -0.0170     1.4026     0.0098 C.ar    
   2 C2             0.0021    -0.0041     0.0020 C.ar    
   3 N3            -1.3098    -0.4286     0.0130 N.pl3   
   4 C4            -2.1484     0.6549     0.0273 C.2     
   5 C5            -1.4302     1.7890     0.0312 C.2     
   6 C6             1.1834     2.1154     0.0021 C.ar    
   7 C7             2.3723     1.4419    -0.0128 C.ar    
   8 C8             2.3963     0.0539    -0.0210 C.ar    
   9 C9             1.2235    -0.6691    -0.0135 C.ar    
  10 C10           -1.9747     3.1941     0.0460 C.3     
  11 N11           -1.9363     3.7470    -1.3102 N.pl3   
  12 C12           -2.3929     5.0457    -1.5483 C.ar    
  13 C13           -2.8851     5.8217    -0.5068 C.ar    
  14 N14           -3.3167     7.0475    -0.7278 N.ar    
  15 C15           -3.3000     7.5834    -1.9324 C.ar    
  16 C16           -2.8252     6.8732    -3.0197 C.ar    
  17 C17           -2.3558     5.5837    -2.8328 C.ar    
  18 C18           -1.7232    -1.7668     0.0096 C.ar    
  19 C19           -2.6571    -2.2089     0.9372 C.ar    
  20 C20           -1.2041    -2.6529    -0.9252 C.ar    
  21 C21           -1.6137    -3.9719    -0.9259 C.ar    
  22 C22           -2.5397    -4.4104     0.0028 C.ar    
  23 C23           -3.0627    -3.5291     0.9313 C.ar    
  24 H24           -3.2272     0.6040     0.0380 H       
  25 H25            1.1724     3.1953     0.0077 H       
  26 H26            3.3006     1.9938    -0.0187 H       
  27 H27            3.3437    -0.4643    -0.0335 H       
  28 H28            1.2525    -1.7487    -0.0198 H       
  29 H29           -3.0041     3.1812     0.4041 H       
  30 H30           -1.3676     3.8121     0.7075 H       
  31 H31           -1.5940     3.2113    -2.0428 H       
  32 H32           -2.9149     5.4167     0.4939 H       
  33 H33           -3.6627     8.5911    -2.0719 H       
  34 H34           -2.8162     7.3206    -4.0026 H       
  35 H35           -1.9792     5.0060    -3.6640 H       
  36 H36           -3.0656    -1.5211     1.6629 H       
  37 H37           -0.4812    -2.3109    -1.6510 H       
  38 H38           -1.2107    -4.6615    -1.6529 H       
  39 H39           -2.8584    -5.4423     0.0002 H       
  40 H40           -3.7854    -3.8746     1.6556 H       
@<TRIPOS>BOND
   1    1    2 ar
   2    1    6 ar
   3    1    5 1
   4    2    3 1
   5    2    9 ar
   6    3    4 1
   7    3   18 1
   8    4    5 2
   9    4   24 1
  10    5   10 1
  11    6    7 ar
  12    6   25 1
  13    7    8 ar
  14    7   26 1
  15    8    9 ar
  16    8   27 1
  17    9   28 1
  18   10   11 1
  19   10   29 1
  20   10   30 1
  21   11   12 1
  22   11   31 1
  23   12   13 ar
  24   12   17 ar
  25   13   14 ar
  26   13   32 1
  27   14   15 ar
  28   15   16 ar
  29   15   33 1
  30   16   17 ar
  31   16   34 1
  32   17   35 1
  33   18   19 ar
  34   18   20 ar
  35   19   23 ar
  36   19   36 1
  37   20   21 ar
  38   20   37 1
  39   21   22 ar
  40   21   38 1
  41   22   23 ar
  42   22   39 1
  43   23   40 1

#	End of record

