#	Name: ASD08070025
#	Creating user name:	WinNT
#	Creation time:	15. 06. 2019 21:14

#	Modifying user name:	WinNT
#	Modification time:	15. 06. 2019 21:14

#	Program:	/corina/corina34_cracker 3.40 0067  02.08.2006

@<TRIPOS>MOLECULE
ASD08070025
  39   40    0    0    0
SMALL
NO_CHARGES


@<TRIPOS>ATOM
   1 C1            -0.0169     1.3976     0.0097 C.ar    
   2 C2             0.0021    -0.0041     0.0020 C.ar    
   3 C3            -1.1859    -0.7233     0.0099 C.ar    
   4 C4            -2.4038    -0.0492     0.0256 C.ar    
   5 C5            -2.4230     1.3522     0.0333 C.ar    
   6 C6            -1.2640     2.0597     0.0306 C.ar    
   7 N7             1.2244     1.9130     0.0006 N.2     
   8 C8             2.2120     1.0979    -0.0132 C.2     
   9 S9             1.6843    -0.5249    -0.0168 S.3     
  10 C10           -3.6701    -0.8074     0.0335 C.2     
  11 N11           -4.8478    -0.1522     0.0487 N.am    
  12 O12           -3.6508    -2.0231     0.0264 O.2     
  13 C13           -6.1047    -0.9048     0.0566 C.3     
  14 C14           -7.2078    -0.0487     0.6818 C.3     
  15 C15           -6.4916    -1.2665    -1.3788 C.3     
  16 C16           -5.4502    -2.2238    -1.9619 C.3     
  17 C17           -6.8809     0.2087     2.1542 C.3     
  18 C18           -5.8371    -2.5855    -3.3974 C.3     
  19 C19           -7.9841     1.0649     2.7794 C.3     
  20 H20           -1.1649    -1.8031     0.0035 H       
  21 H21           -3.3684     1.8742     0.0454 H       
  22 H22           -1.2964     3.1392     0.0366 H       
  23 H23            3.2489     1.3997    -0.0211 H       
  24 H24           -4.8632     0.8176     0.0544 H       
  25 H25           -5.9783    -1.8171     0.6396 H       
  26 H26           -7.2738     0.9020     0.1527 H       
  27 H27           -8.1606    -0.5728     0.6074 H       
  28 H28           -7.4694    -1.7480    -1.3812 H       
  29 H29           -6.5312    -0.3605    -1.9837 H       
  30 H30           -4.4724    -1.7422    -1.9596 H       
  31 H31           -5.4105    -3.1297    -1.3571 H       
  32 H32           -6.8149    -0.7420     2.6833 H       
  33 H33           -5.9281     0.7328     2.2285 H       
  34 H34           -5.8768    -1.6795    -4.0022 H       
  35 H35           -5.0952    -3.2675    -3.8128 H       
  36 H36           -6.8150    -3.0670    -3.3997 H       
  37 H37           -8.9369     0.5408     2.7050 H       
  38 H38           -7.7512     1.2482     3.8283 H       
  39 H39           -8.0500     2.0155     2.2503 H       
@<TRIPOS>BOND
   1    1    2 ar
   2    1    7 1
   3    1    6 ar
   4    2    3 ar
   5    2    9 1
   6    3    4 ar
   7    3   20 1
   8    4    5 ar
   9    4   10 1
  10    5    6 ar
  11    5   21 1
  12    6   22 1
  13    7    8 2
  14    8    9 1
  15    8   23 1
  16   10   11 am
  17   10   12 2
  18   11   13 1
  19   11   24 1
  20   13   14 1
  21   13   15 1
  22   13   25 1
  23   14   17 1
  24   14   26 1
  25   14   27 1
  26   15   16 1
  27   15   28 1
  28   15   29 1
  29   16   18 1
  30   16   30 1
  31   16   31 1
  32   17   19 1
  33   17   32 1
  34   17   33 1
  35   18   34 1
  36   18   35 1
  37   18   36 1
  38   19   37 1
  39   19   38 1
  40   19   39 1

#	End of record

