#	Name: ASD01813057
#	Creating user name:	WinNT
#	Creation time:	15. 06. 2019 19:29

#	Modifying user name:	WinNT
#	Modification time:	15. 06. 2019 19:29

#	Program:	/corina/corina34_cracker 3.40 0067  02.08.2006

@<TRIPOS>MOLECULE
ASD01813057
  60   65    0    0    0
SMALL
NO_CHARGES


@<TRIPOS>ATOM
   1 C1            -0.0051     1.3752    -0.1391 C.ar    
   2 C2             0.0214    -0.0022    -0.2294 C.ar    
   3 C3             1.2319    -0.6781    -0.2604 C.ar    
   4 C4             2.4133     0.0208    -0.2019 C.ar    
   5 C5             2.4054     1.4160    -0.1107 C.ar    
   6 C6             1.1795     2.0945    -0.0791 C.ar    
   7 C7             3.8628    -0.3964    -0.2139 C.3     
   8 N8             4.6459     0.8413    -0.1247 N.am    
   9 C9             3.8003     1.8845    -0.0653 C.2     
  10 C10            6.1083     0.9261    -0.1033 C.3     
  11 C11            6.6251     1.0477    -1.5137 C.ar    
  12 O12            1.1515     3.4479     0.0091 O.3     
  13 O13            4.1393     3.0494     0.0148 O.2     
  14 C14            6.7910     2.2980    -2.0814 C.ar    
  15 C15            7.2645     2.4150    -3.3727 C.ar    
  16 C16            7.5753     1.2710    -4.1042 C.ar    
  17 C17            7.4064     0.0143    -3.5276 C.ar    
  18 C18            6.9372    -0.0912    -2.2338 C.ar    
  19 C19            8.4260     0.3594    -6.3190 C.2     
  20 C20            8.0845     1.3908    -5.4938 C.2     
  21 C21            8.3028     2.5899    -6.1997 C.2     
  22 N22            8.7527     2.2851    -7.3881 N.2     
  23 N23            8.8387     0.8912    -7.4872 N.pl3   
  24 C24            9.2984     0.1401    -8.6580 C.3     
  25 C25           -0.1276     4.0779    -0.0868 C.3     
  26 C26           -0.7373     4.1768     1.2881 C.ar    
  27 C27           -1.3970     5.3044     1.7216 C.ar    
  28 C28           -1.5593     6.5337     0.8688 C.3     
  29 C29           -1.3001     6.2052    -0.6005 C.3     
  30 C30            0.0396     5.4662    -0.7008 C.3     
  31 N31           -0.6208     3.1251     2.0885 N.ar    
  32 C32           -1.1208     3.1064     3.3050 C.ar    
  33 C33           -1.7991     4.2022     3.8040 C.ar    
  34 C34           -1.9413     5.3218     3.0020 C.ar    
  35 H35           -0.9516     1.8949    -0.1195 H       
  36 H36           -0.9048    -0.5558    -0.2756 H       
  37 H37            1.2460    -1.7557    -0.3304 H       
  38 H38            4.0755    -1.0370     0.6420 H       
  39 H39            4.0943    -0.9203    -1.1414 H       
  40 H40            6.4132     1.8003     0.4720 H       
  41 H41            6.5177     0.0271     0.3574 H       
  42 H42            6.5494     3.1843    -1.5135 H       
  43 H43            7.3933     3.3917    -3.8152 H       
  44 H44            7.6459    -0.8758    -4.0905 H       
  45 H45            6.8097    -1.0650    -1.7844 H       
  46 H46            8.3786    -0.6924    -6.0784 H       
  47 H47            8.1284     3.5874    -5.8244 H       
  48 H48            8.4491    -0.0807    -9.3045 H       
  49 H49           10.0284     0.7346    -9.2074 H       
  50 H50            9.7599    -0.7925    -8.3332 H       
  51 H51           -0.7764     3.4786    -0.7255 H       
  52 H52           -2.5743     6.9158     0.9782 H       
  53 H53           -0.8518     7.2951     1.1972 H       
  54 H54           -2.0996     5.5697    -0.9812 H       
  55 H55           -1.2554     7.1270    -1.1805 H       
  56 H56            0.8045     6.0186    -0.1550 H       
  57 H57            0.3283     5.3715    -1.7476 H       
  58 H58           -1.0004     2.2264     3.9195 H       
  59 H59           -2.2111     4.1855     4.8022 H       
  60 H60           -2.4661     6.1936     3.3640 H       
@<TRIPOS>BOND
   1    1    2 ar
   2    1    6 ar
   3    1   35 1
   4    2    3 ar
   5    2   36 1
   6    3    4 ar
   7    3   37 1
   8    4    7 1
   9    4    5 ar
  10    5    6 ar
  11    5    9 1
  12    6   12 1
  13    7    8 1
  14    7   38 1
  15    7   39 1
  16    8    9 am
  17    8   10 1
  18    9   13 2
  19   10   11 1
  20   10   40 1
  21   10   41 1
  22   11   14 ar
  23   11   18 ar
  24   12   25 1
  25   14   15 ar
  26   14   42 1
  27   15   16 ar
  28   15   43 1
  29   16   17 ar
  30   16   20 1
  31   17   18 ar
  32   17   44 1
  33   18   45 1
  34   19   20 2
  35   19   23 1
  36   19   46 1
  37   20   21 1
  38   21   22 2
  39   21   47 1
  40   22   23 1
  41   23   24 1
  42   24   48 1
  43   24   49 1
  44   24   50 1
  45   25   26 1
  46   25   30 1
  47   25   51 1
  48   26   31 ar
  49   26   27 ar
  50   27   28 1
  51   27   34 ar
  52   28   29 1
  53   28   52 1
  54   28   53 1
  55   29   30 1
  56   29   54 1
  57   29   55 1
  58   30   56 1
  59   30   57 1
  60   31   32 ar
  61   32   33 ar
  62   32   58 1
  63   33   34 ar
  64   33   59 1
  65   34   60 1

#	End of record

