#	Name: ASD06020167
#	Creating user name:	WinNT
#	Creation time:	15. 06. 2019 21:04

#	Modifying user name:	WinNT
#	Modification time:	15. 06. 2019 21:04

#	Program:	/corina/corina34_cracker 3.40 0067  02.08.2006

@<TRIPOS>MOLECULE
ASD06020167
  25   26    0    0    0
SMALL
NO_CHARGES


@<TRIPOS>ATOM
   1 C1            -0.6546     1.5500    -1.0714 C.2     
   2 C2            -0.5337     0.0809    -1.1427 C.ar    
   3 C3             0.6215    -0.5528    -0.6750 C.ar    
   4 C4             0.7273    -1.9272    -0.7452 C.ar    
   5 C5            -0.3061    -2.6788    -1.2767 C.ar    
   6 C6            -1.4522    -2.0610    -1.7417 C.ar    
   7 C7            -1.5764    -0.6855    -1.6733 C.ar    
   8 O8            -0.2721     2.2372    -1.9986 O.2     
   9 N9            -1.1942     2.1295     0.0193 N.am    
  10 F10           -2.6994    -0.0834    -2.1224 F       
  11 Cl11           1.9200     0.3869    -0.0082 Cl      
  12 C12           -2.3140     5.6288    -0.1326 C.ar    
  13 C13           -2.3333     4.2539    -0.2610 C.ar    
  14 C14           -1.2148     3.5210     0.1323 C.ar    
  15 C15           -0.1162     4.2145     0.6427 C.ar    
  16 C16           -0.1776     5.5911     0.7383 C.ar    
  17 N17           -1.2561     6.2483     0.3546 N.ar    
  18 F18            0.9910     3.5489     1.0378 F       
  19 Br19          -3.8561     3.3778    -0.9603 Br      
  20 H20            1.6193    -2.4176    -0.3845 H       
  21 H21           -0.2166    -3.7538    -1.3289 H       
  22 H22           -2.2542    -2.6545    -2.1551 H       
  23 H23           -1.5681     1.5799     0.7257 H       
  24 H24           -3.1746     6.2047    -0.4392 H       
  25 H25            0.6673     6.1365     1.1322 H       
@<TRIPOS>BOND
   1    1    2 1
   2    1    8 2
   3    1    9 am
   4    2    3 ar
   5    2    7 ar
   6    3    4 ar
   7    3   11 1
   8    4    5 ar
   9    4   20 1
  10    5    6 ar
  11    5   21 1
  12    6    7 ar
  13    6   22 1
  14    7   10 1
  15    9   14 1
  16    9   23 1
  17   12   13 ar
  18   12   17 ar
  19   12   24 1
  20   13   14 ar
  21   13   19 1
  22   14   15 ar
  23   15   16 ar
  24   15   18 1
  25   16   17 ar
  26   16   25 1

#	End of record

