#	Name: ASD01148534
#	Creating user name:	WinNT
#	Creation time:	15. 06. 2019 19:02

#	Modifying user name:	WinNT
#	Modification time:	15. 06. 2019 19:02

#	Program:	/corina/corina34_cracker 3.40 0067  02.08.2006

@<TRIPOS>MOLECULE
ASD01148534
  58   62    0    0    0
SMALL
NO_CHARGES


@<TRIPOS>ATOM
   1 C1            -0.0180     1.4360     0.0450 C.ar    
   2 C2            -0.0166     0.0527     0.0405 C.ar    
   3 C3             1.1826    -0.6373     0.0176 C.ar    
   4 C4             2.3780     0.0557    -0.0008 C.ar    
   5 C5             2.3760     1.4384     0.0038 C.ar    
   6 C6             1.1785     2.1282     0.0267 C.ar    
   7 C7             3.6800     2.1935    -0.0157 C.3     
   8 O8             4.6901     1.4604    -0.7379 O.3     
   9 C9             3.5603     3.4832    -0.8622 C.3     
  10 C10            4.0470     3.0294    -2.2254 C.2     
  11 N11            4.6599     1.9008    -2.0811 N.2     
  12 C12            3.8535     3.7504    -3.4951 C.ar    
  13 C13            4.3767     3.1972    -4.7419 C.ar    
  14 C14            3.1679     4.9570    -3.5157 C.ar    
  15 C15            2.9712     5.6552    -4.6941 C.ar    
  16 C16            3.4510     5.1790    -5.9063 C.ar    
  17 C17            4.1756     3.9112    -5.9468 C.ar    
  18 C18            3.2260     5.9450    -7.1457 C.2     
  19 O19            3.7376     5.5807    -8.1870 O.2     
  20 N20            2.4532     7.0490    -7.1247 N.am    
  21 C21            4.1462     2.5122     1.4062 C.3     
  22 F22            4.3114     1.3209     2.1208 F       
  23 F23            5.3645     3.1980     1.3548 F       
  24 F24            3.1890     3.3092     2.0432 F       
  25 Cl25          -1.5187    -0.8172     0.0641 Cl      
  26 C26            2.2297     7.8102    -8.3563 C.3     
  27 C27            1.3375     8.9889    -8.0634 C.ar    
  28 N28            0.0283     8.8325    -8.0688 N.ar    
  29 C29           -0.7910     9.8351    -7.8183 C.ar    
  30 C30           -0.3001    11.0963    -7.5393 C.ar    
  31 C31            1.0716    11.2995    -7.5246 C.ar    
  32 C32            1.9013    10.2203    -7.7868 C.ar    
  33 C33            5.0695     1.9802    -4.7692 C.ar    
  34 C34            4.6769     3.3924    -7.1473 C.ar    
  35 C35            5.5405     1.5001    -5.9550 C.ar    
  36 C36            5.3470     2.2052    -7.1399 C.ar    
  37 C37            1.1850    -2.1443     0.0131 C.3     
  38 F38            2.5045    -2.6085    -0.0112 F       
  39 F39            0.5462    -2.6151     1.1653 F       
  40 F40            0.5064    -2.6084    -1.1189 F       
  41 H41           -0.9537     1.9751     0.0584 H       
  42 H42            3.3140    -0.4827    -0.0183 H       
  43 H43            1.1775     3.2082     0.0299 H       
  44 H44            2.5243     3.8180    -0.9130 H       
  45 H45            4.2027     4.2685    -0.4638 H       
  46 H46            2.7792     5.3596    -2.5920 H       
  47 H47            2.4323     6.5908    -4.6701 H       
  48 H48            2.0451     7.3397    -6.2941 H       
  49 H49            3.1851     8.1649    -8.7428 H       
  50 H50            1.7531     7.1693    -9.0981 H       
  51 H51           -1.8580     9.6687    -7.8316 H       
  52 H52           -0.9761    11.9135    -7.3356 H       
  53 H53            1.4838    12.2744    -7.3101 H       
  54 H54            2.9744    10.3420    -7.7833 H       
  55 H55            5.2300     1.4257    -3.8564 H       
  56 H56            4.5331     3.9294    -8.0733 H       
  57 H57            6.0746     0.5616    -5.9751 H       
  58 H58            5.7332     1.8060    -8.0662 H       
@<TRIPOS>BOND
   1    1    2 ar
   2    1    6 ar
   3    1   41 1
   4    2    3 ar
   5    2   25 1
   6    3    4 ar
   7    3   37 1
   8    4    5 ar
   9    4   42 1
  10    5    6 ar
  11    5    7 1
  12    6   43 1
  13    7    8 1
  14    7    9 1
  15    7   21 1
  16    8   11 1
  17    9   10 1
  18    9   44 1
  19    9   45 1
  20   10   11 2
  21   10   12 1
  22   12   13 ar
  23   12   14 ar
  24   13   33 ar
  25   13   17 ar
  26   14   15 ar
  27   14   46 1
  28   15   16 ar
  29   15   47 1
  30   16   17 ar
  31   16   18 1
  32   17   34 ar
  33   18   19 2
  34   18   20 am
  35   20   26 1
  36   20   48 1
  37   21   22 1
  38   21   23 1
  39   21   24 1
  40   26   27 1
  41   26   49 1
  42   26   50 1
  43   27   28 ar
  44   27   32 ar
  45   28   29 ar
  46   29   30 ar
  47   29   51 1
  48   30   31 ar
  49   30   52 1
  50   31   32 ar
  51   31   53 1
  52   32   54 1
  53   33   35 ar
  54   33   55 1
  55   34   36 ar
  56   34   56 1
  57   35   36 ar
  58   35   57 1
  59   36   58 1
  60   37   38 1
  61   37   39 1
  62   37   40 1

#	End of record

