#	Name: ASD00060010
#	Creating user name:	WinNT
#	Creation time:	15. 06. 2019 18:29

#	Modifying user name:	WinNT
#	Modification time:	15. 06. 2019 18:29

#	Program:	/corina/corina34_cracker 3.40 0067  02.08.2006

@<TRIPOS>MOLECULE
ASD00060010
  45   47    0    0    0
SMALL
NO_CHARGES


@<TRIPOS>ATOM
   1 C1            -0.0169     1.3943     0.0097 C.ar    
   2 C2             0.0021    -0.0041     0.0020 C.ar    
   3 C3            -1.1847    -0.7060     0.0101 C.ar    
   4 C4            -2.3925    -0.0303     0.0252 C.ar    
   5 C5            -2.4196     1.3534     0.0329 C.ar    
   6 C6            -1.2414     2.0697     0.0309 C.ar    
   7 C7             1.2453     2.1512     0.0017 C.2     
   8 C8             1.6191     3.0054     1.1856 C.3     
   9 C9             0.9636     4.3811     1.0492 C.3     
  10 C10            1.3375     5.2353     2.2331 C.ar    
  11 C11            2.0676     2.0804    -1.0655 C.2     
  12 C12            1.7048     1.2515    -2.2143 C.2     
  13 O13            0.6618     0.6260    -2.2077 O.2     
  14 O14            2.5271     1.1807    -3.2815 O.3     
  15 C15            2.4713     6.0259     2.1818 C.ar    
  16 C16            2.8184     6.8102     3.2632 C.ar    
  17 C17            2.0243     6.8045     4.4081 C.ar    
  18 C18            0.8832     6.0062     4.4543 C.ar    
  19 C19            0.5424     5.2302     3.3650 C.ar    
  20 C20            2.3927     7.6453     5.5740 C.ar    
  21 C21            1.5985     7.6396     6.7189 C.ar    
  22 C22            1.9458     8.4235     7.8004 C.ar    
  23 C23            3.0797     9.2142     7.7491 C.ar    
  24 C24            3.8714     9.2240     6.6149 C.ar    
  25 C25            3.5371     8.4389     5.5301 C.ar    
  26 H26            0.9438    -0.5327    -0.0105 H       
  27 H27           -1.1717    -1.7859     0.0041 H       
  28 H28           -3.3187    -0.5858     0.0308 H       
  29 H29           -3.3661     1.8735     0.0444 H       
  30 H30           -1.2641     3.1494     0.0368 H       
  31 H31            1.2733     2.5275     2.1022 H       
  32 H32            2.7023     3.1211     1.2226 H       
  33 H33            1.3094     4.8591     0.1327 H       
  34 H34           -0.1196     4.2654     1.0123 H       
  35 H35            2.9938     2.6358    -1.0714 H       
  36 H36            2.2029     0.6086    -3.9905 H       
  37 H37            3.0863     6.0293     1.2940 H       
  38 H38            3.7041     7.4268     3.2221 H       
  39 H39            0.2641     5.9981     5.3393 H       
  40 H40           -0.3418     4.6110     3.3998 H       
  41 H41            0.7127     7.0232     6.7598 H       
  42 H42            1.3310     8.4199     8.6884 H       
  43 H43            3.3476     9.8264     8.5975 H       
  44 H44            4.7554     9.8434     6.5800 H       
  45 H45            4.1561     8.4470     4.6451 H       
@<TRIPOS>BOND
   1    1    2 ar
   2    1    7 1
   3    1    6 ar
   4    2    3 ar
   5    2   26 1
   6    3    4 ar
   7    3   27 1
   8    4    5 ar
   9    4   28 1
  10    5    6 ar
  11    5   29 1
  12    6   30 1
  13    7    8 1
  14    7   11 2
  15    8    9 1
  16    8   31 1
  17    8   32 1
  18    9   10 1
  19    9   33 1
  20    9   34 1
  21   10   15 ar
  22   10   19 ar
  23   11   12 1
  24   11   35 1
  25   12   13 2
  26   12   14 1
  27   14   36 1
  28   15   16 ar
  29   15   37 1
  30   16   17 ar
  31   16   38 1
  32   17   18 ar
  33   17   20 1
  34   18   19 ar
  35   18   39 1
  36   19   40 1
  37   20   21 ar
  38   20   25 ar
  39   21   22 ar
  40   21   41 1
  41   22   23 ar
  42   22   42 1
  43   23   24 ar
  44   23   43 1
  45   24   25 ar
  46   24   44 1
  47   25   45 1

#	End of record

