#	Name: ASD05380132
#	Creating user name:	WinNT
#	Creation time:	15. 06. 2019 20:59

#	Modifying user name:	WinNT
#	Modification time:	15. 06. 2019 20:59

#	Program:	/corina/corina34_cracker 3.40 0067  02.08.2006

@<TRIPOS>MOLECULE
ASD05380132
  48   52    0    0    0
SMALL
NO_CHARGES


@<TRIPOS>ATOM
   1 C1            -0.2260     1.5757    -0.3888 C.ar    
   2 C2            -0.0888     0.1881    -0.6183 C.ar    
   3 C3             0.7606     2.4572    -0.8295 C.ar    
   4 C4             1.8672     1.9631    -1.4890 C.ar    
   5 C5             2.0036     0.6007    -1.7153 C.ar    
   6 C6             1.0402    -0.2862    -1.2879 C.ar    
   7 N7            -1.0609    -0.6507    -0.1801 N.2     
   8 C8            -2.1108    -0.2091     0.4431 C.2     
   9 N9            -2.3249     1.1086     0.7063 N.am    
  10 C10           -1.4230     2.0426     0.3241 C.2     
  11 C11           -3.4860     1.5013     1.3838 C.ar    
  12 C12           -4.6401     1.7976     0.6711 C.ar    
  13 C13           -5.7829     2.2770     2.7238 C.ar    
  14 C14           -3.1450    -1.2065     0.8976 C.3     
  15 N15           -3.2473    -2.2868    -0.0866 N.pl3   
  16 C16           -4.4175    -3.0172    -0.1931 C.ar    
  17 N17           -5.4570    -2.7510     0.5899 N.ar    
  18 O18           -1.6015     3.2248     0.5533 O.2     
  19 C19           -4.5340    -4.0530    -1.1361 C.ar    
  20 C20           -5.7452    -4.7614    -1.2010 C.ar    
  21 N21           -6.7334    -4.4318    -0.3753 N.ar    
  22 C22           -6.5833    -3.4459     0.4945 C.ar    
  23 N23           -3.7100    -4.5836    -2.0728 N.2     
  24 C24           -4.3238    -5.5487    -2.6928 C.2     
  25 N25           -5.5837    -5.6976    -2.1907 N.pl3   
  26 C26           -5.7862     2.1848     1.3422 C.ar    
  27 C27           -4.6344     1.9769     3.4368 C.ar    
  28 C28           -3.4862     1.5893     2.7694 C.ar    
  29 C29           -2.7328    -1.7875     2.2516 C.3     
  30 Cl30           0.5974     4.1629    -0.5511 Cl      
  31 F31           -6.9093     2.4737     0.6491 F       
  32 F32           -4.6335     2.0680     4.7847 F       
  33 N33           -7.6380    -3.1289     1.3346 N.pl3   
  34 H34            2.6335     2.6423    -1.8324 H       
  35 H35            2.8763     0.2311    -2.2332 H       
  36 H36            1.1581    -1.3442    -1.4701 H       
  37 H37           -4.6430     1.7261    -0.4066 H       
  38 H38           -6.6784     2.5795     3.2463 H       
  39 H39           -4.1107    -0.7102     0.9940 H       
  40 H40           -2.4945    -2.4900    -0.6637 H       
  41 H41           -3.8990    -6.1437    -3.4876 H       
  42 H42           -6.2439    -6.3467    -2.4801 H       
  43 H43           -2.5908     1.3549     3.3258 H       
  44 H44           -2.5656    -0.9757     2.9596 H       
  45 H45           -3.5246    -2.4373     2.6244 H       
  46 H46           -1.8146    -2.3632     2.1356 H       
  47 H47           -7.5457    -2.4095     1.9787 H       
  48 H48           -8.4689    -3.6263     1.2789 H       
@<TRIPOS>BOND
   1    1    2 ar
   2    1    3 ar
   3    1   10 1
   4    2    7 1
   5    2    6 ar
   6    3    4 ar
   7    3   30 1
   8    4    5 ar
   9    4   34 1
  10    5    6 ar
  11    5   35 1
  12    6   36 1
  13    7    8 2
  14    8    9 1
  15    8   14 1
  16    9   10 am
  17    9   11 1
  18   10   18 2
  19   11   12 ar
  20   11   28 ar
  21   12   26 ar
  22   12   37 1
  23   13   26 ar
  24   13   27 ar
  25   13   38 1
  26   14   15 1
  27   14   29 1
  28   14   39 1
  29   15   16 1
  30   15   40 1
  31   16   17 ar
  32   16   19 ar
  33   17   22 ar
  34   19   20 ar
  35   19   23 1
  36   20   21 ar
  37   20   25 1
  38   21   22 ar
  39   22   33 1
  40   23   24 2
  41   24   25 1
  42   24   41 1
  43   25   42 1
  44   26   31 1
  45   27   32 1
  46   27   28 ar
  47   28   43 1
  48   29   44 1
  49   29   45 1
  50   29   46 1
  51   33   47 1
  52   33   48 1

#	End of record

