#	Name: ASD00310042
#	Creating user name:	WinNT
#	Creation time:	15. 06. 2019 18:33

#	Modifying user name:	WinNT
#	Modification time:	15. 06. 2019 18:33

#	Program:	/corina/corina34_cracker 3.40 0067  02.08.2006

@<TRIPOS>MOLECULE
ASD00310042
  26   27    0    0    0
SMALL
NO_CHARGES


@<TRIPOS>ATOM
   1 N1            -0.0163     1.3507     0.0095 N.pl3   
   2 C2             0.0021    -0.0041     0.0020 C.2     
   3 C3             1.2914    -0.4478    -0.0127 C.2     
   4 C4             2.1469     0.7534    -0.0144 C.ar    
   5 C5             3.5243     0.9597    -0.0271 C.ar    
   6 C6             4.0218     2.2449    -0.0256 C.ar    
   7 C7             3.1556     3.3312    -0.0115 C.ar    
   8 C8             1.7905     3.1399     0.0011 C.ar    
   9 C9             1.2702     1.8497    -0.0001 C.ar    
  10 C10            1.7399    -1.8467    -0.0245 C.2     
  11 O11            2.9290    -2.1043    -0.0367 O.2     
  12 N12            0.8341    -2.8447    -0.0217 N.am    
  13 S13            1.3396    -4.4216    -0.0350 S.o2    
  14 O14            0.1353    -5.1756    -0.0539 O.2     
  15 O15            2.2608    -4.4853    -1.1151 O.2     
  16 C16            2.1993    -4.6348     1.5481 C.3     
  17 Cl17           3.7984     4.9438    -0.0093 Cl      
  18 Br18           5.8909     2.5311    -0.0422 Br      
  19 H19           -0.8203     1.8932     0.0164 H       
  20 H20           -0.8728    -0.6373     0.0073 H       
  21 H21            4.1992     0.1166    -0.0377 H       
  22 H22            1.1255     3.9909     0.0124 H       
  23 H23           -0.1138    -2.6394    -0.0119 H       
  24 H24            1.5076    -4.4361     2.3668 H       
  25 H25            2.5699    -5.6569     1.6256 H       
  26 H26            3.0368    -3.9394     1.6033 H       
@<TRIPOS>BOND
   1    1    2 1
   2    1    9 1
   3    1   19 1
   4    2    3 2
   5    2   20 1
   6    3    4 1
   7    3   10 1
   8    4    5 ar
   9    4    9 ar
  10    5    6 ar
  11    5   21 1
  12    6    7 ar
  13    6   18 1
  14    7    8 ar
  15    7   17 1
  16    8    9 ar
  17    8   22 1
  18   10   11 2
  19   10   12 am
  20   12   13 am
  21   12   23 1
  22   13   14 2
  23   13   15 2
  24   13   16 1
  25   16   24 1
  26   16   25 1
  27   16   26 1

#	End of record

