#	Name: ASD01903298
#	Creating user name:	WinNT
#	Creation time:	15. 06. 2019 19:54

#	Modifying user name:	WinNT
#	Modification time:	15. 06. 2019 19:54

#	Program:	/corina/corina34_cracker 3.40 0067  02.08.2006

@<TRIPOS>MOLECULE
ASD01903298
  54   58    0    0    0
SMALL
NO_CHARGES


@<TRIPOS>ATOM
   1 C1             0.1192     1.1152    -1.1556 C.ar    
   2 C2             0.0572    -0.1121    -0.5148 C.ar    
   3 C3             1.2025    -0.6343     0.0654 C.ar    
   4 N4             2.3428     0.0188     0.0156 N.ar    
   5 C5             2.4449     1.1967    -0.5882 C.ar    
   6 C6             1.3345     1.7810    -1.1930 C.ar    
   7 C7             3.7506     1.8955    -0.6189 C.2     
   8 O8             3.8498     2.9741    -1.1703 O.2     
   9 N9             4.8287     1.3353    -0.0355 N.am    
  10 C10            6.0793     1.9558    -0.1340 C.ar    
  11 C11            6.1554     3.3265    -0.3301 C.ar    
  12 C12            7.3887     3.9396    -0.4269 C.ar    
  13 C13            8.5454     3.1815    -0.3299 C.ar    
  14 C14            8.4703     1.8042    -0.1354 C.ar    
  15 C15            7.2416     1.1935    -0.0287 C.ar    
  16 N16            9.7983     3.8041    -0.4335 N.am    
  17 C17           10.4921     4.2962     0.6086 C.2     
  18 C18           11.7567     4.8710     0.1033 C.ar    
  19 C19           11.7387     4.6748    -1.2926 C.ar    
  20 C20           10.4665     3.9824    -1.5873 C.2     
  21 O21           10.1387     4.2723     1.7703 O.2     
  22 O22           10.0847     3.6391    -2.6880 O.2     
  23 C23            9.7544     1.0200    -0.0474 C.3     
  24 C24            9.4866    -0.3529     0.5698 C.3     
  25 N25            8.3609    -0.9753    -0.1450 N.3     
  26 C26            7.1077    -0.2902     0.1941 C.3     
  27 C27           12.8392     5.5000     0.6968 C.ar    
  28 C28           13.8975     5.9322    -0.0873 C.ar    
  29 C29           13.8799     5.7399    -1.4560 C.ar    
  30 C30           12.8035     5.1125    -2.0637 C.ar    
  31 C31           12.8657     5.7138     2.1883 C.3     
  32 C32            8.2739    -2.4102     0.1576 C.3     
  33 H33           -0.7583     1.5411    -1.6191 H       
  34 H34           -0.8745    -0.6562    -0.4677 H       
  35 H35            1.1578    -1.5905     0.5655 H       
  36 H36            1.4191     2.7393    -1.6838 H       
  37 H37            4.7378     0.5020     0.4527 H       
  38 H38            5.2519     3.9132    -0.4072 H       
  39 H39            7.4522     5.0071    -0.5783 H       
  40 H40           10.1697     0.8925    -1.0470 H       
  41 H41           10.4679     1.5625     0.5728 H       
  42 H42           10.3739    -0.9783     0.4708 H       
  43 H43            9.2324    -0.2375     1.6234 H       
  44 H44            6.8661    -0.4790     1.2400 H       
  45 H45            6.3054    -0.6756    -0.4351 H       
  46 H46           14.7416     6.4229     0.3745 H       
  47 H47           14.7105     6.0810    -2.0561 H       
  48 H48           12.7953     4.9646    -3.1335 H       
  49 H49           13.3338     4.8555     2.6702 H       
  50 H50           13.4362     6.6143     2.4162 H       
  51 H51           11.8463     5.8265     2.5574 H       
  52 H52            8.1968    -2.5501     1.2358 H       
  53 H53            7.3930    -2.8310    -0.3273 H       
  54 H54            9.1672    -2.9141    -0.2113 H       
@<TRIPOS>BOND
   1    1    2 ar
   2    1    6 ar
   3    1   33 1
   4    2    3 ar
   5    2   34 1
   6    3    4 ar
   7    3   35 1
   8    4    5 ar
   9    5    6 ar
  10    5    7 1
  11    6   36 1
  12    7    8 2
  13    7    9 am
  14    9   10 1
  15    9   37 1
  16   10   11 ar
  17   10   15 ar
  18   11   12 ar
  19   11   38 1
  20   12   13 ar
  21   12   39 1
  22   13   14 ar
  23   13   16 1
  24   14   15 ar
  25   14   23 1
  26   15   26 1
  27   16   17 am
  28   16   20 am
  29   17   18 1
  30   17   21 2
  31   18   19 ar
  32   18   27 ar
  33   19   20 1
  34   19   30 ar
  35   20   22 2
  36   23   24 1
  37   23   40 1
  38   23   41 1
  39   24   25 1
  40   24   42 1
  41   24   43 1
  42   25   26 1
  43   25   32 1
  44   26   44 1
  45   26   45 1
  46   27   28 ar
  47   27   31 1
  48   28   29 ar
  49   28   46 1
  50   29   30 ar
  51   29   47 1
  52   30   48 1
  53   31   49 1
  54   31   50 1
  55   31   51 1
  56   32   52 1
  57   32   53 1
  58   32   54 1

#	End of record

