#	Name: ASD02030535
#	Creating user name:	WinNT
#	Creation time:	15. 06. 2019 20:15

#	Modifying user name:	WinNT
#	Modification time:	15. 06. 2019 20:15

#	Program:	/corina/corina34_cracker 3.40 0067  02.08.2006

@<TRIPOS>MOLECULE
ASD02030535
  54   57    0    0    0
SMALL
NO_CHARGES


@<TRIPOS>ATOM
   1 N1             0.1350     1.4889    -0.2214 N.am    
   2 C2            -0.0756     0.0384    -0.3283 C.3     
   3 C3            -0.9797    -0.4119     0.8258 C.3     
   4 N4            -2.1525     0.4723     0.8761 N.am    
   5 C5            -1.9419     1.9228     0.9830 C.3     
   6 C6            -1.0378     2.3727    -0.1655 C.3     
   7 C7             1.3814     1.9991    -0.1700 C.2     
   8 C8             2.5473     1.0945    -0.0803 C.2     
   9 N9             3.7972     1.4596     0.1073 N.2     
  10 N10            2.5163    -0.2478    -0.1703 N.2     
  11 C11            3.7466    -0.6748    -0.0410 C.2     
  12 N12            4.5367     0.4046     0.1321 N.pl3   
  13 O13            1.5470     3.2031    -0.1974 O.2     
  14 C14           -3.3989    -0.0379     0.8247 C.2     
  15 C15           -3.5979    -1.5059     0.7941 C.ar    
  16 O16           -4.3595     0.7060     0.8035 O.2     
  17 C17           -0.5851     3.8148     0.0719 C.3     
  18 C18           -1.8033     2.2821    -1.4872 C.3     
  19 C19            5.9268     0.3825     0.3084 C.ar    
  20 C20            6.6252     1.5702     0.4770 C.ar    
  21 C21            7.9965     1.5449     0.6513 C.ar    
  22 C22            8.6720     0.3372     0.6572 C.ar    
  23 C23            7.9778    -0.8470     0.4894 C.ar    
  24 C24            6.6073    -0.8280     0.3207 C.ar    
  25 C25           -4.8404    -2.0271     0.4420 C.ar    
  26 C26           -5.0113    -3.4026     0.4178 C.ar    
  27 C27           -3.9330    -4.2086     0.7467 C.ar    
  28 C28           -2.7248    -3.6211     1.0876 C.ar    
  29 N29           -2.5887    -2.3132     1.0972 N.ar    
  30 C30           -6.3396    -4.0077     0.0429 C.3     
  31 F31           -6.3825    -4.2184    -1.3395 F       
  32 F32           -6.4995    -5.2291     0.7059 F       
  33 Cl33           8.8716     3.0293     0.8622 Cl      
  34 F34           -7.3700    -3.1372     0.4141 F       
  35 H35           -0.5546    -0.1926    -1.2798 H       
  36 H36            0.8831    -0.4762    -0.2642 H       
  37 H37           -1.3030    -1.4392     0.6579 H       
  38 H38           -0.4322    -0.3472     1.7661 H       
  39 H39           -2.9006     2.4374     0.9189 H       
  40 H40           -1.4628     2.1538     1.9345 H       
  41 H41            4.0701    -1.7049    -0.0653 H       
  42 H42            0.1451     3.8378     0.8809 H       
  43 H43           -0.1318     4.2078    -0.8381 H       
  44 H44           -1.4462     4.4261     0.3422 H       
  45 H45           -2.6811     2.9267    -1.4436 H       
  46 H46           -1.1570     2.6032    -2.3041 H       
  47 H47           -2.1170     1.2519    -1.6555 H       
  48 H48            6.0982     2.5128     0.4717 H       
  49 H49            9.7433     0.3194     0.7927 H       
  50 H50            8.5077    -1.7881     0.4941 H       
  51 H51            6.0661    -1.7535     0.1901 H       
  52 H52           -5.6594    -1.3690     0.1917 H       
  53 H53           -4.0333    -5.2839     0.7379 H       
  54 H54           -1.8824    -4.2462     1.3448 H       
@<TRIPOS>BOND
   1    1    2 1
   2    1    7 am
   3    1    6 1
   4    2    3 1
   5    2   35 1
   6    2   36 1
   7    3    4 1
   8    3   37 1
   9    3   38 1
  10    4    5 1
  11    4   14 am
  12    5    6 1
  13    5   39 1
  14    5   40 1
  15    6   17 1
  16    6   18 1
  17    7    8 1
  18    7   13 2
  19    8    9 2
  20    8   10 1
  21    9   12 1
  22   10   11 2
  23   11   12 1
  24   11   41 1
  25   12   19 1
  26   14   15 1
  27   14   16 2
  28   15   25 ar
  29   15   29 ar
  30   17   42 1
  31   17   43 1
  32   17   44 1
  33   18   45 1
  34   18   46 1
  35   18   47 1
  36   19   20 ar
  37   19   24 ar
  38   20   21 ar
  39   20   48 1
  40   21   22 ar
  41   21   33 1
  42   22   23 ar
  43   22   49 1
  44   23   24 ar
  45   23   50 1
  46   24   51 1
  47   25   26 ar
  48   25   52 1
  49   26   27 ar
  50   26   30 1
  51   27   28 ar
  52   27   53 1
  53   28   29 ar
  54   28   54 1
  55   30   31 1
  56   30   34 1
  57   30   32 1

#	End of record

