#	Name: ASD01880675
#	Creating user name:	WinNT
#	Creation time:	15. 06. 2019 19:41

#	Modifying user name:	WinNT
#	Modification time:	15. 06. 2019 19:41

#	Program:	/corina/corina34_cracker 3.40 0067  02.08.2006

@<TRIPOS>MOLECULE
ASD01880675
  41   43    0    0    0
SMALL
NO_CHARGES


@<TRIPOS>ATOM
   1 N1            -0.0158     1.3146     0.0093 N.ar    
   2 C2             0.0021    -0.0041     0.0020 C.ar    
   3 N3             1.1333    -0.6824    -0.0120 N.ar    
   4 C4             2.2988    -0.0562    -0.0197 C.ar    
   5 C5             2.3200     1.3298    -0.0130 C.ar    
   6 C6             1.1115     2.0078     0.0022 C.ar    
   7 C7             3.6261     2.0814    -0.0214 C.3     
   8 O8             4.7109     1.1512    -0.0362 O.3     
   9 C9             1.0814     3.5145     0.0096 C.3     
  10 C10            5.9656     1.6681    -0.0454 C.ar    
  11 C11            7.0674     0.8183    -0.0600 C.ar    
  12 C12            8.3361     1.3425    -0.0697 C.ar    
  13 C13            8.5296     2.7279    -0.0649 C.ar    
  14 C14            7.4196     3.5769    -0.0507 C.ar    
  15 C15            6.1490     3.0458    -0.0459 C.ar    
  16 C16            9.7103     0.7207    -0.0858 C.3     
  17 N17           10.6644     1.8356    -0.0897 N.am    
  18 C18            9.9789     2.9916    -0.0776 C.2     
  19 O19           10.4834     4.0979    -0.0776 O.2     
  20 Br20          -1.6369    -0.9472     0.0126 Br      
  21 C21            7.6127     5.0715    -0.0449 C.3     
  22 C22           12.6185     1.6718    -1.5512 C.3     
  23 C23           12.1238     1.7093    -0.1038 C.3     
  24 H24            3.2215    -0.6175    -0.0309 H       
  25 H25            3.6765     2.7124    -0.9087 H       
  26 H26            3.6931     2.7035     0.8712 H       
  27 H27            1.0639     3.8826    -1.0162 H       
  28 H28            0.1895     3.8575     0.5340 H       
  29 H29            1.9690     3.8931     0.5165 H       
  30 H30            6.9246    -0.2522    -0.0633 H       
  31 H31            5.2916     3.7024    -0.0353 H       
  32 H32            9.8545     0.1073     0.8036 H       
  33 H33            9.8373     0.1158    -0.9835 H       
  34 H34            7.6501     5.4370    -1.0711 H       
  35 H35            6.7813     5.5433     0.4788 H       
  36 H36            8.5465     5.3152     0.4618 H       
  37 H37           12.3285     2.5921    -2.0582 H       
  38 H38           13.7044     1.5779    -1.5617 H       
  39 H39           12.1750     0.8188    -2.0647 H       
  40 H40           12.5673     2.5623     0.4097 H       
  41 H41           12.4139     0.7890     0.4032 H       
@<TRIPOS>BOND
   1    1    2 ar
   2    1    6 ar
   3    2    3 ar
   4    2   20 1
   5    3    4 ar
   6    4    5 ar
   7    4   24 1
   8    5    6 ar
   9    5    7 1
  10    6    9 1
  11    7    8 1
  12    7   25 1
  13    7   26 1
  14    8   10 1
  15    9   27 1
  16    9   28 1
  17    9   29 1
  18   10   11 ar
  19   10   15 ar
  20   11   12 ar
  21   11   30 1
  22   12   13 ar
  23   12   16 1
  24   13   14 ar
  25   13   18 1
  26   14   15 ar
  27   14   21 1
  28   15   31 1
  29   16   17 1
  30   16   32 1
  31   16   33 1
  32   17   18 am
  33   17   23 1
  34   18   19 2
  35   21   34 1
  36   21   35 1
  37   21   36 1
  38   22   23 1
  39   22   37 1
  40   22   38 1
  41   22   39 1
  42   23   40 1
  43   23   41 1

#	End of record

