#	Name: ASD02039421
#	Creating user name:	WinNT
#	Creation time:	15. 06. 2019 20:18

#	Modifying user name:	WinNT
#	Modification time:	15. 06. 2019 20:18

#	Program:	/corina/corina34_cracker 3.40 0067  02.08.2006

@<TRIPOS>MOLECULE
ASD02039421
  56   60    0    0    0
SMALL
NO_CHARGES


@<TRIPOS>ATOM
   1 C1            -0.1167     0.6710    -0.9220 C.ar    
   2 C2             0.2087    -0.6484    -1.1794 C.ar    
   3 C3             0.9437     1.6258    -0.4374 C.3     
   4 N4             1.6850     2.1555    -1.5846 N.am    
   5 C5             1.1578     3.2996    -2.3325 C.3     
   6 C6             2.8520     1.5902    -1.9521 C.2     
   7 C7             3.3267     0.3722    -1.2726 C.2     
   8 C8             4.4196    -0.3686    -1.6157 C.2     
   9 N9             2.7596    -0.2140    -0.1873 N.2     
  10 C10            3.4532    -1.2682     0.1322 C.2     
  11 N11            4.4916    -1.3939    -0.7346 N.pl3   
  12 O12            3.5132     2.0855    -2.8447 O.2     
  13 C13            5.5067    -2.4501    -0.7192 C.3     
  14 C14            2.1573     4.4605    -2.4677 C.3     
  15 C15            1.6516     4.6241    -3.9107 C.3     
  16 C16            1.2597     3.1380    -3.8584 C.3     
  17 C17           -0.7587    -1.5310    -1.6244 C.ar    
  18 C18           -2.0575    -1.0976    -1.8148 C.ar    
  19 C19           -2.3902     0.2329    -1.5563 C.ar    
  20 C20           -1.4091     1.1169    -1.1134 C.ar    
  21 C21           -3.7822     0.7054    -1.7583 C.ar    
  22 F22           -3.0021    -1.9597    -2.2503 F       
  23 C23           -4.4305     1.4212    -0.7463 C.ar    
  24 C24           -4.4368     0.4413    -2.9532 C.ar    
  25 C25           -5.7453     0.8907    -3.1312 C.ar    
  26 C26           -6.3893     1.6048    -2.1037 C.ar    
  27 C27           -5.7109     1.8626    -0.9156 C.ar    
  28 C28           -6.7128     0.7965    -4.2275 C.2     
  29 C29           -7.8271     1.4254    -3.8219 C.2     
  30 N30           -7.6526     1.9146    -2.5561 N.pl3   
  31 C31           -8.6603     2.6570    -1.7948 C.3     
  32 H32            1.2224    -0.9908    -1.0326 H       
  33 H33            0.4733     2.4478     0.1021 H       
  34 H34            1.6295     1.1003     0.2271 H       
  35 H35            0.1710     3.6108    -1.9899 H       
  36 H36            5.0975    -0.1746    -2.4338 H       
  37 H37            3.2394    -1.9337     0.9555 H       
  38 H38            5.1717    -3.2851    -1.3346 H       
  39 H39            6.4437    -2.0593    -1.1160 H       
  40 H40            5.6600    -2.7918     0.3044 H       
  41 H41            1.9281     5.3110    -1.8256 H       
  42 H42            3.1998     4.1489    -2.4030 H       
  43 H43            0.7993     5.2975    -4.0010 H       
  44 H44            2.4425     4.8421    -4.6284 H       
  45 H45            2.0568     2.4648    -4.1739 H       
  46 H46            0.3058     2.9208    -4.3390 H       
  47 H47           -0.4990    -2.5602    -1.8238 H       
  48 H48           -1.6610     2.1476    -0.9118 H       
  49 H49           -3.9126     1.6264     0.1789 H       
  50 H50           -3.9375    -0.1070    -3.7384 H       
  51 H51           -6.2006     2.4103    -0.1240 H       
  52 H52           -6.5586     0.3131    -5.1809 H       
  53 H53           -8.7280     1.5302    -4.4082 H       
  54 H54           -9.2657     1.9591    -1.2165 H       
  55 H55           -8.1645     3.3542    -1.1193 H       
  56 H56           -9.3003     3.2102    -2.4822 H       
@<TRIPOS>BOND
   1    1    2 ar
   2    1    3 1
   3    1   20 ar
   4    2   17 ar
   5    2   32 1
   6    3    4 1
   7    3   33 1
   8    3   34 1
   9    4    5 1
  10    4    6 am
  11    5   14 1
  12    5   16 1
  13    5   35 1
  14    6    7 1
  15    6   12 2
  16    7    8 2
  17    7    9 1
  18    8   11 1
  19    8   36 1
  20    9   10 2
  21   10   11 1
  22   10   37 1
  23   11   13 1
  24   13   38 1
  25   13   39 1
  26   13   40 1
  27   14   15 1
  28   14   41 1
  29   14   42 1
  30   15   16 1
  31   15   43 1
  32   15   44 1
  33   16   45 1
  34   16   46 1
  35   17   18 ar
  36   17   47 1
  37   18   19 ar
  38   18   22 1
  39   19   20 ar
  40   19   21 1
  41   20   48 1
  42   21   23 ar
  43   21   24 ar
  44   23   27 ar
  45   23   49 1
  46   24   25 ar
  47   24   50 1
  48   25   26 ar
  49   25   28 1
  50   26   27 ar
  51   26   30 1
  52   27   51 1
  53   28   29 2
  54   28   52 1
  55   29   30 1
  56   29   53 1
  57   30   31 1
  58   31   54 1
  59   31   55 1
  60   31   56 1

#	End of record

