#	Name: ASD04800001
#	Creating user name:	WinNT
#	Creation time:	15. 06. 2019 20:52

#	Modifying user name:	WinNT
#	Modification time:	15. 06. 2019 20:52

#	Program:	/corina/corina34_cracker 3.40 0067  02.08.2006

@<TRIPOS>MOLECULE
ASD04800001
  27   27    0    0    0
SMALL
NO_CHARGES


@<TRIPOS>ATOM
   1 N1             0.2811     0.9992    -1.7393 N.am    
   2 C2             0.2136    -0.2488    -1.2350 C.2     
   3 O3             1.1795    -0.7315    -0.6752 O.2     
   4 S4            -1.2738    -1.1811    -1.3866 S.3     
   5 C5            -0.7734    -2.7088    -0.5548 C.3     
   6 C6            -1.9217    -3.6847    -0.5632 C.2     
   7 O7            -2.9747    -3.3776    -1.0806 O.2     
   8 N8            -1.7785    -4.8987     0.0042 N.am    
   9 C9            -2.8709    -5.7575     0.0965 C.ar    
  10 C10           -4.1434    -5.2467     0.3124 C.ar    
  11 C11           -5.2250    -6.0999     0.4036 C.ar    
  12 C12           -5.0510    -7.4687     0.2809 C.ar    
  13 C13           -3.7952    -7.9943     0.0663 C.ar    
  14 C14           -2.6916    -7.1435    -0.0341 C.ar    
  15 C15           -1.3457    -7.6986    -0.2635 C.2     
  16 O16           -0.4038    -6.9529    -0.4458 O.2     
  17 O17           -1.1597    -9.0333    -0.2712 O.3     
  18 H18            1.0999     1.5124    -1.6559 H       
  19 H19           -0.4879     1.3827    -2.1893 H       
  20 H20            0.0779    -3.1449    -1.0775 H       
  21 H21           -0.4928    -2.4868     0.4748 H       
  22 H22           -0.9144    -5.1744     0.3483 H       
  23 H23           -4.2874    -4.1808     0.4095 H       
  24 H24           -6.2131    -5.6975     0.5720 H       
  25 H25           -5.9037    -8.1274     0.3542 H       
  26 H26           -3.6649    -9.0622    -0.0282 H       
  27 H27           -0.2593    -9.3502    -0.4257 H       
@<TRIPOS>BOND
   1    1    2 am
   2    1   18 1
   3    1   19 1
   4    2    3 2
   5    2    4 1
   6    4    5 1
   7    5    6 1
   8    5   20 1
   9    5   21 1
  10    6    7 2
  11    6    8 am
  12    8    9 1
  13    8   22 1
  14    9   10 ar
  15    9   14 ar
  16   10   11 ar
  17   10   23 1
  18   11   12 ar
  19   11   24 1
  20   12   13 ar
  21   12   25 1
  22   13   14 ar
  23   13   26 1
  24   14   15 1
  25   15   16 2
  26   15   17 1
  27   17   27 1

#	End of record

