#	Name: ASD05430062
#	Creating user name:	WinNT
#	Creation time:	15. 06. 2019 20:59

#	Modifying user name:	WinNT
#	Modification time:	15. 06. 2019 20:59

#	Program:	/corina/corina34_cracker 3.40 0067  02.08.2006

@<TRIPOS>MOLECULE
ASD05430062
  56   61    0    0    0
SMALL
NO_CHARGES


@<TRIPOS>ATOM
   1 C1            -0.0103     1.3696    -0.1511 C.ar    
   2 C2             0.0203    -0.0143    -0.3187 C.ar    
   3 C3             1.2359    -0.6821    -0.3884 C.ar    
   4 C4             2.4180     0.0197    -0.2923 C.ar    
   5 C5             2.3952     1.4081    -0.1241 C.ar    
   6 C6             1.1712     2.0803    -0.0539 C.ar    
   7 O7             4.9020     0.1329     0.2183 O.3     
   8 C8             4.8303     1.4988     0.0669 C.2     
   9 C9             3.6564     2.1594    -0.0207 C.2     
  10 C10            5.9217    -0.3253     1.1164 C.3     
  11 C11            7.3521     0.1199     0.7751 C.3     
  12 N12            7.3061     1.5406     0.4312 N.pl3   
  13 C13            6.1416     2.1899     0.0078 C.2     
  14 C14            8.3583     2.5537     0.4603 C.3     
  15 O15            7.8162     3.6143    -0.3554 O.3     
  16 N16            6.4165     3.3747    -0.4188 N.2     
  17 C17            8.5958     3.0340     1.8688 C.2     
  18 C18            9.6504     2.0083    -0.1513 C.3     
  19 N19            9.3977     3.9898     2.1978 N.2     
  20 C20            5.5571    -0.4474     2.5955 C.3     
  21 C21            5.7437    -1.7062     1.7452 C.3     
  22 N22           -1.1795    -0.7336    -0.4167 N.pl3   
  23 C23           -1.5024    -1.6521    -1.3816 C.2     
  24 C24           -2.7413    -2.0973    -1.0975 C.2     
  25 N25           -3.1676    -1.4711     0.0093 N.2     
  26 C26           -2.2386    -0.6561     0.4299 C.2     
  27 C27           -3.5151    -3.1215    -1.8870 C.3     
  28 C28           -1.1587     3.4384     0.0838 C.3     
  29 O29           -1.2022     2.0206    -0.0890 O.3     
  30 O30           10.6920     2.9756    -0.0049 O.3     
  31 S31            7.8362     2.3962     3.2614 S.3     
  32 C32            8.7169     3.5371     4.2750 C.2     
  33 C33            9.4874     4.2847     3.4790 C.2     
  34 H34            1.2549    -1.7542    -0.5180 H       
  35 H35            3.3619    -0.5024    -0.3465 H       
  36 H36            1.1490     3.1523     0.0755 H       
  37 H37            3.6428     3.2393    -0.0149 H       
  38 H38            8.0015    -0.0306     1.6376 H       
  39 H39            7.7250    -0.4537    -0.0734 H       
  40 H40            9.9343     1.0885     0.3600 H       
  41 H41            9.4925     1.8018    -1.2098 H       
  42 H42            6.3318    -0.2139     3.3259 H       
  43 H43            4.5406    -0.1829     2.8869 H       
  44 H44            4.8500    -2.2698     1.4775 H       
  45 H45            6.6410    -2.3008     1.9164 H       
  46 H46           -0.8823    -1.9597    -2.2106 H       
  47 H47           -2.3044    -0.0208     1.3008 H       
  48 H48           -3.3000    -4.1173    -1.4995 H       
  49 H49           -4.5823    -2.9193    -1.7970 H       
  50 H50           -3.2225    -3.0688    -2.9357 H       
  51 H51           -0.6466     3.6753     1.0164 H       
  52 H52           -0.6217     3.8898    -0.7504 H       
  53 H53           -2.1748     3.8317     0.1172 H       
  54 H54           11.5423     2.6964    -0.3711 H       
  55 H55            8.6439     3.6203     5.3493 H       
  56 H56           10.1324     5.0649     3.8553 H       
@<TRIPOS>BOND
   1    1    2 ar
   2    1    6 ar
   3    1   29 1
   4    2    3 ar
   5    2   22 1
   6    3    4 ar
   7    3   34 1
   8    4    5 ar
   9    4   35 1
  10    5    6 ar
  11    5    9 1
  12    6   36 1
  13    7    8 1
  14    7   10 1
  15    8    9 2
  16    8   13 1
  17    9   37 1
  18   10   11 1
  19   10   20 1
  20   10   21 1
  21   11   12 1
  22   11   38 1
  23   11   39 1
  24   12   13 1
  25   12   14 1
  26   13   16 2
  27   14   15 1
  28   14   17 1
  29   14   18 1
  30   15   16 1
  31   17   19 2
  32   17   31 1
  33   18   30 1
  34   18   40 1
  35   18   41 1
  36   19   33 1
  37   20   21 1
  38   20   42 1
  39   20   43 1
  40   21   44 1
  41   21   45 1
  42   22   23 1
  43   22   26 1
  44   23   24 2
  45   23   46 1
  46   24   25 1
  47   24   27 1
  48   25   26 2
  49   26   47 1
  50   27   48 1
  51   27   49 1
  52   27   50 1
  53   28   29 1
  54   28   51 1
  55   28   52 1
  56   28   53 1
  57   30   54 1
  58   31   32 1
  59   32   33 2
  60   32   55 1
  61   33   56 1

#	End of record

