#	Name: ASD01910072
#	Creating user name:	WinNT
#	Creation time:	15. 06. 2019 19:55

#	Modifying user name:	WinNT
#	Modification time:	15. 06. 2019 19:55

#	Program:	/corina/corina34_cracker 3.40 0067  02.08.2006

@<TRIPOS>MOLECULE
ASD01910072
  45   49    0    0    0
SMALL
NO_CHARGES


@<TRIPOS>ATOM
   1 C1            -0.0110     1.2404     0.3024 C.2     
   2 N2            -0.0056     0.1052    -0.3648 N.2     
   3 N3            -1.3315    -0.3167    -0.5257 N.pl3   
   4 C4            -2.1408     0.6039     0.0682 C.2     
   5 C5            -1.3474     1.5738     0.5921 C.2     
   6 C6            -1.7514    -1.4806    -1.1823 C.ar    
   7 N7            -3.5362     0.5564     0.1315 N.pl3   
   8 C8            -2.8835    -1.4561    -1.9862 C.ar    
   9 C9            -3.2950    -2.6053    -2.6322 C.ar    
  10 C10           -2.5809    -3.7796    -2.4793 C.ar    
  11 C11           -1.4531    -3.8073    -1.6795 C.ar    
  12 C12           -1.0333    -2.6600    -1.0354 C.ar    
  13 C13            1.1856     2.0287     0.6879 C.ar    
  14 C14            2.4590     1.5813     0.3418 C.ar    
  15 C15            3.5685     2.3187     0.7025 C.ar    
  16 C16            3.4181     3.4998     1.4067 C.ar    
  17 C17            2.1563     3.9487     1.7528 C.ar    
  18 C18            1.0396     3.2221     1.3923 C.ar    
  19 N19           -4.3414    -0.5891     0.0507 N.2     
  20 N20           -5.5725    -0.2259     0.1490 N.2     
  21 C21           -5.6443     1.1052     0.2921 C.2     
  22 C22           -4.3809     1.6126     0.2895 C.2     
  23 C23           -6.8934     1.8941     0.4359 C.ar    
  24 C24           -8.1301     1.2525     0.4296 C.ar    
  25 C25           -9.2885     1.9908     0.5636 C.ar    
  26 C26           -9.2231     3.3654     0.7035 C.ar    
  27 C27           -7.9980     4.0075     0.7099 C.ar    
  28 C28           -6.8331     3.2781     0.5833 C.ar    
  29 H29           -1.6826     2.4482     1.1301 H       
  30 H30           -3.4418    -0.5393    -2.1057 H       
  31 H31           -4.1756    -2.5869    -3.2573 H       
  32 H32           -2.9049    -4.6771    -2.9853 H       
  33 H33           -0.8978    -4.7261    -1.5618 H       
  34 H34           -0.1524    -2.6823    -0.4109 H       
  35 H35            2.5777     0.6589    -0.2073 H       
  36 H36            4.5560     1.9728     0.4348 H       
  37 H37            4.2890     4.0734     1.6875 H       
  38 H38            2.0446     4.8715     2.3026 H       
  39 H39            0.0549     3.5735     1.6630 H       
  40 H40           -4.1030     2.6518     0.3864 H       
  41 H41           -8.1822     0.1793     0.3197 H       
  42 H42          -10.2476     1.4945     0.5589 H       
  43 H43          -10.1320     3.9394     0.8077 H       
  44 H44           -7.9527     5.0810     0.8188 H       
  45 H45           -5.8771     3.7805     0.5885 H       
@<TRIPOS>BOND
   1    1    2 2
   2    1   13 1
   3    1    5 1
   4    2    3 1
   5    3    4 1
   6    3    6 1
   7    4    5 2
   8    4    7 1
   9    5   29 1
  10    6    8 ar
  11    6   12 ar
  12    7   19 1
  13    7   22 1
  14    8    9 ar
  15    8   30 1
  16    9   10 ar
  17    9   31 1
  18   10   11 ar
  19   10   32 1
  20   11   12 ar
  21   11   33 1
  22   12   34 1
  23   13   14 ar
  24   13   18 ar
  25   14   15 ar
  26   14   35 1
  27   15   16 ar
  28   15   36 1
  29   16   17 ar
  30   16   37 1
  31   17   18 ar
  32   17   38 1
  33   18   39 1
  34   19   20 2
  35   20   21 1
  36   21   22 2
  37   21   23 1
  38   22   40 1
  39   23   24 ar
  40   23   28 ar
  41   24   25 ar
  42   24   41 1
  43   25   26 ar
  44   25   42 1
  45   26   27 ar
  46   26   43 1
  47   27   28 ar
  48   27   44 1
  49   28   45 1

#	End of record

