#	Name: ASD01310016
#	Creating user name:	WinNT
#	Creation time:	15. 06. 2019 19:15

#	Modifying user name:	WinNT
#	Modification time:	15. 06. 2019 19:15

#	Program:	/corina/corina34_cracker 3.40 0067  02.08.2006

@<TRIPOS>MOLECULE
ASD01310016
  40   43    0    0    0
SMALL
NO_CHARGES


@<TRIPOS>ATOM
   1 N1            -0.0181     1.4829     0.0102 N.3     
   2 C2             0.0021    -0.0041     0.0020 C.3     
   3 C3             0.4353    -0.4460    -1.4050 C.3     
   4 C4             1.8680     0.0328    -1.6560 C.3     
   5 C5             1.9598     1.5413    -1.4090 C.3     
   6 C6             1.4234     1.8484    -0.0016 C.3     
   7 O7             2.2397    -0.2552    -3.0298 O.3     
   8 C8             3.5380    -0.4949    -3.2723 C.2     
   9 O9             4.3373    -0.4651    -2.3667 O.2     
  10 C10            3.9986    -0.8011    -4.6742 C.3     
  11 C11            7.6774    -0.4306    -5.4373 C.ar    
  12 C12            6.3112    -0.2202    -5.4356 C.ar    
  13 C13            5.4882    -1.0295    -4.6748 C.ar    
  14 C14            6.0317    -2.0479    -3.9144 C.ar    
  15 C15            7.3980    -2.2574    -3.9150 C.ar    
  16 C16            8.2209    -1.4487    -4.6764 C.ar    
  17 C17            3.2896    -2.0588    -5.1806 C.3     
  18 O18            1.8878    -1.8038    -5.2905 O.3     
  19 C19            2.0765     0.8500     0.9817 C.3     
  20 C20            1.1372    -0.3740     0.9843 C.3     
  21 O21            1.3263     0.4557     2.1323 O.3     
  22 H22           -0.4890     1.8427    -0.8064 H       
  23 H23           -0.9588    -0.4312     0.2889 H       
  24 H24            0.3962    -1.5331    -1.4744 H       
  25 H25           -0.2316    -0.0070    -2.1470 H       
  26 H26            2.5476    -0.4872    -0.9808 H       
  27 H27            2.9995     1.8605    -1.4811 H       
  28 H28            1.3614     2.0698    -2.1511 H       
  29 H29            1.5877     2.8878     0.2826 H       
  30 H30            3.7595     0.0385    -5.3268 H       
  31 H31            8.3199     0.1989    -6.0351 H       
  32 H32            5.8866     0.5755    -6.0297 H       
  33 H33            5.3888    -2.6797    -3.3195 H       
  34 H34            7.8227    -3.0529    -3.3206 H       
  35 H35            9.2884    -1.6126    -4.6772 H       
  36 H36            3.6871    -2.3311    -6.1583 H       
  37 H37            3.4562    -2.8769    -4.4799 H       
  38 H38            1.3742    -2.5595    -5.6069 H       
  39 H39            3.1626     0.7582     0.9711 H       
  40 H40            1.5070    -1.3993     0.9756 H       
@<TRIPOS>BOND
   1    1    2 1
   2    1    6 1
   3    1   22 1
   4    2    3 1
   5    2   20 1
   6    2   23 1
   7    3    4 1
   8    3   24 1
   9    3   25 1
  10    4    5 1
  11    4    7 1
  12    4   26 1
  13    5    6 1
  14    5   27 1
  15    5   28 1
  16    6   19 1
  17    6   29 1
  18    7    8 1
  19    8    9 2
  20    8   10 1
  21   10   17 1
  22   10   13 1
  23   10   30 1
  24   11   12 ar
  25   11   16 ar
  26   11   31 1
  27   12   13 ar
  28   12   32 1
  29   13   14 ar
  30   14   15 ar
  31   14   33 1
  32   15   16 ar
  33   15   34 1
  34   16   35 1
  35   17   18 1
  36   17   36 1
  37   17   37 1
  38   18   38 1
  39   19   20 1
  40   19   21 1
  41   19   39 1
  42   20   21 1
  43   20   40 1

#	End of record

