#	Name: ASD02448080
#	Creating user name:	WinNT
#	Creation time:	15. 06. 2019 20:21

#	Modifying user name:	WinNT
#	Modification time:	15. 06. 2019 20:21

#	Program:	/corina/corina34_cracker 3.40 0067  02.08.2006

@<TRIPOS>MOLECULE
ASD02448080
  87   93    0    0    0
SMALL
NO_CHARGES


@<TRIPOS>ATOM
   1 C1             0.2616     1.3844    -0.7678 C.ar    
   2 C2             0.2803     0.0042    -0.7758 C.ar    
   3 C3             1.2145    -0.6820    -0.0117 C.ar    
   4 C4             2.1299     0.0196     0.7610 C.ar    
   5 C5             2.1119     1.3999     0.7695 C.ar    
   6 C6             1.1776     2.0868     0.0048 C.ar    
   7 N7             1.1593     3.4848     0.0128 N.am    
   8 C8             0.3945     4.3727     0.9031 C.3     
   9 C9             0.6578     5.8115     0.5805 C.2     
  10 N10            1.5147     6.0164    -0.4281 N.am    
  11 S11            2.0047     4.5246    -0.9796 S.o2    
  12 O12            0.1341     6.7222     1.1865 O.2     
  13 O13            3.3833     4.3922    -0.6614 O.2     
  14 O14            1.4743     4.3666    -2.2884 O.2     
  15 N15            1.2331    -2.0854    -0.0200 N.pl3   
  16 C16            0.1854    -2.9128     0.2827 C.2     
  17 C17            2.2927    -2.8750    -0.3357 C.2     
  18 N18            1.9334    -4.1242    -0.2325 N.2     
  19 C19            0.6409    -4.1857     0.1468 C.2     
  20 C20           -0.1444    -5.4235     0.3753 C.ar    
  21 C21            0.4507    -6.6726     0.1980 C.ar    
  22 C22           -1.4771    -5.3424     0.7732 C.ar    
  23 C23           -2.2036    -6.4968     0.9844 C.ar    
  24 C24           -1.6107    -7.7342     0.8018 C.ar    
  25 C25           -0.2851    -7.8213     0.4120 C.ar    
  26 Cl26          -2.5303    -9.1820     1.0699 Cl      
  27 Cl27           2.1127    -6.7827    -0.2913 Cl      
  28 C28            3.6600    -2.3867    -0.7397 C.3     
  29 C29            3.7524    -2.3389    -2.2431 C.ar    
  30 C30            3.4941    -1.1560    -2.9120 C.ar    
  31 C31            4.1007    -3.4765    -2.9486 C.ar    
  32 C32            4.1872    -3.4382    -4.3255 C.ar    
  33 C33            3.9229    -2.2507    -5.0049 C.ar    
  34 C34            3.5777    -1.1064    -4.2888 C.ar    
  35 C35            4.0149    -2.2033    -6.4852 C.ar    
  36 C36            3.7506    -1.0158    -7.1645 C.ar    
  37 C37            4.3713    -3.3447    -7.2005 C.ar    
  38 C38            4.4553    -3.2950    -8.5772 C.ar    
  39 C39            4.1868    -2.1149    -9.2469 C.ar    
  40 C40            3.8376    -0.9775    -8.5414 C.ar    
  41 C41            4.2810    -2.0665   -10.7501 C.3     
  42 C42            3.2965    -3.0692   -11.3554 C.3     
  43 C43            3.9382    -0.6574   -11.2376 C.3     
  44 C44            5.7041    -2.4239   -11.1836 C.3     
  45 C45           -1.1001     4.0727     0.7346 C.3     
  46 C46           -1.3625     2.6009     1.0572 C.3     
  47 C47           -0.9499     2.3130     2.5020 C.3     
  48 C48            0.5397     2.6159     2.6758 C.3     
  49 C49            0.8025     4.0878     2.3539 C.3     
  50 H50           -0.4623     1.9182    -1.3657 H       
  51 H51           -0.4322    -0.5420    -1.3762 H       
  52 H52            2.8560    -0.5145     1.3559 H       
  53 H53            2.8239     1.9456     1.3709 H       
  54 H54            1.8003     6.8772    -0.7720 H       
  55 H55           -0.8104    -2.6121     0.5732 H       
  56 H56           -1.9410    -4.3777     0.9165 H       
  57 H57           -3.2366    -6.4346     1.2933 H       
  58 H58            0.1729    -8.7892     0.2708 H       
  59 H59            3.8240    -1.3886    -0.3336 H       
  60 H60            4.4182    -3.0663    -0.3505 H       
  61 H61            3.2263    -0.2697    -2.3560 H       
  62 H62            4.3056    -4.3963    -2.4210 H       
  63 H63            4.4595    -4.3270    -4.8754 H       
  64 H64            3.3715    -0.1834    -4.8104 H       
  65 H65            3.4779    -0.1272    -6.6147 H       
  66 H66            4.5819    -4.2665    -6.6786 H       
  67 H67            4.7314    -4.1791    -9.1327 H       
  68 H68            3.6286    -0.0587    -9.0693 H       
  69 H69            2.2827    -2.8145   -11.0466 H       
  70 H70            3.3647    -3.0342   -12.4427 H       
  71 H71            3.5408    -4.0731   -11.0081 H       
  72 H72            4.6395     0.0569   -10.8064 H       
  73 H73            4.0064    -0.6224   -12.3249 H       
  74 H74            2.9243    -0.4027   -10.9288 H       
  75 H75            5.9484    -3.4279   -10.8364 H       
  76 H76            5.7723    -2.3890   -12.2709 H       
  77 H77            6.4055    -1.7096   -10.7524 H       
  78 H78           -1.6760     4.7019     1.4133 H       
  79 H79           -1.3985     4.2784    -0.2934 H       
  80 H80           -2.4237     2.3853     0.9327 H       
  81 H81           -0.7825     1.9720     0.3817 H       
  82 H82           -1.5299     2.9416     3.1778 H       
  83 H83           -1.1367     1.2639     2.7312 H       
  84 H84            0.8343     2.4110     3.7051 H       
  85 H85            1.1194     1.9871     2.0001 H       
  86 H86            1.8631     4.3043     2.4825 H       
  87 H87            0.2188     4.7168     3.0259 H       
@<TRIPOS>BOND
   1    1    2 ar
   2    1    6 ar
   3    1   50 1
   4    2    3 ar
   5    2   51 1
   6    3    4 ar
   7    3   15 1
   8    4    5 ar
   9    4   52 1
  10    5    6 ar
  11    5   53 1
  12    6    7 1
  13    7    8 1
  14    7   11 am
  15    8    9 1
  16    8   45 1
  17    8   49 1
  18    9   10 am
  19    9   12 2
  20   10   11 am
  21   10   54 1
  22   11   13 2
  23   11   14 2
  24   15   16 1
  25   15   17 1
  26   16   19 2
  27   16   55 1
  28   17   18 2
  29   17   28 1
  30   18   19 1
  31   19   20 1
  32   20   21 ar
  33   20   22 ar
  34   21   27 1
  35   21   25 ar
  36   22   23 ar
  37   22   56 1
  38   23   24 ar
  39   23   57 1
  40   24   25 ar
  41   24   26 1
  42   25   58 1
  43   28   29 1
  44   28   59 1
  45   28   60 1
  46   29   30 ar
  47   29   31 ar
  48   30   34 ar
  49   30   61 1
  50   31   32 ar
  51   31   62 1
  52   32   33 ar
  53   32   63 1
  54   33   34 ar
  55   33   35 1
  56   34   64 1
  57   35   36 ar
  58   35   37 ar
  59   36   40 ar
  60   36   65 1
  61   37   38 ar
  62   37   66 1
  63   38   39 ar
  64   38   67 1
  65   39   41 1
  66   39   40 ar
  67   40   68 1
  68   41   42 1
  69   41   44 1
  70   41   43 1
  71   42   69 1
  72   42   70 1
  73   42   71 1
  74   43   72 1
  75   43   73 1
  76   43   74 1
  77   44   75 1
  78   44   76 1
  79   44   77 1
  80   45   46 1
  81   45   78 1
  82   45   79 1
  83   46   47 1
  84   46   80 1
  85   46   81 1
  86   47   48 1
  87   47   82 1
  88   47   83 1
  89   48   49 1
  90   48   84 1
  91   48   85 1
  92   49   86 1
  93   49   87 1

#	End of record

