#	Name: ASD01940707
#	Creating user name:	WinNT
#	Creation time:	15. 06. 2019 20:13

#	Modifying user name:	WinNT
#	Modification time:	15. 06. 2019 20:13

#	Program:	/corina/corina34_cracker 3.40 0067  02.08.2006

@<TRIPOS>MOLECULE
ASD01940707
  49   51    0    0    0
SMALL
NO_CHARGES


@<TRIPOS>ATOM
   1 C1             0.5754     0.4276    -1.3119 C.ar    
   2 C2            -0.0543    -0.1176    -0.2081 C.ar    
   3 C3             0.5333    -0.0300     1.0424 C.ar    
   4 C4             1.7558     0.6048     1.1935 C.ar    
   5 C5             2.3929     1.1538     0.0886 C.ar    
   6 C6             1.7992     1.0642    -1.1694 C.ar    
   7 N7             2.4379     1.6160    -2.2880 N.am    
   8 S8             1.5446     2.1070    -3.5931 S.o2    
   9 C9             0.6184     3.5462    -2.9921 C.3     
  10 O10            2.5149     2.5036    -4.5526 O.2     
  11 O11            0.6664     1.0189    -3.8460 O.2     
  12 F12           -0.0865    -0.5641     2.1175 F       
  13 F13            2.3269     0.6899     2.4149 F       
  14 N14            3.6292     1.7970     0.2380 N.pl3   
  15 C15            4.8166     1.0947     0.0011 C.ar    
  16 C16            6.0414     1.6846     0.2877 C.ar    
  17 C17            4.7701    -0.1938    -0.5151 C.ar    
  18 C18            5.9413    -0.8869    -0.7484 C.ar    
  19 C19            7.1662    -0.2951    -0.4672 C.ar    
  20 C20            7.2124     0.9923     0.0537 C.ar    
  21 C21            6.0915     3.0804     0.8535 C.3     
  22 C22           -0.2721     4.1216    -4.1127 C.3     
  23 C23           -0.2362     5.6524    -3.9604 C.3     
  24 C24            0.6749     5.9538    -2.7526 C.3     
  25 C25            1.5846     4.7051    -2.6420 C.3     
  26 Cl26          -1.8976     6.2816    -3.6530 Cl      
  27 S27            8.6609    -1.1796    -0.7643 S.3     
  28 C28            8.0730    -2.7662    -1.4183 C.3     
  29 H29            0.1159     0.3538    -2.2865 H       
  30 H30           -1.0073    -0.6129    -0.3218 H       
  31 H31            3.4032     1.7104    -2.2978 H       
  32 H32            0.0145     3.2756    -2.1260 H       
  33 H33            3.6620     2.7288     0.5055 H       
  34 H34            3.8177    -0.6539    -0.7336 H       
  35 H35            5.9051    -1.8891    -1.1491 H       
  36 H36            8.1647     1.4525     0.2723 H       
  37 H37            6.0660     3.0323     1.9421 H       
  38 H38            7.0112     3.5696     0.5328 H       
  39 H39            5.2334     3.6489     0.4948 H       
  40 H40            0.1219     3.8340    -5.0874 H       
  41 H41           -1.2940     3.7591    -4.0008 H       
  42 H42            0.1752     6.1077    -4.8613 H       
  43 H43            1.2727     6.8460    -2.9389 H       
  44 H44            0.0804     6.0741    -1.8469 H       
  45 H45            1.9681     4.5952    -1.6276 H       
  46 H46            2.4017     4.7575    -3.3615 H       
  47 H47            7.4389    -3.2523    -0.6768 H       
  48 H48            7.5001    -2.5938    -2.3294 H       
  49 H49            8.9269    -3.4059    -1.6415 H       
@<TRIPOS>BOND
   1    1    2 ar
   2    1    6 ar
   3    1   29 1
   4    2    3 ar
   5    2   30 1
   6    3    4 ar
   7    3   12 1
   8    4    5 ar
   9    4   13 1
  10    5    6 ar
  11    5   14 1
  12    6    7 1
  13    7    8 am
  14    7   31 1
  15    8   10 2
  16    8   11 2
  17    8    9 1
  18    9   22 1
  19    9   25 1
  20    9   32 1
  21   14   15 1
  22   14   33 1
  23   15   16 ar
  24   15   17 ar
  25   16   21 1
  26   16   20 ar
  27   17   18 ar
  28   17   34 1
  29   18   19 ar
  30   18   35 1
  31   19   20 ar
  32   19   27 1
  33   20   36 1
  34   21   37 1
  35   21   38 1
  36   21   39 1
  37   22   23 1
  38   22   40 1
  39   22   41 1
  40   23   24 1
  41   23   26 1
  42   23   42 1
  43   24   25 1
  44   24   43 1
  45   24   44 1
  46   25   45 1
  47   25   46 1
  48   27   28 1
  49   28   47 1
  50   28   48 1
  51   28   49 1

#	End of record

