#	Name: ASD07150007
#	Creating user name:	WinNT
#	Creation time:	15. 06. 2019 21:09

#	Modifying user name:	WinNT
#	Modification time:	15. 06. 2019 21:09

#	Program:	/corina/corina34_cracker 3.40 0067  02.08.2006

@<TRIPOS>MOLECULE
ASD07150007
  60   62    0    0    0
SMALL
NO_CHARGES


@<TRIPOS>ATOM
   1 O1             0.1198     1.2344     1.2608 O.3     
   2 O2            -2.2762    -0.0891     0.9771 O.3     
   3 O3            -3.2034    -9.2457    -0.7843 O.3     
   4 O4            -0.8488   -10.5710    -0.2693 O.3     
   5 N5             1.3330    -4.8561    -0.1103 N.pl3   
   6 C6             2.6237    -2.8538     0.4278 C.3     
   7 C7             1.3082    -2.1378     0.5758 C.ar    
   8 C8             0.0934    -2.8095     0.4386 C.ar    
   9 C9             2.4679    -4.3519     0.6824 C.3     
  10 C10            0.0856    -4.2649     0.1544 C.2     
  11 C11            1.3064    -0.7828     0.8526 C.ar    
  12 C12           -1.1130    -2.1218     0.5713 C.ar    
  13 C13            0.1095    -0.0973     0.9880 C.ar    
  14 C14           -1.1042    -0.7664     0.8462 C.ar    
  15 C15           -1.0584    -4.9834     0.1497 C.2     
  16 C16           -1.0057    -6.4504     0.0388 C.ar    
  17 C17           -2.1490    -7.1674    -0.3267 C.ar    
  18 C18            0.1893    -7.1304     0.2930 C.ar    
  19 C19           -2.0933    -8.5450    -0.4291 C.ar    
  20 C20            1.3979     1.8594     1.3943 C.3     
  21 C21           -3.4811    -0.8407     0.8182 C.3     
  22 C22           -0.9007    -9.2156    -0.1682 C.ar    
  23 C23            0.2357    -8.5049     0.1883 C.ar    
  24 C24            1.2090     3.3469     1.6983 C.3     
  25 C25           -4.6866     0.0840     0.9992 C.3     
  26 C26           -4.3920    -8.4936    -1.0368 C.3     
  27 C27            0.4056   -11.1950     0.0120 C.3     
  28 C28           -5.5264    -9.4461    -1.4199 C.3     
  29 C29            0.2698   -12.7101    -0.1527 C.3     
  30 H30            1.4409    -5.5516    -0.7779 H       
  31 H31            3.0023    -2.7005    -0.5828 H       
  32 H32            3.3369    -2.4422     1.1419 H       
  33 H33            2.2782    -4.5242     1.7419 H       
  34 H34            3.3797    -4.8695     0.3844 H       
  35 H35            2.2426    -0.2561     0.9643 H       
  36 H36           -2.0507    -2.6459     0.4593 H       
  37 H37           -2.0115    -4.4816     0.2274 H       
  38 H38           -3.0734    -6.6464    -0.5281 H       
  39 H39            1.0757    -6.5795     0.5709 H       
  40 H40            1.9490     1.3892     2.2088 H       
  41 H41            1.9564     1.7465     0.4651 H       
  42 H42           -3.5065    -1.2799    -0.1791 H       
  43 H43           -3.5160    -1.6336     1.5654 H       
  44 H44            1.1593    -9.0291     0.3846 H       
  45 H45            0.6579     3.8171     0.8837 H       
  46 H46            0.6505     3.4598     2.6275 H       
  47 H47            2.1839     3.8236     1.8001 H       
  48 H48           -4.6612     0.5232     1.9964 H       
  49 H49           -4.6517     0.8769     0.2520 H       
  50 H50           -5.6057    -0.4893     0.8779 H       
  51 H51           -4.6694    -7.9405    -0.1395 H       
  52 H52           -4.2130    -7.7946    -1.8537 H       
  53 H53            1.1607   -10.8206    -0.6792 H       
  54 H54            0.7040   -10.9660     1.0350 H       
  55 H55           -6.4330    -8.8725    -1.6125 H       
  56 H56           -5.2489    -9.9992    -2.3172 H       
  57 H57           -5.7054   -10.1452    -0.6030 H       
  58 H58           -0.4853   -13.0844     0.5385 H       
  59 H59           -0.0286   -12.9391    -1.1757 H       
  60 H60            1.2266   -13.1860     0.0619 H       
@<TRIPOS>BOND
   1    1   13 1
   2    1   20 1
   3    2   14 1
   4    2   21 1
   5    3   19 1
   6    3   26 1
   7    4   22 1
   8    4   27 1
   9    5    9 1
  10    5   10 1
  11    5   30 1
  12    6    7 1
  13    6    9 1
  14    6   31 1
  15    6   32 1
  16    7    8 ar
  17    7   11 ar
  18    8   10 1
  19    8   12 ar
  20    9   33 1
  21    9   34 1
  22   10   15 2
  23   11   13 ar
  24   11   35 1
  25   12   14 ar
  26   12   36 1
  27   13   14 ar
  28   15   16 1
  29   15   37 1
  30   16   17 ar
  31   16   18 ar
  32   17   19 ar
  33   17   38 1
  34   18   23 ar
  35   18   39 1
  36   19   22 ar
  37   20   24 1
  38   20   40 1
  39   20   41 1
  40   21   25 1
  41   21   42 1
  42   21   43 1
  43   22   23 ar
  44   23   44 1
  45   24   45 1
  46   24   46 1
  47   24   47 1
  48   25   48 1
  49   25   49 1
  50   25   50 1
  51   26   28 1
  52   26   51 1
  53   26   52 1
  54   27   29 1
  55   27   53 1
  56   27   54 1
  57   28   55 1
  58   28   56 1
  59   28   57 1
  60   29   58 1
  61   29   59 1
  62   29   60 1

#	End of record

