#	Name: ASD01918174
#	Creating user name:	WinNT
#	Creation time:	15. 06. 2019 20:10

#	Modifying user name:	WinNT
#	Modification time:	15. 06. 2019 20:10

#	Program:	/corina/corina34_cracker 3.40 0067  02.08.2006

@<TRIPOS>MOLECULE
ASD01918174
  48   51    0    0    0
SMALL
NO_CHARGES


@<TRIPOS>ATOM
   1 C1             0.5083     2.0626    -0.5526 C.ar    
   2 C2             0.7747     0.7509    -0.9697 C.ar    
   3 C3             2.0610     0.3638    -1.1956 C.ar    
   4 C4             3.1168     1.2562    -1.0167 C.ar    
   5 C5             2.8917     2.5377    -0.6123 C.ar    
   6 C6             1.5774     2.9718    -0.3704 C.ar    
   7 N7             1.3281     4.2252     0.0266 N.ar    
   8 C8             0.1057     4.6454     0.2560 C.ar    
   9 C9            -0.9958     3.8152     0.1002 C.ar    
  10 C10           -0.8148     2.5047    -0.3132 C.ar    
  11 S11           -2.6170     4.4261     0.4212 S.o2    
  12 O12           -3.2514     3.4634     1.2520 O.2     
  13 O13           -2.4663     5.7906     0.7881 O.2     
  14 C14           -3.4907     4.4158    -1.1089 C.ar    
  15 C15           -3.3256     5.4546    -2.0056 C.ar    
  16 C16           -4.3366     3.3662    -1.4144 C.ar    
  17 C17           -5.0225     3.3567    -2.6149 C.ar    
  18 C18           -4.8634     4.3968    -3.5105 C.ar    
  19 C19           -4.0122     5.4463    -3.2077 C.ar    
  20 N20           -1.8954     1.6527    -0.4835 N.3     
  21 C21           -3.2790     0.3879    -2.0603 C.3     
  22 C22           -3.2465    -0.8190    -1.1186 C.3     
  23 C23           -3.0905    -0.3275     0.3231 C.3     
  24 C24           -1.8150     0.5106     0.4360 C.3     
  25 C25           -1.9980     1.2053    -1.8784 C.3     
  26 C26           -4.5514    -1.6067    -1.2519 C.3     
  27 F27           -3.8519     6.4613    -4.0848 F       
  28 Cl28           4.7433     0.7266    -1.3132 Cl      
  29 H29           -0.0356     0.0510    -1.1107 H       
  30 H30            2.2653    -0.6469    -1.5169 H       
  31 H31            3.7204     3.2172    -0.4781 H       
  32 H32           -0.0472     5.6657     0.5752 H       
  33 H33           -2.6615     6.2726    -1.7684 H       
  34 H34           -4.4616     2.5528    -0.7150 H       
  35 H35           -5.6827     2.5357    -2.8529 H       
  36 H36           -5.3989     4.3889    -4.4483 H       
  37 H37           -3.3470     0.0429    -3.0920 H       
  38 H38           -4.1434     1.0092    -1.8260 H       
  39 H39           -2.4045    -1.4607    -1.3779 H       
  40 H40           -3.9520     0.2824     0.5949 H       
  41 H41           -3.0239    -1.1838     0.9943 H       
  42 H42           -0.9526    -0.1039     0.1774 H       
  43 H43           -1.7085     0.8739     1.4581 H       
  44 H44           -2.0244     2.0733    -2.5372 H       
  45 H45           -1.1348     0.5876    -2.1261 H       
  46 H46           -4.6644    -1.9514    -2.2798 H       
  47 H47           -4.5274    -2.4656    -0.5813 H       
  48 H48           -5.3920    -0.9643    -0.9896 H       
@<TRIPOS>BOND
   1    1    2 ar
   2    1    6 ar
   3    1   10 ar
   4    2    3 ar
   5    2   29 1
   6    3    4 ar
   7    3   30 1
   8    4    5 ar
   9    4   28 1
  10    5    6 ar
  11    5   31 1
  12    6    7 ar
  13    7    8 ar
  14    8    9 ar
  15    8   32 1
  16    9   10 ar
  17    9   11 1
  18   10   20 1
  19   11   12 2
  20   11   13 2
  21   11   14 1
  22   14   16 ar
  23   14   15 ar
  24   15   19 ar
  25   15   33 1
  26   16   17 ar
  27   16   34 1
  28   17   18 ar
  29   17   35 1
  30   18   19 ar
  31   18   36 1
  32   19   27 1
  33   20   25 1
  34   20   24 1
  35   21   22 1
  36   21   25 1
  37   21   37 1
  38   21   38 1
  39   22   23 1
  40   22   26 1
  41   22   39 1
  42   23   24 1
  43   23   40 1
  44   23   41 1
  45   24   42 1
  46   24   43 1
  47   25   44 1
  48   25   45 1
  49   26   46 1
  50   26   47 1
  51   26   48 1

#	End of record

