#	Name: ASD00311178
#	Creating user name:	WinNT
#	Creation time:	15. 06. 2019 18:34

#	Modifying user name:	WinNT
#	Modification time:	15. 06. 2019 18:34

#	Program:	/corina/corina34_cracker 3.40 0067  02.08.2006

@<TRIPOS>MOLECULE
ASD00311178
  46   50    0    0    0
SMALL
NO_CHARGES


@<TRIPOS>ATOM
   1 C1            -0.0167     1.3778     0.0096 C.2     
   2 C2             0.0021    -0.0041     0.0020 C.2     
   3 C3             1.2585    -0.6766    -0.0139 C.2     
   4 C4             2.4315     0.0673    -0.0214 C.2     
   5 C5             2.3576     1.4751    -0.0131 C.2     
   6 N6             1.1651     2.0904     0.0022 N.am    
   7 C7            -1.3435    -0.5753     0.0126 C.2     
   8 C8            -2.3232     0.3268     0.0274 C.2     
   9 S9            -1.6791     1.9566     0.0358 S.3     
  10 O10            3.3826     2.1371    -0.0196 O.2     
  11 C11            3.7475    -0.6122    -0.0375 C.ar    
  12 C12            4.5930    -0.4749    -1.1382 C.ar    
  13 C13            5.8179    -1.1099    -1.1470 C.ar    
  14 C14            6.2079    -1.8819    -0.0673 C.ar    
  15 C15            5.3734    -2.0223     1.0272 C.ar    
  16 C16            4.1487    -1.3871     1.0505 C.ar    
  17 C17            7.5469    -2.5732    -0.0836 C.3     
  18 C18           -1.7261    -2.7075    -1.2013 C.ar    
  19 C19           -1.5961    -2.0352     0.0069 C.ar    
  20 C20           -1.7019    -2.7286     1.2223 C.ar    
  21 C21           -1.9328    -4.0674     1.2447 C.ar    
  22 C22           -2.0701    -4.7798     0.0400 C.ar    
  23 C23           -2.3086    -6.1647     0.0401 C.ar    
  24 C24           -2.4366    -6.8272    -1.1421 C.ar    
  25 C25           -2.3343    -6.1529    -2.3576 C.ar    
  26 C26           -2.1038    -4.8120    -2.3971 C.ar    
  27 C27           -1.9664    -4.0941    -1.1967 C.ar    
  28 O28           -1.6283    -2.0324    -2.3758 O.3     
  29 O29            1.3083    -2.0291    -0.0212 O.3     
  30 Cl30          -4.0153    -0.0609     0.0416 Cl      
  31 H31            1.1330     3.0598     0.0073 H       
  32 H32            4.2894     0.1270    -1.9820 H       
  33 H33            6.4735    -1.0044    -1.9988 H       
  34 H34            5.6832    -2.6266     1.8671 H       
  35 H35            3.5000    -1.4938     1.9074 H       
  36 H36            8.3011    -1.9145     0.3468 H       
  37 H37            7.4892    -3.4908     0.5018 H       
  38 H38            7.8188    -2.8143    -1.1112 H       
  39 H39           -1.5980    -2.1906     2.1530 H       
  40 H40           -2.0107    -4.5854     2.1892 H       
  41 H41           -2.3897    -6.7010     0.9740 H       
  42 H42           -2.6199    -7.8915    -1.1382 H       
  43 H43           -2.4391    -6.7024    -3.2814 H       
  44 H44           -2.0264    -4.3024    -3.3461 H       
  45 H45           -0.7289    -1.9838    -2.7278 H       
  46 H46            2.2055    -2.3896    -0.0320 H       
@<TRIPOS>BOND
   1    1    2 2
   2    1    6 1
   3    1    9 1
   4    2    3 1
   5    2    7 1
   6    3    4 2
   7    3   29 1
   8    4    5 1
   9    4   11 1
  10    5    6 am
  11    5   10 2
  12    6   31 1
  13    7    8 2
  14    7   19 1
  15    8    9 1
  16    8   30 1
  17   11   12 ar
  18   11   16 ar
  19   12   13 ar
  20   12   32 1
  21   13   14 ar
  22   13   33 1
  23   14   15 ar
  24   14   17 1
  25   15   16 ar
  26   15   34 1
  27   16   35 1
  28   17   36 1
  29   17   37 1
  30   17   38 1
  31   18   19 ar
  32   18   27 ar
  33   18   28 1
  34   19   20 ar
  35   20   21 ar
  36   20   39 1
  37   21   22 ar
  38   21   40 1
  39   22   23 ar
  40   22   27 ar
  41   23   24 ar
  42   23   41 1
  43   24   25 ar
  44   24   42 1
  45   25   26 ar
  46   25   43 1
  47   26   27 ar
  48   26   44 1
  49   28   45 1
  50   29   46 1

#	End of record

