#	Name: ASD01916460
#	Creating user name:	WinNT
#	Creation time:	15. 06. 2019 20:07

#	Modifying user name:	WinNT
#	Modification time:	15. 06. 2019 20:07

#	Program:	/corina/corina34_cracker 3.40 0067  02.08.2006

@<TRIPOS>MOLECULE
ASD01916460
  43   47    0    0    0
SMALL
NO_CHARGES


@<TRIPOS>ATOM
   1 C1            -0.0171     1.4087     0.0098 C.ar    
   2 C2             0.0021    -0.0041     0.0020 C.ar    
   3 N3            -1.1275    -0.7015    -0.0080 N.ar    
   4 C4            -2.2987    -0.1122     0.0025 C.ar    
   5 C5            -2.4092     1.2891     0.0219 C.ar    
   6 C6            -1.2519     2.0679     0.0193 C.ar    
   7 N7             1.1486     2.0870     0.0023 N.2     
   8 C8             2.3245     1.4830     0.0075 C.2     
   9 N9             2.4213     0.1221     0.0456 N.am    
  10 C10            1.3173    -0.6619     0.0127 C.2     
  11 N11            3.5617     2.0723    -0.0650 N.pl3   
  12 C12            4.6020     1.0599     0.1834 C.3     
  13 C13            3.8383    -0.2702     0.1407 C.3     
  14 C14           -3.6986     1.9117     0.0394 C.1     
  15 C15           -4.7558     2.4221     0.0537 C.1     
  16 C16           -6.0452     3.0447     0.0712 C.ar    
  17 N17           -6.1376     4.3709     0.0895 N.ar    
  18 C18           -7.3047     4.9807     0.1059 C.ar    
  19 C19           -8.4845     4.2585     0.1047 C.ar    
  20 C20           -8.4351     2.8711     0.0859 C.ar    
  21 C21           -7.1974     2.2541     0.0631 C.ar    
  22 O22            1.4110    -1.8754    -0.0077 O.2     
  23 C23            3.8600     3.4756    -0.3810 C.3     
  24 C24            4.9062     3.4841    -1.5050 C.3     
  25 C25            6.0811     2.5847    -1.1183 C.3     
  26 C26            5.6119     1.1347    -0.9661 C.3     
  27 H27           -3.1951    -0.7145    -0.0043 H       
  28 H28           -1.3068     3.1464     0.0307 H       
  29 H29            5.0788     1.2110     1.1519 H       
  30 H30            4.0150    -0.8400     1.0530 H       
  31 H31            4.1323    -0.8500    -0.7342 H       
  32 H32           -7.3412     6.0600     0.1209 H       
  33 H33           -9.4358     4.7695     0.1187 H       
  34 H34           -9.3432     2.2866     0.0850 H       
  35 H35           -7.1225     1.1768     0.0481 H       
  36 H36            2.9536     3.9804    -0.7152 H       
  37 H37            4.2599     3.9765     0.5007 H       
  38 H38            4.4536     3.1145    -2.4251 H       
  39 H39            5.2640     4.5020    -1.6602 H       
  40 H40            6.8460     2.6371    -1.8930 H       
  41 H41            6.5032     2.9284    -0.1739 H       
  42 H42            6.4665     0.4957    -0.7437 H       
  43 H43            5.1379     0.8052    -1.8907 H       
@<TRIPOS>BOND
   1    1    2 ar
   2    1    7 1
   3    1    6 ar
   4    2    3 ar
   5    2   10 1
   6    3    4 ar
   7    4    5 ar
   8    4   27 1
   9    5    6 ar
  10    5   14 1
  11    6   28 1
  12    7    8 2
  13    8    9 1
  14    8   11 1
  15    9   10 am
  16    9   13 1
  17   10   22 2
  18   11   12 1
  19   11   23 1
  20   12   13 1
  21   12   26 1
  22   12   29 1
  23   13   30 1
  24   13   31 1
  25   14   15 3
  26   15   16 1
  27   16   17 ar
  28   16   21 ar
  29   17   18 ar
  30   18   19 ar
  31   18   32 1
  32   19   20 ar
  33   19   33 1
  34   20   21 ar
  35   20   34 1
  36   21   35 1
  37   23   24 1
  38   23   36 1
  39   23   37 1
  40   24   25 1
  41   24   38 1
  42   24   39 1
  43   25   26 1
  44   25   40 1
  45   25   41 1
  46   26   42 1
  47   26   43 1

#	End of record

