#	Name: ASD04840080
#	Creating user name:	WinNT
#	Creation time:	15. 06. 2019 20:52

#	Modifying user name:	WinNT
#	Modification time:	15. 06. 2019 20:52

#	Program:	/corina/corina34_cracker 3.40 0067  02.08.2006

@<TRIPOS>MOLECULE
ASD04840080
  38   41    0    0    0
SMALL
NO_CHARGES


@<TRIPOS>ATOM
   1 C1            -0.0171     1.4122     0.0098 C.ar    
   2 C2            -1.2616     2.0879     0.0193 C.ar    
   3 C3            -2.4539     1.3437     0.0204 C.ar    
   4 C4            -2.4092    -0.0182     0.0128 C.ar    
   5 C5            -1.1974    -0.6979     0.0035 C.ar    
   6 C6             0.0021    -0.0041     0.0020 C.ar    
   7 C7             1.2874    -0.7338    -0.0141 C.ar    
   8 C8             2.2077    -0.6436     1.1203 C.ar    
   9 C9             3.4323    -1.3604     1.0657 C.ar    
  10 C10            3.7350    -2.1344    -0.0620 C.ar    
  11 C11            2.8525    -2.2050    -1.1190 C.ar    
  12 C12            1.6369    -1.5176    -1.0996 C.ar    
  13 N13            1.9122     0.0918     2.1856 N.ar    
  14 C14            2.7393     0.1761     3.2122 C.ar    
  15 C15            3.9658    -0.5063     3.2226 C.ar    
  16 C16            4.3224    -1.2773     2.1549 C.ar    
  17 C17            2.3647     1.0089     4.3768 C.2     
  18 O18            3.1152     1.0958     5.3276 O.2     
  19 O19            1.1914     1.6705     4.3821 O.3     
  20 C20           -1.2811     3.4936     0.0270 C.ar    
  21 C21           -0.1076     4.1835     0.0252 C.ar    
  22 C22            1.1156     3.5168     0.0159 C.ar    
  23 C23            1.1713     2.1557     0.0025 C.ar    
  24 N24            3.1789    -2.9826    -2.2296 N.pl3   
  25 H25           -3.4068     1.8519     0.0277 H       
  26 H26           -3.3321    -0.5792     0.0145 H       
  27 H27           -1.1902    -1.7779    -0.0021 H       
  28 H28            4.6665    -2.6795    -0.1039 H       
  29 H29            0.9647    -1.5959    -1.9413 H       
  30 H30            4.6255    -0.4214     4.0735 H       
  31 H31            5.2616    -1.8103     2.1451 H       
  32 H32            0.9905     2.2017     5.1648 H       
  33 H33           -2.2222     4.0233     0.0340 H       
  34 H34           -0.1251     5.2633     0.0308 H       
  35 H35            2.0327     4.0872     0.0143 H       
  36 H36            2.1264     1.6518    -0.0086 H       
  37 H37            4.0192    -3.4665    -2.2528 H       
  38 H38            2.5655    -3.0395    -2.9789 H       
@<TRIPOS>BOND
   1    1    6 ar
   2    1   23 ar
   3    1    2 ar
   4    2    3 ar
   5    2   20 ar
   6    3    4 ar
   7    3   25 1
   8    4    5 ar
   9    4   26 1
  10    5    6 ar
  11    5   27 1
  12    6    7 1
  13    7    8 ar
  14    7   12 ar
  15    8   13 ar
  16    8    9 ar
  17    9   10 ar
  18    9   16 ar
  19   10   11 ar
  20   10   28 1
  21   11   12 ar
  22   11   24 1
  23   12   29 1
  24   13   14 ar
  25   14   15 ar
  26   14   17 1
  27   15   16 ar
  28   15   30 1
  29   16   31 1
  30   17   18 2
  31   17   19 1
  32   19   32 1
  33   20   21 ar
  34   20   33 1
  35   21   22 ar
  36   21   34 1
  37   22   23 ar
  38   22   35 1
  39   23   36 1
  40   24   37 1
  41   24   38 1

#	End of record

