#	Name: ASD01903216
#	Creating user name:	WinNT
#	Creation time:	15. 06. 2019 19:54

#	Modifying user name:	WinNT
#	Modification time:	15. 06. 2019 19:54

#	Program:	/corina/corina34_cracker 3.40 0067  02.08.2006

@<TRIPOS>MOLECULE
ASD01903216
  26   28    0    0    0
SMALL
NO_CHARGES


@<TRIPOS>ATOM
   1 S1            -0.0218     1.7569     0.0117 S.3     
   2 C2             0.0021    -0.0041     0.0020 C.2     
   3 N3             1.2325    -0.4171    -0.0119 N.2     
   4 C4             2.1781     0.5116    -0.0160 C.2     
   5 C5             1.7401     1.7811    -0.0050 C.2     
   6 N6            -1.1184    -0.8215     0.0087 N.pl3   
   7 C7            -2.3870    -0.2596     0.0238 C.2     
   8 C8             3.6241     0.1714    -0.0316 C.2     
   9 C9             4.6938     1.0820     0.0631 C.2     
  10 N10            5.8104     0.4044     0.0130 N.2     
  11 N11            5.5001    -0.9550    -0.1145 N.pl3   
  12 C12            4.1561    -1.0800    -0.1344 C.2     
  13 S13           -2.7149     1.4183     0.0348 S.3     
  14 C14           -4.4458     1.0909     0.0503 C.2     
  15 C15           -4.6171    -0.2318     0.0459 C.2     
  16 N16           -3.4967    -0.9307     0.0260 N.2     
  17 C17           -5.9791    -0.8767     0.0563 C.3     
  18 H18            2.3609     2.6649    -0.0062 H       
  19 H19           -1.0152    -1.7860     0.0029 H       
  20 H20            4.6069     2.1542     0.1596 H       
  21 H21            6.1401    -1.6815    -0.1741 H       
  22 H22            3.6026    -2.0032    -0.2231 H       
  23 H23           -5.2313     1.8320     0.0615 H       
  24 H24           -6.3176    -1.0274    -0.9688 H       
  25 H25           -5.9216    -1.8389     0.5652 H       
  26 H26           -6.6832    -0.2301     0.5801 H       
@<TRIPOS>BOND
   1    1    2 1
   2    1    5 1
   3    2    3 2
   4    2    6 1
   5    3    4 1
   6    4    5 2
   7    4    8 1
   8    5   18 1
   9    6    7 1
  10    6   19 1
  11    7   13 1
  12    7   16 2
  13    8    9 1
  14    8   12 2
  15    9   10 2
  16    9   20 1
  17   10   11 1
  18   11   12 1
  19   11   21 1
  20   12   22 1
  21   13   14 1
  22   14   15 2
  23   14   23 1
  24   15   16 1
  25   15   17 1
  26   17   24 1
  27   17   25 1
  28   17   26 1

#	End of record

