#	Name: ASD00960168
#	Creating user name:	WinNT
#	Creation time:	15. 06. 2019 18:53

#	Modifying user name:	WinNT
#	Modification time:	15. 06. 2019 18:53

#	Program:	/corina/corina34_cracker 3.40 0067  02.08.2006

@<TRIPOS>MOLECULE
ASD00960168
  77   79    0    0    0
SMALL
NO_CHARGES


@<TRIPOS>ATOM
   1 O1            -0.0173     1.4248     0.0099 O.3     
   2 O2            -2.3899     0.5001     0.0276 O.3     
   3 C3             0.0021    -0.0041     0.0020 C.3     
   4 C4            -1.4375    -0.5651     0.0127 C.3     
   5 C5            -1.5390    -1.3636    -1.3057 C.3     
   6 O6            -0.1754    -1.7075    -1.6348 O.3     
   7 C7             0.6000    -0.5300    -1.3217 C.3     
   8 C8             2.0731    -0.8974    -1.1319 C.3     
   9 C9            -2.3600    -2.6108    -1.1018 C.2     
  10 C10           -3.7156    -2.6822    -1.1703 C.2     
  11 N11           -1.8677    -3.8333    -0.8285 N.pl3   
  12 C12           -2.9243    -4.7159    -0.7112 C.2     
  13 C13           -4.0890    -4.0043    -0.9237 C.2     
  14 N14           -0.5668    -4.3271    -0.6565 N.2     
  15 C15           -0.3772    -5.5905    -0.3927 C.2     
  16 N16           -1.3858    -6.4527    -0.2767 N.2     
  17 C17           -2.6439    -6.0714    -0.4231 C.2     
  18 O18            2.6177    -1.3406    -2.3765 O.3     
  19 N19           -3.6702    -6.9858    -0.2976 N.pl3   
  20 C20           -1.6454    -1.4851     1.2175 C.3     
  21 P21            4.1488    -1.8083    -2.5467 P.3     
  22 O22            4.4484    -2.8806    -1.5716 O.2     
  23 O23            4.3777    -2.3624    -4.0409 O.3     
  24 O24            5.1252    -0.5555    -2.2835 O.3     
  25 C25            5.0829     0.6414    -3.0631 C.3     
  26 O26            6.0847     1.5724    -2.5753 O.3     
  27 C27            7.3637     1.3093    -2.8860 C.2     
  28 O28            7.6371     0.3334    -3.5439 O.2     
  29 C29            8.4587     2.2311    -2.4145 C.3     
  30 C30            9.8113     1.7071    -2.9011 C.3     
  31 C31            8.2224     3.6338    -2.9780 C.3     
  32 C32            8.4540     2.2882    -0.8855 C.3     
  33 C33            5.6068    -2.9490    -4.4737 C.3     
  34 O34            5.4905    -3.3446    -5.8660 O.3     
  35 C35            5.5318    -2.3654    -6.7831 C.2     
  36 O36            5.6608    -1.2158    -6.4342 O.2     
  37 C37            5.4172    -2.6998    -8.2481 C.3     
  38 C38            5.4929    -1.4131    -9.0724 C.3     
  39 C39            6.5628    -3.6310    -8.6498 C.3     
  40 C40            4.0795    -3.3949    -8.5094 C.3     
  41 H41            0.8606     1.8301     0.0037 H       
  42 H42           -2.3300     1.0705     0.8061 H       
  43 H43            0.5657    -0.3821     0.8550 H       
  44 H44           -1.9746    -0.7458    -2.0910 H       
  45 H45            0.4925     0.2157    -2.1094 H       
  46 H46            2.6238    -0.0230    -0.7851 H       
  47 H47            2.1564    -1.6954    -0.3941 H       
  48 H48           -4.3855    -1.8610    -1.3787 H       
  49 H49           -5.0953    -4.3956    -0.9024 H       
  50 H50            0.6330    -5.9500    -0.2642 H       
  51 H51           -3.4710    -7.9145    -0.1008 H       
  52 H52           -4.5907    -6.6997    -0.4061 H       
  53 H53           -1.5027    -0.9174     2.1370 H       
  54 H54           -2.6567    -1.8911     1.1943 H       
  55 H55           -0.9249    -2.3021     1.1793 H       
  56 H56            5.2865     0.4026    -4.1069 H       
  57 H57            4.0949     1.0944    -2.9800 H       
  58 H58            9.8146     1.6664    -3.9904 H       
  59 H59           10.6033     2.3738    -2.5600 H       
  60 H60            9.9796     0.7078    -2.4997 H       
  61 H61            7.2588     4.0071    -2.6313 H       
  62 H62            9.0144     4.3005    -2.6369 H       
  63 H63            8.2258     3.5931    -4.0672 H       
  64 H64            8.6223     1.2889    -0.4841 H       
  65 H65            9.2460     2.9549    -0.5445 H       
  66 H66            7.4904     2.6615    -0.5388 H       
  67 H67            6.4129    -2.2229    -4.3684 H       
  68 H68            5.8255    -3.8257    -3.8640 H       
  69 H69            6.4459    -0.9179    -8.8862 H       
  70 H70            5.4100    -1.6550   -10.1320 H       
  71 H71            4.6767    -0.7497    -8.7862 H       
  72 H72            6.5088    -4.5477    -8.0625 H       
  73 H73            6.4799    -3.8729    -9.7093 H       
  74 H74            7.5158    -3.1358    -8.4636 H       
  75 H75            3.2633    -2.7315    -8.2232 H       
  76 H76            3.9966    -3.6368    -9.5690 H       
  77 H77            4.0255    -4.3116    -7.9221 H       
@<TRIPOS>BOND
   1    1    3 1
   2    1   41 1
   3    2    4 1
   4    2   42 1
   5    3    4 1
   6    3    7 1
   7    3   43 1
   8    4   20 1
   9    4    5 1
  10    5    6 1
  11    5    9 1
  12    5   44 1
  13    6    7 1
  14    7    8 1
  15    7   45 1
  16    8   18 1
  17    8   46 1
  18    8   47 1
  19    9   10 2
  20    9   11 1
  21   10   13 1
  22   10   48 1
  23   11   12 1
  24   11   14 1
  25   12   13 2
  26   12   17 1
  27   13   49 1
  28   14   15 2
  29   15   16 1
  30   15   50 1
  31   16   17 2
  32   17   19 1
  33   18   21 1
  34   19   51 1
  35   19   52 1
  36   20   53 1
  37   20   54 1
  38   20   55 1
  39   21   22 2
  40   21   23 1
  41   21   24 1
  42   23   33 1
  43   24   25 1
  44   25   26 1
  45   25   56 1
  46   25   57 1
  47   26   27 1
  48   27   28 2
  49   27   29 1
  50   29   30 1
  51   29   31 1
  52   29   32 1
  53   30   58 1
  54   30   59 1
  55   30   60 1
  56   31   61 1
  57   31   62 1
  58   31   63 1
  59   32   64 1
  60   32   65 1
  61   32   66 1
  62   33   34 1
  63   33   67 1
  64   33   68 1
  65   34   35 1
  66   35   36 2
  67   35   37 1
  68   37   38 1
  69   37   39 1
  70   37   40 1
  71   38   69 1
  72   38   70 1
  73   38   71 1
  74   39   72 1
  75   39   73 1
  76   39   74 1
  77   40   75 1
  78   40   76 1
  79   40   77 1

#	End of record

