#	Name: ASD07301355
#	Creating user name:	WinNT
#	Creation time:	15. 06. 2019 21:11

#	Modifying user name:	WinNT
#	Modification time:	15. 06. 2019 21:11

#	Program:	/corina/corina34_cracker 3.40 0067  02.08.2006

@<TRIPOS>MOLECULE
ASD07301355
  35   36    0    0    0
SMALL
NO_CHARGES


@<TRIPOS>ATOM
   1 C1            -0.0169     1.4661     0.0585 C.2     
   2 C2             0.0021    -0.0041     0.0010 C.2     
   3 C3             1.2716    -0.6339    -0.0634 C.2     
   4 C4             2.3706     0.1578    -0.0673 C.2     
   5 N5             2.2550     1.5070    -0.0109 N.pl3   
   6 N6             1.1280     2.1149     0.0476 N.2     
   7 O7            -1.0314    -0.6546     0.0087 O.2     
   8 C8            -1.2982     2.2007     0.1212 C.2     
   9 C9            -1.3010     3.6123     0.1761 C.2     
  10 C10           -2.4729     4.2842     0.2334 C.2     
  11 O11           -2.3517     1.5888     0.1256 O.2     
  12 N12           -2.4757     5.6484     0.2865 N.pl3   
  13 C13           -1.2089     6.3843     0.2812 C.3     
  14 C14           -3.7455     6.3765     0.3486 C.3     
  15 C15            3.4243     2.2747    -0.0175 C.ar    
  16 C16            4.6644     1.6550     0.0721 C.ar    
  17 C17            5.8175     2.4165     0.0648 C.ar    
  18 C18            5.7371     3.7952    -0.0312 C.ar    
  19 C19            4.5040     4.4140    -0.1205 C.ar    
  20 C20            3.3481     3.6579    -0.1195 C.ar    
  21 Cl21           7.3680     1.6438     0.1767 Cl      
  22 H22            1.3589    -1.7094    -0.1075 H       
  23 H23            3.3514    -0.2918    -0.1156 H       
  24 H24           -0.3672     4.1547     0.1722 H       
  25 H25           -3.4068     3.7417     0.2373 H       
  26 H26           -0.9222     6.6066    -0.7466 H       
  27 H27           -1.3275     7.3156     0.8349 H       
  28 H28           -0.4347     5.7780     0.7514 H       
  29 H29           -4.2926     6.0771     1.2425 H       
  30 H30           -3.5486     7.4479     0.3849 H       
  31 H31           -4.3400     6.1461    -0.5354 H       
  32 H32            4.7271     0.5795     0.1477 H       
  33 H33            6.6395     4.3886    -0.0360 H       
  34 H34            4.4447     5.4898    -0.1952 H       
  35 H35            2.3856     4.1421    -0.1938 H       
@<TRIPOS>BOND
   1    1    2 1
   2    1    6 2
   3    1    8 1
   4    2    3 1
   5    2    7 2
   6    3    4 2
   7    3   22 1
   8    4    5 1
   9    4   23 1
  10    5    6 1
  11    5   15 1
  12    8    9 1
  13    8   11 2
  14    9   10 2
  15    9   24 1
  16   10   12 1
  17   10   25 1
  18   12   13 1
  19   12   14 1
  20   13   26 1
  21   13   27 1
  22   13   28 1
  23   14   29 1
  24   14   30 1
  25   14   31 1
  26   15   16 ar
  27   15   20 ar
  28   16   17 ar
  29   16   32 1
  30   17   18 ar
  31   17   21 1
  32   18   19 ar
  33   18   33 1
  34   19   20 ar
  35   19   34 1
  36   20   35 1

#	End of record

