#	Name: ASD01917304
#	Creating user name:	WinNT
#	Creation time:	15. 06. 2019 20:09

#	Modifying user name:	WinNT
#	Modification time:	15. 06. 2019 20:09

#	Program:	/corina/corina34_cracker 3.40 0067  02.08.2006

@<TRIPOS>MOLECULE
ASD01917304
  51   54    0    0    0
SMALL
NO_CHARGES


@<TRIPOS>ATOM
   1 C1            -0.0168     1.3902     0.0097 C.ar    
   2 C2             0.0021    -0.0041     0.0020 C.ar    
   3 N3             1.1281     2.0669     0.0024 N.ar    
   4 N4             1.1562    -0.6463    -0.0125 N.ar    
   5 C5             2.2907     0.0310    -0.0196 C.ar    
   6 C6             2.2753     1.4182    -0.0120 C.ar    
   7 C7            -1.3085     2.1156     0.0197 C.2     
   8 O8            -2.3536     1.4956     0.0213 O.2     
   9 N9            -1.3245     3.4633     0.0271 N.am    
  10 C10           -2.6019     4.1806     0.0371 C.3     
  11 C11           -3.4657     3.8302     1.2613 C.3     
  12 C12           -4.8653     4.4173     1.0685 C.3     
  13 C13           -4.7806     5.9248     0.8223 C.3     
  14 C14           -3.8602     6.1851    -0.3830 C.3     
  15 C15           -4.2573     5.1849    -1.4932 C.3     
  16 C16           -3.4514     3.9012    -1.2242 C.3     
  17 C17           -2.4388     5.7236     0.0340 C.3     
  18 N18           -3.9074     7.5778    -0.8353 N.am    
  19 C19           -5.0754     8.1163    -1.2380 C.2     
  20 C20           -5.1230     9.5219    -1.6944 C.ar    
  21 C21           -6.3310    10.0820    -2.1119 C.ar    
  22 C22           -6.3698    11.3965    -2.5371 C.ar    
  23 C23           -5.2124    12.1575    -2.5497 C.ar    
  24 C24           -4.0104    11.6064    -2.1368 C.ar    
  25 C25           -3.9612    10.2949    -1.7037 C.ar    
  26 O26           -6.0896     7.4465    -1.2260 O.2     
  27 F27           -2.8852    12.3540    -2.1524 F       
  28 F28           -7.5387    11.9400    -2.9416 F       
  29 C29            3.5727     2.1848    -0.0208 C.3     
  30 H30           -0.9252    -0.5578     0.0083 H       
  31 H31            3.2328    -0.4969    -0.0315 H       
  32 H32           -0.4903     3.9582     0.0259 H       
  33 H33           -3.5351     2.7469     1.3606 H       
  34 H34           -3.0139     4.2518     2.1592 H       
  35 H35           -5.3426     3.9384     0.2135 H       
  36 H36           -5.4609     4.2306     1.9621 H       
  37 H37           -5.7758     6.3166     0.6125 H       
  38 H38           -4.3725     6.4162     1.7056 H       
  39 H39           -5.3255     4.9741    -1.4429 H       
  40 H40           -4.0006     5.5902    -2.4719 H       
  41 H41           -2.8024     3.6817    -2.0720 H       
  42 H42           -4.1274     3.0656    -1.0430 H       
  43 H43           -2.1842     6.0917     1.0279 H       
  44 H44           -1.6954     6.0366    -0.6991 H       
  45 H45           -3.0980     8.1123    -0.8448 H       
  46 H46           -7.2338     9.4894    -2.1031 H       
  47 H47           -5.2472    13.1842    -2.8831 H       
  48 H48           -3.0245     9.8677    -1.3774 H       
  49 H49            3.8955     2.3644     1.0047 H       
  50 H50            4.3332     1.6060    -0.5450 H       
  51 H51            3.4279     3.1384    -0.5285 H       
@<TRIPOS>BOND
   1    1    2 ar
   2    1    3 ar
   3    1    7 1
   4    2    4 ar
   5    2   30 1
   6    3    6 ar
   7    4    5 ar
   8    5    6 ar
   9    5   31 1
  10    6   29 1
  11    7    8 2
  12    7    9 am
  13    9   10 1
  14    9   32 1
  15   10   11 1
  16   10   16 1
  17   10   17 1
  18   11   12 1
  19   11   33 1
  20   11   34 1
  21   12   13 1
  22   12   35 1
  23   12   36 1
  24   13   14 1
  25   13   37 1
  26   13   38 1
  27   14   15 1
  28   14   17 1
  29   14   18 1
  30   15   16 1
  31   15   39 1
  32   15   40 1
  33   16   41 1
  34   16   42 1
  35   17   43 1
  36   17   44 1
  37   18   19 am
  38   18   45 1
  39   19   20 1
  40   19   26 2
  41   20   21 ar
  42   20   25 ar
  43   21   22 ar
  44   21   46 1
  45   22   23 ar
  46   22   28 1
  47   23   24 ar
  48   23   47 1
  49   24   25 ar
  50   24   27 1
  51   25   48 1
  52   29   49 1
  53   29   50 1
  54   29   51 1

#	End of record

