#	Name: ASD01200046
#	Creating user name:	WinNT
#	Creation time:	15. 06. 2019 19:08

#	Modifying user name:	WinNT
#	Modification time:	15. 06. 2019 19:08

#	Program:	/corina/corina34_cracker 3.40 0067  02.08.2006

@<TRIPOS>MOLECULE
ASD01200046
  34   35    0    0    0
SMALL
NO_CHARGES


@<TRIPOS>ATOM
   1 C1             0.0574     1.2453    -0.0232 C.ar    
   2 C2            -0.0986    -0.0819     0.3658 C.ar    
   3 C3            -1.3536    -0.6533     0.4070 C.ar    
   4 C4            -2.4718     0.0933     0.0597 C.ar    
   5 C5            -2.3222     1.4321    -0.3336 C.ar    
   6 C6            -1.0480     2.0044    -0.3674 C.ar    
   7 C7            -3.5036     2.2320    -0.7039 C.2     
   8 N8            -3.3727     3.5489    -0.9593 N.am    
   9 C9            -4.4860     4.3026    -1.3082 C.2     
  10 N10           -4.4703     5.5716    -1.5731 N.2     
  11 C11           -5.6240     6.1305    -1.8878 C.2     
  12 C12           -6.6637     5.2941    -1.8889 C.2     
  13 S13           -6.0753     3.6904    -1.4580 S.3     
  14 O14           -4.5963     1.7037    -0.7790 O.2     
  15 C15           -5.7562     7.5948    -2.2183 C.3     
  16 S16            1.6657     1.9635    -0.0710 S.3     
  17 N17           -3.7372    -0.4845     0.1012 N.pl3   
  18 C18            2.7375     0.5998     0.4604 C.3     
  19 C19            4.1933     1.0702     0.4721 C.3     
  20 H20            0.7674    -0.6676     0.6367 H       
  21 H21           -1.4666    -1.6839     0.7096 H       
  22 H22           -0.9250     3.0342    -0.6687 H       
  23 H23           -2.5011     3.9702    -0.8994 H       
  24 H24           -7.6866     5.5540    -2.1183 H       
  25 H25           -5.6190     7.7393    -3.2900 H       
  26 H26           -6.7471     7.9446    -1.9285 H       
  27 H27           -4.9983     8.1597    -1.6756 H       
  28 H28           -3.8326    -1.4479     0.0398 H       
  29 H29           -4.5236     0.0760     0.1915 H       
  30 H30            2.4504     0.2815     1.4626 H       
  31 H31            2.6314    -0.2363    -0.2308 H       
  32 H32            4.4804     1.3886    -0.5300 H       
  33 H33            4.2994     1.9064     1.1633 H       
  34 H34            4.8373     0.2509     0.7915 H       
@<TRIPOS>BOND
   1    1    2 ar
   2    1   16 1
   3    1    6 ar
   4    2    3 ar
   5    2   20 1
   6    3    4 ar
   7    3   21 1
   8    4    5 ar
   9    4   17 1
  10    5    6 ar
  11    5    7 1
  12    6   22 1
  13    7    8 am
  14    7   14 2
  15    8    9 1
  16    8   23 1
  17    9   10 2
  18    9   13 1
  19   10   11 1
  20   11   12 2
  21   11   15 1
  22   12   13 1
  23   12   24 1
  24   15   25 1
  25   15   26 1
  26   15   27 1
  27   16   18 1
  28   17   28 1
  29   17   29 1
  30   18   19 1
  31   18   30 1
  32   18   31 1
  33   19   32 1
  34   19   33 1
  35   19   34 1

#	End of record

