#	Name: ASD01190069
#	Creating user name:	WinNT
#	Creation time:	15. 06. 2019 19:07

#	Modifying user name:	WinNT
#	Modification time:	15. 06. 2019 19:07

#	Program:	/corina/corina34_cracker 3.40 0067  02.08.2006

@<TRIPOS>MOLECULE
ASD01190069
  48   51    0    0    0
SMALL
NO_CHARGES


@<TRIPOS>ATOM
   1 C1             0.1664     1.4703    -0.5286 C.ar    
   2 C2             1.2245     2.0886     0.1255 C.ar    
   3 C3             2.2511     1.3209     0.6598 C.ar    
   4 C4             2.2175    -0.0559     0.5394 C.ar    
   5 C5             1.1626    -0.6690    -0.1130 C.ar    
   6 C6             0.1379     0.0936    -0.6460 C.ar    
   7 S7            -1.1419     2.4399    -1.2016 S.o2    
   8 O8            -0.6043     3.7352    -1.4311 O.2     
   9 O9            -1.7389     1.6540    -2.2239 O.2     
  10 N10           -2.2850     2.6114    -0.0158 N.am    
  11 C11           -1.9666     3.3530     1.2068 C.3     
  12 C12           -2.4298     4.8036     1.0587 C.3     
  13 N13           -4.3775     1.0233     5.7201 N.pl3   
  14 N14           -3.3193     1.1599     6.6246 N.2     
  15 C15           -2.3051     1.7356     6.0435 C.2     
  16 C16           -2.6810     2.0133     4.6609 C.ar    
  17 C17           -2.0257     2.6038     3.5746 C.ar    
  18 C18           -2.6714     2.7177     2.3776 C.ar    
  19 C19           -3.9728     2.2539     2.2283 C.ar    
  20 C20           -4.6333     1.6742     3.2744 C.ar    
  21 C21           -4.0000     1.5439     4.5073 C.ar    
  22 C22           -5.6205     0.4432     6.0046 C.ar    
  23 C23           -5.7020    -0.6328     6.8786 C.ar    
  24 C24           -6.9283    -1.2032     7.1576 C.ar    
  25 C25           -8.0763    -0.7029     6.5664 C.ar    
  26 C26           -7.9973     0.3701     5.6945 C.ar    
  27 C27           -6.7736     0.9471     5.4173 C.ar    
  28 F28           -9.2750    -1.2627     6.8404 F       
  29 F29           -3.8117     4.8322     0.8425 F       
  30 F30           -2.1258     5.5118     2.2263 F       
  31 F31           -1.7755     5.3934    -0.0282 F       
  32 Cl32          -1.1843    -0.6800    -1.4628 Cl      
  33 Cl33           3.5003    -1.0163     1.2069 Cl      
  34 N34            1.2561     3.4798     0.2452 N.pl3   
  35 H35            3.0751     1.7991     1.1685 H       
  36 H36            1.1385    -1.7447    -0.2062 H       
  37 H37           -3.1655     2.2208    -0.1308 H       
  38 H38           -0.8900     3.3308     1.3753 H       
  39 H39           -1.3555     1.9666     6.5032 H       
  40 H40           -1.0145     2.9674     3.6828 H       
  41 H41           -4.4682     2.3532     1.2738 H       
  42 H42           -5.6447     1.3182     3.1452 H       
  43 H43           -4.8068    -1.0235     7.3396 H       
  44 H44           -6.9920    -2.0403     7.8370 H       
  45 H45           -8.8938     0.7586     5.2343 H       
  46 H46           -6.7130     1.7869     4.7410 H       
  47 H47            0.4339     3.9908     0.1825 H       
  48 H48            2.1001     3.9351     0.3911 H       
@<TRIPOS>BOND
   1    1    2 ar
   2    1    6 ar
   3    1    7 1
   4    2    3 ar
   5    2   34 1
   6    3    4 ar
   7    3   35 1
   8    4    5 ar
   9    4   33 1
  10    5    6 ar
  11    5   36 1
  12    6   32 1
  13    7    8 2
  14    7    9 2
  15    7   10 am
  16   10   11 1
  17   10   37 1
  18   11   12 1
  19   11   18 1
  20   11   38 1
  21   12   29 1
  22   12   30 1
  23   12   31 1
  24   13   14 1
  25   13   21 1
  26   13   22 1
  27   14   15 2
  28   15   16 1
  29   15   39 1
  30   16   17 ar
  31   16   21 ar
  32   17   18 ar
  33   17   40 1
  34   18   19 ar
  35   19   20 ar
  36   19   41 1
  37   20   21 ar
  38   20   42 1
  39   22   23 ar
  40   22   27 ar
  41   23   24 ar
  42   23   43 1
  43   24   25 ar
  44   24   44 1
  45   25   26 ar
  46   25   28 1
  47   26   27 ar
  48   26   45 1
  49   27   46 1
  50   34   47 1
  51   34   48 1

#	End of record

