#	Name: ASD01917197
#	Creating user name:	WinNT
#	Creation time:	15. 06. 2019 20:08

#	Modifying user name:	WinNT
#	Modification time:	15. 06. 2019 20:08

#	Program:	/corina/corina34_cracker 3.40 0067  02.08.2006

@<TRIPOS>MOLECULE
ASD01917197
  74   79    0    0    0
SMALL
NO_CHARGES


@<TRIPOS>ATOM
   1 C1             0.5732     1.0664    -0.9152 C.2     
   2 N2             0.4640    -0.2268    -1.1310 N.2     
   3 N3            -0.8919    -0.5548    -0.9702 N.pl3   
   4 C4            -1.5300     0.5974    -0.6586 C.2     
   5 N5            -0.6348     1.5619    -0.6243 N.2     
   6 C6             1.8333     1.8478    -0.9782 C.ar    
   7 C7             1.8187     3.2185    -0.7284 C.ar    
   8 C8             3.0354     1.2117    -1.2815 C.ar    
   9 C9             4.2047     1.9418    -1.3386 C.ar    
  10 C10            4.1849     3.3055    -1.0947 C.ar    
  11 C11           -1.4963    -1.8818    -1.1117 C.3     
  12 C12           -1.4407    -2.6026     0.2105 C.2     
  13 N13           -1.9417    -3.8490     0.3202 N.am    
  14 O14           -0.9450    -2.0613     1.1760 O.2     
  15 C15           -1.8977    -4.5704     1.6011 C.3     
  16 C16           -3.3038    -5.0930     1.9141 C.3     
  17 N17           -3.7952    -5.8795     0.7748 N.3     
  18 C18           -3.9276    -5.0483    -0.4290 C.3     
  19 C19           -2.5526    -4.5214    -0.8365 C.3     
  20 C20           -4.9944    -6.5034     1.0822 C.ar    
  21 C21           -5.6366    -7.3018     0.1404 C.ar    
  22 C22           -6.8379    -7.9058     0.4980 C.ar    
  23 N23           -7.3264    -7.6997     1.7198 N.ar    
  24 C24           -6.6882    -6.9367     2.5834 C.ar    
  25 N25           -5.5459    -6.3519     2.2848 N.ar    
  26 C26           -2.9786     0.7459    -0.3968 C.ar    
  27 C27            2.9927     3.9410    -0.7875 C.ar    
  28 C28           -3.7450    -0.3674    -0.0504 C.ar    
  29 C29           -5.0949    -0.2238     0.1926 C.ar    
  30 C30           -5.6905     1.0236     0.0928 C.ar    
  31 C31           -4.9337     2.1325    -0.2509 C.ar    
  32 C32           -3.5818     2.0005    -0.4899 C.ar    
  33 F33            5.3322     4.0166    -1.1511 F       
  34 F34           -7.0134     1.1590     0.3310 F       
  35 N35           -7.5166    -8.7100    -0.4045 N.pl3   
  36 C36           -6.9660    -8.9351    -1.7433 C.3     
  37 C37           -8.7845    -9.3347    -0.0194 C.3     
  38 C38           -7.3800    -7.7862    -2.6649 C.3     
  39 C39           -6.6987    -7.9264    -4.0445 C.3     
  40 C40           -8.8899    -7.8641    -2.9822 C.3     
  41 O41           -8.9983    -7.4546    -4.3630 O.3     
  42 C42           -7.8775    -8.0724    -5.0322 C.3     
  43 H43            0.8898     3.7147    -0.4892 H       
  44 H44            3.0518     0.1486    -1.4714 H       
  45 H45            5.1369     1.4495    -1.5733 H       
  46 H46           -2.5350    -1.7764    -1.4247 H       
  47 H47           -0.9474    -2.4530    -1.8603 H       
  48 H48           -1.2041    -5.4079     1.5260 H       
  49 H49           -1.5743    -3.8933     2.3917 H       
  50 H50           -3.2682    -5.7231     2.8028 H       
  51 H51           -3.9736    -4.2515     2.0910 H       
  52 H52           -4.3445    -5.6459    -1.2397 H       
  53 H53           -4.5887    -4.2074    -0.2195 H       
  54 H54           -2.6605    -3.8138    -1.6585 H       
  55 H55           -1.9190    -5.3526    -1.1459 H       
  56 H56           -5.2137    -7.4483    -0.8425 H       
  57 H57           -7.1113    -6.7899     3.5662 H       
  58 H58            2.9815     5.0043    -0.5984 H       
  59 H59           -3.2819    -1.3401     0.0269 H       
  60 H60           -5.6890    -1.0849     0.4608 H       
  61 H61           -5.4025     3.1024    -0.3277 H       
  62 H62           -2.9928     2.8653    -0.7576 H       
  63 H63           -5.8785    -8.9810    -1.6858 H       
  64 H64           -7.3488    -9.8754    -2.1402 H       
  65 H65           -9.6094    -8.6684    -0.2719 H       
  66 H66           -8.9023   -10.2773    -0.5539 H       
  67 H67           -8.7854    -9.5233     1.0542 H       
  68 H68           -7.1318    -6.8263    -2.2121 H       
  69 H69           -6.1156    -7.0347    -4.2749 H       
  70 H70           -6.0669    -8.8142    -4.0700 H       
  71 H71           -9.2512    -8.8852    -2.8598 H       
  72 H72           -9.4483    -7.1835    -2.3396 H       
  73 H73           -7.6582    -7.5517    -5.9644 H       
  74 H74           -8.0835    -9.1254    -5.2241 H       
@<TRIPOS>BOND
   1    1    2 2
   2    1    6 1
   3    1    5 1
   4    2    3 1
   5    3    4 1
   6    3   11 1
   7    4    5 2
   8    4   26 1
   9    6    7 ar
  10    6    8 ar
  11    7   27 ar
  12    7   43 1
  13    8    9 ar
  14    8   44 1
  15    9   10 ar
  16    9   45 1
  17   10   27 ar
  18   10   33 1
  19   11   12 1
  20   11   46 1
  21   11   47 1
  22   12   13 am
  23   12   14 2
  24   13   15 1
  25   13   19 1
  26   15   16 1
  27   15   48 1
  28   15   49 1
  29   16   17 1
  30   16   50 1
  31   16   51 1
  32   17   18 1
  33   17   20 1
  34   18   19 1
  35   18   52 1
  36   18   53 1
  37   19   54 1
  38   19   55 1
  39   20   21 ar
  40   20   25 ar
  41   21   22 ar
  42   21   56 1
  43   22   23 ar
  44   22   35 1
  45   23   24 ar
  46   24   25 ar
  47   24   57 1
  48   26   28 ar
  49   26   32 ar
  50   27   58 1
  51   28   29 ar
  52   28   59 1
  53   29   30 ar
  54   29   60 1
  55   30   31 ar
  56   30   34 1
  57   31   32 ar
  58   31   61 1
  59   32   62 1
  60   35   36 1
  61   35   37 1
  62   36   38 1
  63   36   63 1
  64   36   64 1
  65   37   65 1
  66   37   66 1
  67   37   67 1
  68   38   39 1
  69   38   40 1
  70   38   68 1
  71   39   42 1
  72   39   69 1
  73   39   70 1
  74   40   41 1
  75   40   71 1
  76   40   72 1
  77   41   42 1
  78   42   73 1
  79   42   74 1

#	End of record

