#	Name: ASD01880300
#	Creating user name:	WinNT
#	Creation time:	15. 06. 2019 19:40

#	Modifying user name:	WinNT
#	Modification time:	15. 06. 2019 19:40

#	Program:	/corina/corina34_cracker 3.40 0067  02.08.2006

@<TRIPOS>MOLECULE
ASD01880300
  46   48    0    0    0
SMALL
NO_CHARGES


@<TRIPOS>ATOM
   1 C1            -0.0161     1.3389     0.0094 C.2     
   2 C2             0.0021    -0.0041     0.0020 C.2     
   3 N3             1.1659    -0.7197    -0.0129 N.am    
   4 C4             2.3754    -0.1252    -0.0213 C.2     
   5 C5             2.4542     1.3399    -0.0142 C.ar    
   6 C6             1.2481     2.0753     0.0013 C.ar    
   7 O7             3.3916    -0.7966    -0.0342 O.2     
   8 C8             1.0967    -2.1830    -0.0196 C.3     
   9 C9             1.0586    -2.6852    -1.4643 C.3     
  10 C10            0.9863    -4.2135    -1.4713 C.3     
  11 C11            3.6765     2.0131    -0.0219 C.ar    
  12 C12            3.6970     3.3902    -0.0142 C.ar    
  13 C13            2.5158     4.1192     0.0011 C.ar    
  14 C14            1.2903     3.4767     0.0080 C.ar    
  15 N15            0.1073     4.2168     0.0229 N.pl3   
  16 C16            0.1592     5.6808     0.0313 C.3     
  17 C17           -1.2642     6.2416     0.0472 C.3     
  18 C18           -1.2108     7.7476     0.0558 C.ar    
  19 C19           -1.1969     8.4445    -1.1382 C.ar    
  20 C20           -1.1480     9.8251    -1.1330 C.ar    
  21 C21           -1.1127    10.5122     0.0716 C.ar    
  22 C22           -1.1268     9.8106     1.2684 C.ar    
  23 C23           -1.1815     8.4303     1.2578 C.ar    
  24 O24           -1.0641    11.8703     0.0794 O.3     
  25 H25           -0.9561     1.8707     0.0167 H       
  26 H26           -0.9370    -0.5375     0.0085 H       
  27 H27            1.9735    -2.5905     0.4836 H       
  28 H28            0.1956    -2.5066     0.5014 H       
  29 H29            0.1818    -2.2777    -1.9676 H       
  30 H30            1.9597    -2.3617    -1.9854 H       
  31 H31            0.9591    -4.5713    -2.5006 H       
  32 H32            1.8631    -4.6210    -0.9680 H       
  33 H33            0.0852    -4.5370    -0.9503 H       
  34 H34            4.6021     1.4569    -0.0334 H       
  35 H35            4.6439     3.9094    -0.0198 H       
  36 H36            2.5537     5.1985     0.0069 H       
  37 H37           -0.7494     3.7618     0.0277 H       
  38 H38            0.6935     6.0204     0.9186 H       
  39 H39            0.6777     6.0311    -0.8612 H       
  40 H40           -1.7985     5.9020    -0.8401 H       
  41 H41           -1.7827     5.8913     0.9397 H       
  42 H42           -1.2240     7.9091    -2.0758 H       
  43 H43           -1.1368    10.3690    -2.0660 H       
  44 H44           -1.0994    10.3433     2.2075 H       
  45 H45           -1.1924     7.8836     2.1892 H       
  46 H46           -1.9328    12.2950     0.0895 H       
@<TRIPOS>BOND
   1    1    2 2
   2    1    6 1
   3    1   25 1
   4    2    3 1
   5    2   26 1
   6    3    4 am
   7    3    8 1
   8    4    5 1
   9    4    7 2
  10    5    6 ar
  11    5   11 ar
  12    6   14 ar
  13    8    9 1
  14    8   27 1
  15    8   28 1
  16    9   10 1
  17    9   29 1
  18    9   30 1
  19   10   31 1
  20   10   32 1
  21   10   33 1
  22   11   12 ar
  23   11   34 1
  24   12   13 ar
  25   12   35 1
  26   13   14 ar
  27   13   36 1
  28   14   15 1
  29   15   16 1
  30   15   37 1
  31   16   17 1
  32   16   38 1
  33   16   39 1
  34   17   18 1
  35   17   40 1
  36   17   41 1
  37   18   19 ar
  38   18   23 ar
  39   19   20 ar
  40   19   42 1
  41   20   21 ar
  42   20   43 1
  43   21   22 ar
  44   21   24 1
  45   22   23 ar
  46   22   44 1
  47   23   45 1
  48   24   46 1

#	End of record

