#	Name: ASD09116253
#	Creating user name:	WinNT
#	Creation time:	15. 06. 2019 21:21

#	Modifying user name:	WinNT
#	Modification time:	15. 06. 2019 21:21

#	Program:	/corina/corina34_cracker 3.40 0067  02.08.2006

@<TRIPOS>MOLECULE
ASD09116253
  72   77    0    0    0
SMALL
NO_CHARGES


@<TRIPOS>ATOM
   1 N1            -0.4852     3.0593    -0.8889 N.2     
   2 N2            -0.6968     1.7775    -1.4216 N.pl3   
   3 C3             0.8126     3.2282    -0.8020 C.2     
   4 N4             1.4267     2.1266    -1.2494 N.2     
   5 C5             0.5292     1.2416    -1.6271 C.2     
   6 N6             1.4499     4.3720    -0.3212 N.pl3   
   7 C7             2.8415     4.3868    -0.1707 C.ar    
   8 C8             3.5371     5.5856    -0.2585 C.ar    
   9 C9             5.5942     4.4162     0.1275 C.ar    
  10 C10            3.5267     3.2036     0.0722 C.ar    
  11 C11           -1.9279     1.1747    -1.6863 C.ar    
  12 N12           -2.0163     0.2242    -2.6046 N.ar    
  13 N13           -3.1267    -0.3558    -2.8930 N.ar    
  14 C14           -4.2565    -0.0330    -2.2842 C.ar    
  15 C15           -4.2559     0.9449    -1.2854 C.ar    
  16 C16           -3.0658     1.5699    -0.9784 C.ar    
  17 C17           -5.5466    -0.6611    -2.6522 C.ar    
  18 C18           -6.6488     0.1581    -2.9017 C.ar    
  19 C19           -6.4853     1.6523    -2.8456 C.3     
  20 C20           -6.4334     2.1531    -1.4048 C.3     
  21 C21           -5.5280     1.2648    -0.5557 C.3     
  22 C22           -5.6711    -2.0427    -2.7466 C.ar    
  23 C23           -6.8940    -2.5985    -3.0695 C.ar    
  24 C24           -7.9888    -1.7842    -3.2955 C.ar    
  25 C25           -7.8669    -0.4080    -3.2109 C.ar    
  26 N26            0.7919    -0.0136    -2.1422 N.pl3   
  27 C27            4.9100     5.5994    -0.1095 C.ar    
  28 O28            6.9460     4.4308     0.2747 O.3     
  29 C29            7.5968     5.6983     0.1662 C.3     
  30 C30            4.8996     3.2192     0.2210 C.ar    
  31 C31            9.1037     5.5161     0.3585 C.3     
  32 N32            9.6476     4.7276    -0.7552 N.3     
  33 C33           11.1086     4.8609    -0.8304 C.3     
  34 C34            9.2527     3.3170    -0.6438 C.3     
  35 C35           11.6543     4.0272    -2.0030 C.3     
  36 C36           12.3496     5.0163    -2.9610 C.3     
  37 C37           12.7144     6.2234    -2.0616 C.3     
  38 C38           11.4914     6.3276    -1.1168 C.3     
  39 H39            0.9288     5.1572    -0.0912 H       
  40 H40            3.0047     6.5068    -0.4437 H       
  41 H41            2.9861     2.2715     0.1451 H       
  42 H42           -3.0165     2.3415    -0.2242 H       
  43 H43           -5.5610     1.9291    -3.3528 H       
  44 H44           -7.3256     2.1224    -3.3565 H       
  45 H45           -6.0488     3.1729    -1.3930 H       
  46 H46           -7.4395     2.1448    -0.9856 H       
  47 H47           -6.0513     0.3371    -0.3240 H       
  48 H48           -5.2880     1.7817     0.3734 H       
  49 H49           -4.8161    -2.6781    -2.5689 H       
  50 H50           -6.9952    -3.6711    -3.1458 H       
  51 H51           -8.9442    -2.2246    -3.5395 H       
  52 H52           -8.7261     0.2222    -3.3875 H       
  53 H53            1.7088    -0.3103    -2.2529 H       
  54 H54            0.0594    -0.5979    -2.3930 H       
  55 H55            5.4511     6.5315    -0.1777 H       
  56 H56            7.4050     6.1221    -0.8195 H       
  57 H57            7.2116     6.3713     0.9323 H       
  58 H58            5.4331     2.2984     0.4051 H       
  59 H59            9.5876     6.4925     0.3828 H       
  60 H60            9.2897     4.9949     1.2976 H       
  61 H61           11.5619     4.5316     0.1046 H       
  62 H62            8.1792     3.2261    -0.8091 H       
  63 H63            9.7864     2.7302    -1.3914 H       
  64 H64            9.4996     2.9482     0.3517 H       
  65 H65           12.3731     3.2939    -1.6372 H       
  66 H66           10.8350     3.5237    -2.5162 H       
  67 H67           13.2497     4.5696    -3.3834 H       
  68 H68           11.6671     5.3235    -3.7535 H       
  69 H69           13.6239     6.0225    -1.4955 H       
  70 H70           12.8210     7.1304    -2.6568 H       
  71 H71           10.6703     6.8465    -1.6114 H       
  72 H72           11.7652     6.8377    -0.1933 H       
@<TRIPOS>BOND
   1    1    2 1
   2    1    3 2
   3    2   11 1
   4    2    5 1
   5    3    4 1
   6    3    6 1
   7    4    5 2
   8    5   26 1
   9    6    7 1
  10    6   39 1
  11    7    8 ar
  12    7   10 ar
  13    8   27 ar
  14    8   40 1
  15    9   30 ar
  16    9   28 1
  17    9   27 ar
  18   10   30 ar
  19   10   41 1
  20   11   12 ar
  21   11   16 ar
  22   12   13 ar
  23   13   14 ar
  24   14   15 ar
  25   14   17 1
  26   15   16 ar
  27   15   21 1
  28   16   42 1
  29   17   18 ar
  30   17   22 ar
  31   18   19 1
  32   18   25 ar
  33   19   20 1
  34   19   43 1
  35   19   44 1
  36   20   21 1
  37   20   45 1
  38   20   46 1
  39   21   47 1
  40   21   48 1
  41   22   23 ar
  42   22   49 1
  43   23   24 ar
  44   23   50 1
  45   24   25 ar
  46   24   51 1
  47   25   52 1
  48   26   53 1
  49   26   54 1
  50   27   55 1
  51   28   29 1
  52   29   31 1
  53   29   56 1
  54   29   57 1
  55   30   58 1
  56   31   32 1
  57   31   59 1
  58   31   60 1
  59   32   33 1
  60   32   34 1
  61   33   35 1
  62   33   38 1
  63   33   61 1
  64   34   62 1
  65   34   63 1
  66   34   64 1
  67   35   36 1
  68   35   65 1
  69   35   66 1
  70   36   37 1
  71   36   67 1
  72   36   68 1
  73   37   38 1
  74   37   69 1
  75   37   70 1
  76   38   71 1
  77   38   72 1

#	End of record

