#	Name: ASD00311042
#	Creating user name:	WinNT
#	Creation time:	15. 06. 2019 18:34

#	Modifying user name:	WinNT
#	Modification time:	15. 06. 2019 18:34

#	Program:	/corina/corina34_cracker 3.40 0067  02.08.2006

@<TRIPOS>MOLECULE
ASD00311042
  32   34    0    0    0
SMALL
NO_CHARGES


@<TRIPOS>ATOM
   1 C1            -0.0158     1.3142     0.0093 C.ar    
   2 N2             0.0021    -0.0041     0.0020 N.ar    
   3 C3             1.1288    -0.6885    -0.0125 C.ar    
   4 C4             2.3501    -0.0438    -0.0203 C.ar    
   5 C5             2.3788     1.3545    -0.0130 C.ar    
   6 C6             1.1594     2.0394     0.0019 C.ar    
   7 C7             3.6714     3.5057    -0.0129 C.2     
   8 C8             3.6653     2.0899    -0.0204 C.2     
   9 C9             3.6592     6.3598     0.0025 C.ar    
  10 C10            4.8543     5.6437    -0.0119 C.ar    
  11 C11            4.8479     4.1782    -0.0197 C.2     
  12 C12            3.6670     7.7461     0.0093 C.ar    
  13 C13            4.8298     8.4568     0.0024 C.ar    
  14 C14            6.0708     7.8006    -0.0121 C.ar    
  15 C15            6.1167     6.3854    -0.0196 C.ar    
  16 O16            4.7168     1.4767    -0.0330 O.2     
  17 C17            7.2812     8.5196    -0.0194 C.ar    
  18 N18            7.2893     5.7551    -0.0329 N.ar    
  19 C19            8.4212     6.4208    -0.0393 C.ar    
  20 C20            8.4506     7.8125    -0.0331 C.ar    
  21 H21           -0.9624     1.8340     0.0166 H       
  22 H22            1.0963    -1.7680    -0.0179 H       
  23 H23            3.2692    -0.6109    -0.0314 H       
  24 H24            1.1373     3.1192     0.0079 H       
  25 H25            2.7385     4.0498    -0.0018 H       
  26 H26            2.7180     5.8301     0.0038 H       
  27 H27            5.7808     3.6342    -0.0309 H       
  28 H28            2.7265     8.2770     0.0201 H       
  29 H29            4.7962     9.5363     0.0080 H       
  30 H30            7.2855     9.5996    -0.0148 H       
  31 H31            9.3529     5.8747    -0.0501 H       
  32 H32            9.3969     8.3330    -0.0393 H       
@<TRIPOS>BOND
   1    1    2 ar
   2    1    6 ar
   3    1   21 1
   4    2    3 ar
   5    3    4 ar
   6    3   22 1
   7    4    5 ar
   8    4   23 1
   9    5    6 ar
  10    5    8 1
  11    6   24 1
  12    7    8 1
  13    7   11 2
  14    7   25 1
  15    8   16 2
  16    9   10 ar
  17    9   12 ar
  18    9   26 1
  19   10   11 1
  20   10   15 ar
  21   11   27 1
  22   12   13 ar
  23   12   28 1
  24   13   14 ar
  25   13   29 1
  26   14   15 ar
  27   14   17 ar
  28   15   18 ar
  29   17   20 ar
  30   17   30 1
  31   18   19 ar
  32   19   20 ar
  33   19   31 1
  34   20   32 1

#	End of record

