#	Name: ASD09740655
#	Creating user name:	WinNT
#	Creation time:	15. 06. 2019 21:23

#	Modifying user name:	WinNT
#	Modification time:	15. 06. 2019 21:23

#	Program:	/corina/corina34_cracker 3.40 0067  02.08.2006

@<TRIPOS>MOLECULE
ASD09740655
  61   63    0    0    0
SMALL
NO_CHARGES


@<TRIPOS>ATOM
   1 Si1            0.8194     1.2012     0.7309 Si      
   2 O2            -0.0065     0.0499    -0.0769 O.3     
   3 C3             0.6261    -0.3806    -1.2837 C.3     
   4 C4             1.4152    -1.6844    -1.0391 C.3     
   5 C5             0.3811    -2.7699    -1.4061 C.3     
   6 C6            -0.5546    -2.1071    -2.3940 C.ar    
   7 C7            -1.4660    -2.6661    -3.2922 C.ar    
   8 C8            -2.2292    -1.8399    -4.1133 C.ar    
   9 C9            -2.0811    -0.4701    -4.0356 C.ar    
  10 C10           -1.1776     0.0794    -3.1455 C.ar    
  11 C11           -0.4144    -0.7365    -2.3242 C.ar    
  12 O12           -2.5098    -4.9669    -4.2333 O.3     
  13 B13           -1.6298    -4.2252    -3.3767 Du      
  14 O14           -0.9319    -5.2205    -2.6146 O.3     
  15 C15           -0.6638    -6.2804    -3.5565 C.3     
  16 C16           -1.7337    -6.1085    -4.6540 C.3     
  17 C17           -2.6186    -7.3540    -4.7357 C.3     
  18 C18           -1.0715    -5.8341    -6.0057 C.3     
  19 C19            0.7380    -6.1248    -4.1495 C.3     
  20 C20           -0.8091    -7.6447    -2.8794 C.3     
  21 C21            2.5412     0.5902     1.0953 C.3     
  22 C22            0.9150     2.7430    -0.3105 C.3     
  23 C23           -0.0547     1.5856     2.3306 C.3     
  24 C24           -0.1332     0.3194     3.1859 C.3     
  25 C25            0.7201     2.6656     3.0884 C.3     
  26 C26           -1.4687     2.0874     2.0314 C.3     
  27 H27            1.2891     0.3974    -1.6625 H       
  28 H28            2.2846    -1.7400    -1.6943 H       
  29 H29            1.7106    -1.7682     0.0067 H       
  30 H30            0.8767    -3.6235    -1.8686 H       
  31 H31           -0.1675    -3.0852    -0.5185 H       
  32 H32           -2.9346    -2.2698    -4.8090 H       
  33 H33           -2.6716     0.1732    -4.6711 H       
  34 H34           -1.0652     1.1521    -3.0894 H       
  35 H35           -3.4040    -7.1939    -5.4743 H       
  36 H36           -2.0130    -8.2114    -5.0293 H       
  37 H37           -3.0692    -7.5440    -3.7615 H       
  38 H38           -0.4331    -4.9542    -5.9256 H       
  39 H39           -0.4691    -6.6947    -6.2967 H       
  40 H40           -1.8404    -5.6578    -6.7579 H       
  41 H41            1.4789    -6.1911    -3.3528 H       
  42 H42            0.9148    -6.9170    -4.8769 H       
  43 H43            0.8189    -5.1554    -4.6412 H       
  44 H44           -1.8172    -7.7452    -2.4771 H       
  45 H45           -0.6290    -8.4337    -3.6096 H       
  46 H46           -0.0847    -7.7272    -2.0692 H       
  47 H47            3.0526     0.3653     0.1593 H       
  48 H48            3.0931     1.3596     1.6351 H       
  49 H49            2.4852    -0.3119     1.7046 H       
  50 H50           -0.0902     3.0479    -0.6015 H       
  51 H51            1.3846     3.5412     0.2644 H       
  52 H52            1.5066     2.5421    -1.2037 H       
  53 H53            0.8742    -0.0381     3.3990 H       
  54 H54           -0.6446     0.5443     4.1218 H       
  55 H55           -0.6852    -0.4500     2.6460 H       
  56 H56            0.7760     3.5677     2.4791 H       
  57 H57            0.2087     2.8905     4.0243 H       
  58 H58            1.7275     2.3081     3.3016 H       
  59 H59           -2.0207     1.3180     1.4915 H       
  60 H60           -1.9801     2.3123     2.9673 H       
  61 H61           -1.4128     2.9895     1.4221 H       
@<TRIPOS>BOND
   1    1    2 1
   2    1   21 1
   3    1   22 1
   4    1   23 1
   5    2    3 1
   6    3    4 1
   7    3   11 1
   8    3   27 1
   9    4    5 1
  10    4   28 1
  11    4   29 1
  12    5    6 1
  13    5   30 1
  14    5   31 1
  15    6    7 ar
  16    6   11 ar
  17    7    8 ar
  18    7   13 1
  19    8    9 ar
  20    8   32 1
  21    9   10 ar
  22    9   33 1
  23   10   11 ar
  24   10   34 1
  25   12   13 1
  26   12   16 1
  27   13   14 1
  28   14   15 1
  29   15   16 1
  30   15   19 1
  31   15   20 1
  32   16   17 1
  33   16   18 1
  34   17   35 1
  35   17   36 1
  36   17   37 1
  37   18   38 1
  38   18   39 1
  39   18   40 1
  40   19   41 1
  41   19   42 1
  42   19   43 1
  43   20   44 1
  44   20   45 1
  45   20   46 1
  46   21   47 1
  47   21   48 1
  48   21   49 1
  49   22   50 1
  50   22   51 1
  51   22   52 1
  52   23   24 1
  53   23   26 1
  54   23   25 1
  55   24   53 1
  56   24   54 1
  57   24   55 1
  58   25   56 1
  59   25   57 1
  60   25   58 1
  61   26   59 1
  62   26   60 1
  63   26   61 1

#	End of record

