#	Name: ASD03540121
#	Creating user name:	WinNT
#	Creation time:	15. 06. 2019 20:42

#	Modifying user name:	WinNT
#	Modification time:	15. 06. 2019 20:42

#	Program:	/corina/corina34_cracker 3.40 0067  02.08.2006

@<TRIPOS>MOLECULE
ASD03540121
  48   50    0    0    0
SMALL
NO_CHARGES


@<TRIPOS>ATOM
   1 C1            -0.2950     1.5535     0.5648 C.2     
   2 C2            -0.1529     0.0935     0.3815 C.ar    
   3 C3             1.1087    -0.4962     0.4258 C.ar    
   4 C4             1.2337    -1.8729     0.2521 C.ar    
   5 C5             2.5682    -2.5072     0.2980 C.2     
   6 C6             0.0951    -2.6526     0.0348 C.ar    
   7 C7            -1.1521    -2.0618    -0.0079 C.ar    
   8 C8            -1.2837    -0.6988     0.1692 C.ar    
   9 O9             0.6895     2.2410     0.7544 O.2     
  10 N10           -1.5155     2.1231     0.5161 N.am    
  11 O11            3.5581    -1.8275     0.4876 O.2     
  12 N12            2.6875    -3.8391     0.1298 N.am    
  13 C13            3.9557    -4.4250     0.0654 C.ar    
  14 C14            4.1566    -5.7062     0.5632 C.ar    
  15 C15            5.4099    -6.2820     0.4977 C.ar    
  16 C16            6.4647    -5.5844    -0.0624 C.ar    
  17 C17            6.2681    -4.3090    -0.5588 C.ar    
  18 C18            5.0156    -3.7295    -0.5015 C.ar    
  19 C19            5.6289    -7.6719     1.0374 C.3     
  20 O20            5.3977    -8.6275     0.0004 O.3     
  21 C21           -1.6629     3.4856     0.7949 C.ar    
  22 C22           -2.6399     4.2276     0.1434 C.ar    
  23 C23           -2.7832     5.5726     0.4213 C.ar    
  24 C24           -1.9548     6.1812     1.3467 C.ar    
  25 C25           -0.9813     5.4455     1.9969 C.ar    
  26 C26           -0.8366     4.0984     1.7277 C.ar    
  27 C27           -3.8429     6.3785    -0.2849 C.3     
  28 O28           -5.0550     6.3375     0.4708 O.3     
  29 H29            1.9858     0.1112     0.5938 H       
  30 H30            0.1907    -3.7199    -0.1004 H       
  31 H31           -2.0292    -2.6691    -0.1762 H       
  32 H32           -2.2626    -0.2435     0.1391 H       
  33 H33           -2.2917     1.5881     0.2878 H       
  34 H34            1.8936    -4.3913     0.0533 H       
  35 H35            3.3335    -6.2512     1.0013 H       
  36 H36            7.4442    -6.0368    -0.1118 H       
  37 H37            7.0939    -3.7668    -0.9952 H       
  38 H38            4.8617    -2.7348    -0.8931 H       
  39 H39            6.6541    -7.7653     1.3956 H       
  40 H40            4.9383    -7.8549     1.8607 H       
  41 H41            5.5207    -9.5459     0.2773 H       
  42 H42           -3.2866     3.7532    -0.5798 H       
  43 H43           -2.0684     7.2335     1.5617 H       
  44 H44           -0.3359     5.9237     2.7187 H       
  45 H45           -0.0787     3.5234     2.2389 H       
  46 H46           -3.5096     7.4117    -0.3814 H       
  47 H47           -4.0180     5.9592    -1.2757 H       
  48 H48           -5.7826     6.8362     0.0745 H       
@<TRIPOS>BOND
   1    1    2 1
   2    1    9 2
   3    1   10 am
   4    2    3 ar
   5    2    8 ar
   6    3    4 ar
   7    3   29 1
   8    4    5 1
   9    4    6 ar
  10    5   11 2
  11    5   12 am
  12    6    7 ar
  13    6   30 1
  14    7    8 ar
  15    7   31 1
  16    8   32 1
  17   10   21 1
  18   10   33 1
  19   12   13 1
  20   12   34 1
  21   13   14 ar
  22   13   18 ar
  23   14   15 ar
  24   14   35 1
  25   15   16 ar
  26   15   19 1
  27   16   17 ar
  28   16   36 1
  29   17   18 ar
  30   17   37 1
  31   18   38 1
  32   19   20 1
  33   19   39 1
  34   19   40 1
  35   20   41 1
  36   21   22 ar
  37   21   26 ar
  38   22   23 ar
  39   22   42 1
  40   23   24 ar
  41   23   27 1
  42   24   25 ar
  43   24   43 1
  44   25   26 ar
  45   25   44 1
  46   26   45 1
  47   27   28 1
  48   27   46 1
  49   27   47 1
  50   28   48 1

#	End of record

