#	Name: ASD01150935
#	Creating user name:	WinNT
#	Creation time:	15. 06. 2019 19:05

#	Modifying user name:	WinNT
#	Modification time:	15. 06. 2019 19:05

#	Program:	/corina/corina34_cracker 3.40 0067  02.08.2006

@<TRIPOS>MOLECULE
ASD01150935
  62   65    0    0    0
SMALL
NO_CHARGES


@<TRIPOS>ATOM
   1 C1             0.0375     1.4928     0.3825 C.3     
   2 C2             0.0356    -0.0097     0.2656 C.2     
   3 N3            -1.0809    -0.7067     0.5553 N.am    
   4 O4             1.0388    -0.5916    -0.0891 O.2     
   5 C5            -1.0827    -2.0932     0.4474 C.2     
   6 N6            -0.0522    -2.8542     0.0707 N.2     
   7 C7            -0.4014    -4.1245     0.0797 C.2     
   8 N8            -1.7000    -4.2313     0.4716 N.pl3   
   9 C9            -2.1553    -2.9339     0.7182 C.2     
  10 C10           -3.4431    -2.5543     1.1465 C.2     
  11 O11           -4.3880    -3.4950     1.3611 O.3     
  12 O12           -3.7038    -1.3779     1.3232 O.2     
  13 C13           -5.6710    -3.0388     1.7943 C.3     
  14 C14           -6.6017    -4.2383     1.9833 C.3     
  15 S15            0.6483    -5.4732    -0.3491 S.3     
  16 C16            2.1680    -4.5744    -0.7474 C.3     
  17 C17           -2.4370    -5.4148     0.6064 C.ar    
  18 C18           -2.0782    -6.3524     1.5658 C.ar    
  19 C19           -2.8071    -7.5182     1.6966 C.ar    
  20 C20           -3.8934    -7.7521     0.8734 C.ar    
  21 C21           -4.2532    -6.8204    -0.0829 C.ar    
  22 C22           -3.5314    -5.6503    -0.2151 C.ar    
  23 C23            1.4170     2.0324    -0.0006 C.3     
  24 C24            1.6823     1.7454    -1.4560 C.ar    
  25 C25            1.4570     3.5205     0.2334 C.ar    
  26 C26            0.4783     4.3321    -0.3091 C.ar    
  27 C27            0.5150     5.6972    -0.0945 C.ar    
  28 C28            1.5302     6.2507     0.6630 C.ar    
  29 C29            2.5085     5.4390     1.2063 C.ar    
  30 C30            2.4693     4.0734     0.9953 C.ar    
  31 C31            2.8520     1.1131    -1.8338 C.ar    
  32 C32            3.0953     0.8499    -3.1689 C.ar    
  33 C33            2.1687     1.2186    -4.1261 C.ar    
  34 C34            0.9985     1.8501    -3.7482 C.ar    
  35 C35            0.7533     2.1094    -2.4127 C.ar    
  36 H36           -0.7146     1.9102    -0.2869 H       
  37 H37           -0.1917     1.7776     1.4093 H       
  38 H38           -1.8833    -0.2413     0.8390 H       
  39 H39           -5.5673    -2.5068     2.7400 H       
  40 H40           -6.0904    -2.3681     1.0443 H       
  41 H41           -7.5804    -3.8903     2.3137 H       
  42 H42           -6.7055    -4.7703     1.0376 H       
  43 H43           -6.1824    -4.9090     2.7333 H       
  44 H44            1.9770    -3.8834    -1.5684 H       
  45 H45            2.4998    -4.0158     0.1279 H       
  46 H46            2.9426    -5.2827    -1.0414 H       
  47 H47           -1.2297    -6.1704     2.2087 H       
  48 H48           -2.5283    -8.2480     2.4423 H       
  49 H49           -4.4616    -8.6646     0.9774 H       
  50 H50           -5.1019    -7.0061    -0.7245 H       
  51 H51           -3.8132    -4.9228    -0.9619 H       
  52 H52            2.1790     1.5479     0.6100 H       
  53 H53           -0.3149     3.8996    -0.9010 H       
  54 H54           -0.2493     6.3313    -0.5190 H       
  55 H55            1.5593     7.3173     0.8301 H       
  56 H56            3.3018     5.8715     1.7979 H       
  57 H57            3.2336     3.4393     1.4198 H       
  58 H58            3.5760     0.8250    -1.0860 H       
  59 H59            4.0096     0.3565    -3.4641 H       
  60 H60            2.3591     1.0136    -5.1692 H       
  61 H61            0.2747     2.1385    -4.4961 H       
  62 H62           -0.1610     2.6028    -2.1175 H       
@<TRIPOS>BOND
   1    1    2 1
   2    1   23 1
   3    1   36 1
   4    1   37 1
   5    2    3 am
   6    2    4 2
   7    3    5 1
   8    3   38 1
   9    5    6 1
  10    5    9 2
  11    6    7 2
  12    7    8 1
  13    7   15 1
  14    8    9 1
  15    8   17 1
  16    9   10 1
  17   10   11 1
  18   10   12 2
  19   11   13 1
  20   13   14 1
  21   13   39 1
  22   13   40 1
  23   14   41 1
  24   14   42 1
  25   14   43 1
  26   15   16 1
  27   16   44 1
  28   16   45 1
  29   16   46 1
  30   17   18 ar
  31   17   22 ar
  32   18   19 ar
  33   18   47 1
  34   19   20 ar
  35   19   48 1
  36   20   21 ar
  37   20   49 1
  38   21   22 ar
  39   21   50 1
  40   22   51 1
  41   23   24 1
  42   23   25 1
  43   23   52 1
  44   24   31 ar
  45   24   35 ar
  46   25   26 ar
  47   25   30 ar
  48   26   27 ar
  49   26   53 1
  50   27   28 ar
  51   27   54 1
  52   28   29 ar
  53   28   55 1
  54   29   30 ar
  55   29   56 1
  56   30   57 1
  57   31   32 ar
  58   31   58 1
  59   32   33 ar
  60   32   59 1
  61   33   34 ar
  62   33   60 1
  63   34   35 ar
  64   34   61 1
  65   35   62 1

#	End of record

