#	Name: ASD07930118
#	Creating user name:	WinNT
#	Creation time:	15. 06. 2019 21:11

#	Modifying user name:	WinNT
#	Modification time:	15. 06. 2019 21:11

#	Program:	/corina/corina34_cracker 3.40 0067  02.08.2006

@<TRIPOS>MOLECULE
ASD07930118
  49   52    0    0    0
SMALL
NO_CHARGES


@<TRIPOS>ATOM
   1 C1            -0.0180     1.4773     0.0102 C.2     
   2 C2             0.0021    -0.0041     0.0020 C.2     
   3 N3             1.1802     2.1517     0.0023 N.am    
   4 N4             1.1186    -0.6399     0.4307 N.am    
   5 C5             2.2481     0.1661     0.9158 C.3     
   6 C6             2.4245     1.3702    -0.0212 C.3     
   7 C7            -1.2123     2.1530     0.0196 C.2     
   8 C8            -1.2392     3.5505     0.0298 C.2     
   9 C9            -0.0413     4.2517     0.0310 C.2     
  10 C10            1.2177     3.4954     0.0146 C.2     
  11 O11           -0.9634    -0.6357    -0.3810 O.2     
  12 O12            2.2865     4.0807     0.0124 O.2     
  13 O13            0.4223     6.5390    -0.9278 O.3     
  14 N14            0.2926     7.7022    -0.6253 N.2     
  15 C15           -0.2496     7.8431     0.5511 C.2     
  16 C16           -0.4883     6.5444     1.0434 C.2     
  17 C17           -0.0330     5.7249     0.0424 C.2     
  18 C18           -0.5605     9.1418     1.2495 C.3     
  19 C19            1.1988    -2.1026     0.4117 C.3     
  20 C20            1.7667    -2.5649    -0.9317 C.3     
  21 O21            3.1154    -2.1106    -1.0603 O.3     
  22 C22            3.7705    -2.4387    -2.2052 C.ar    
  23 C23            5.0826    -2.0302    -2.3961 C.ar    
  24 C24            5.7468    -2.3649    -3.5600 C.ar    
  25 C25            5.1043    -3.1073    -4.5353 C.ar    
  26 C26            3.7958    -3.5152    -4.3469 C.ar    
  27 C27            3.1300    -3.1871    -3.1816 C.ar    
  28 C28            5.7825    -1.2213    -1.3346 C.3     
  29 F29            7.0858    -0.9316    -1.7526 F       
  30 F30            5.0847    -0.0275    -1.1220 F       
  31 F31            5.8269    -1.9539    -0.1436 F       
  32 Cl32           5.9412    -3.5268    -5.9973 Cl      
  33 H33            2.0407     0.5161     1.9270 H       
  34 H34            3.1562    -0.4367     0.9127 H       
  35 H35            2.6216     1.0220    -1.0351 H       
  36 H36            3.2537     1.9875     0.3246 H       
  37 H37           -2.1400     1.6000     0.0187 H       
  38 H38           -2.1812     4.0786     0.0364 H       
  39 H39           -0.9270     6.2607     1.9886 H       
  40 H40           -1.5684     9.4632     0.9872 H       
  41 H41           -0.4936     8.9995     2.3281 H       
  42 H42            0.1558     9.9022     0.9383 H       
  43 H43            1.8501    -2.4413     1.2174 H       
  44 H44            0.2025    -2.5229     0.5490 H       
  45 H45            1.7437    -3.6535    -0.9806 H       
  46 H46            1.1654    -2.1520    -1.7417 H       
  47 H47            6.7680    -2.0468    -3.7091 H       
  48 H48            3.2960    -4.0942    -5.1094 H       
  49 H49            2.1101    -3.5099    -3.0328 H       
@<TRIPOS>BOND
   1    1    2 1
   2    1    3 1
   3    1    7 2
   4    2    4 am
   5    2   11 2
   6    3    6 1
   7    3   10 am
   8    4    5 1
   9    4   19 1
  10    5    6 1
  11    5   33 1
  12    5   34 1
  13    6   35 1
  14    6   36 1
  15    7    8 1
  16    7   37 1
  17    8    9 2
  18    8   38 1
  19    9   10 1
  20    9   17 1
  21   10   12 2
  22   13   14 1
  23   13   17 1
  24   14   15 2
  25   15   16 1
  26   15   18 1
  27   16   17 2
  28   16   39 1
  29   18   40 1
  30   18   41 1
  31   18   42 1
  32   19   20 1
  33   19   43 1
  34   19   44 1
  35   20   21 1
  36   20   45 1
  37   20   46 1
  38   21   22 1
  39   22   23 ar
  40   22   27 ar
  41   23   24 ar
  42   23   28 1
  43   24   25 ar
  44   24   47 1
  45   25   26 ar
  46   25   32 1
  47   26   27 ar
  48   26   48 1
  49   27   49 1
  50   28   29 1
  51   28   30 1
  52   28   31 1

#	End of record

