#	Name: ASD03180094
#	Creating user name:	WinNT
#	Creation time:	15. 06. 2019 20:33

#	Modifying user name:	WinNT
#	Modification time:	15. 06. 2019 20:33

#	Program:	/corina/corina34_cracker 3.40 0067  02.08.2006

@<TRIPOS>MOLECULE
ASD03180094
  38   40    0    0    0
SMALL
NO_CHARGES


@<TRIPOS>ATOM
   1 C1            -0.0132     1.4240     0.2527 C.ar    
   2 C2            -1.1711    -0.5367     1.0050 C.ar    
   3 C3            -2.3815     0.0818     0.7489 C.ar    
   4 C4            -2.4105     1.3650     0.2347 C.ar    
   5 C5            -1.2303     2.0400    -0.0088 C.ar    
   6 C6             0.0125     0.1302     0.7585 C.ar    
   7 C7            -1.2632     3.4434    -0.5570 C.3     
   8 N8             1.1831     2.1020     0.0021 N.pl3   
   9 C9             2.3878     1.4328     0.0912 C.2     
  10 N10            2.5314     0.1415     0.2739 N.2     
  11 O11            3.6031     1.9970    -0.0008 O.3     
  12 C12            4.5248     1.0138     0.1366 C.2     
  13 C13            3.8413    -0.1486     0.3087 C.2     
  14 C14           -1.1260     3.3992    -2.0802 C.3     
  15 C15            5.9866     1.1732     0.1023 C.2     
  16 O16            6.9079     0.1933     0.2382 O.3     
  17 C17            8.1211     0.7586     0.1466 C.2     
  18 N18            7.9809     2.0409    -0.0394 N.2     
  19 C19            6.6728     2.3351    -0.0784 C.2     
  20 C20            6.0723     3.7023    -0.2813 C.3     
  21 C21            9.4355     0.0278     0.2432 C.3     
  22 H22           -1.1519    -1.5390     1.4066 H       
  23 H23           -3.3058    -0.4422     0.9422 H       
  24 H24           -3.3573     1.8451     0.0358 H       
  25 H25            0.9573    -0.3534     0.9584 H       
  26 H26           -2.2090     3.9153    -0.2909 H       
  27 H27           -0.4388     4.0179    -0.1345 H       
  28 H28            1.1671     3.0426    -0.2345 H       
  29 H29            4.2741    -1.1285     0.4462 H       
  30 H30           -0.1802     2.9272    -2.3463 H       
  31 H31           -1.9503     2.8247    -2.5028 H       
  32 H32           -1.1497     4.4142    -2.4768 H       
  33 H33            5.9347     4.1858     0.6859 H       
  34 H34            6.7403     4.3048    -0.8968 H       
  35 H35            5.1078     3.6053    -0.7796 H       
  36 H36            9.7447    -0.2967    -0.7504 H       
  37 H37           10.1915     0.6935     0.6596 H       
  38 H38            9.3210    -0.8419     0.8902 H       
@<TRIPOS>BOND
   1    1    6 ar
   2    1    8 1
   3    1    5 ar
   4    2    3 ar
   5    2    6 ar
   6    2   22 1
   7    3    4 ar
   8    3   23 1
   9    4    5 ar
  10    4   24 1
  11    5    7 1
  12    6   25 1
  13    7   14 1
  14    7   26 1
  15    7   27 1
  16    8    9 1
  17    8   28 1
  18    9   11 1
  19    9   10 2
  20   10   13 1
  21   11   12 1
  22   12   13 2
  23   12   15 1
  24   13   29 1
  25   14   30 1
  26   14   31 1
  27   14   32 1
  28   15   16 1
  29   15   19 2
  30   16   17 1
  31   17   18 2
  32   17   21 1
  33   18   19 1
  34   19   20 1
  35   20   33 1
  36   20   34 1
  37   20   35 1
  38   21   36 1
  39   21   37 1
  40   21   38 1

#	End of record

