#	Name: ASD03090824
#	Creating user name:	WinNT
#	Creation time:	15. 06. 2019 20:29

#	Modifying user name:	WinNT
#	Modification time:	15. 06. 2019 20:29

#	Program:	/corina/corina34_cracker 3.40 0067  02.08.2006

@<TRIPOS>MOLECULE
ASD03090824
  38   41    0    0    0
SMALL
NO_CHARGES


@<TRIPOS>ATOM
   1 C1             0.0696     1.5357    -0.0317 C.3     
   2 C2             0.1103    -0.0015    -0.0496 C.3     
   3 C3             1.5102     0.1067     0.5778 C.3     
   4 C4             1.6065     1.4985    -0.0690 C.3     
   5 C5            -0.5498     2.1376    -1.2666 C.2     
   6 O6            -0.9587     1.4152    -2.1560 O.2     
   7 N7            -0.6492     3.4555    -1.3840 N.2     
   8 S8            -1.8323     3.1448    -3.8381 S.3     
   9 C9            -1.1977     3.9885    -2.4776 C.2     
  10 N10           -1.3707     5.3055    -2.7465 N.pl3   
  11 C11           -1.9576     5.6214    -3.9323 C.2     
  12 C12           -2.3065     4.6090    -4.7165 C.2     
  13 C13           -2.9667     4.6881    -6.0688 C.3     
  14 O14            0.2920     9.0230     0.9803 O.3     
  15 C15            1.0248     8.1178     1.8268 C.3     
  16 O16            0.4136     6.8395     1.5710 O.3     
  17 C17           -0.0843     6.9206     0.3025 C.ar    
  18 C18           -0.1593     8.2635    -0.0613 C.ar    
  19 C19           -0.4864     5.9408    -0.5890 C.ar    
  20 C20           -0.9637     6.2975    -1.8431 C.ar    
  21 C21           -1.0375     7.6361    -2.2026 C.ar    
  22 C22           -0.6367     8.6151    -1.3133 C.ar    
  23 F23            2.3771     8.0964     1.4693 F       
  24 F24            0.8762     8.4733     3.1717 F       
  25 H25           -0.3348     1.9510     0.8914 H       
  26 H26           -0.6271    -0.4654     0.6054 H       
  27 H27            0.1134    -0.4265    -1.0534 H       
  28 H28            1.4996     0.1313     1.6674 H       
  29 H29            2.2251    -0.6117     0.1766 H       
  30 H30            2.0186     1.4836    -1.0780 H       
  31 H31            2.0770     2.2455     0.5704 H       
  32 H32           -2.1317     6.6472    -4.2217 H       
  33 H33           -3.1233     3.6813    -6.4561 H       
  34 H34           -3.9272     5.1948    -5.9751 H       
  35 H35           -2.3272     5.2454    -6.7533 H       
  36 H36           -0.4288     4.8992    -0.3091 H       
  37 H37           -1.4089     7.9129    -3.1782 H       
  38 H38           -0.6948     9.6560    -1.5952 H       
@<TRIPOS>BOND
   1    1    2 1
   2    1    4 1
   3    1    5 1
   4    1   25 1
   5    2    3 1
   6    2   26 1
   7    2   27 1
   8    3    4 1
   9    3   28 1
  10    3   29 1
  11    4   30 1
  12    4   31 1
  13    5    6 2
  14    5    7 1
  15    7    9 2
  16    8    9 1
  17    8   12 1
  18    9   10 1
  19   10   11 1
  20   10   20 1
  21   11   12 2
  22   11   32 1
  23   12   13 1
  24   13   33 1
  25   13   34 1
  26   13   35 1
  27   14   15 1
  28   14   18 1
  29   15   16 1
  30   15   23 1
  31   15   24 1
  32   16   17 1
  33   17   18 ar
  34   17   19 ar
  35   18   22 ar
  36   19   20 ar
  37   19   36 1
  38   20   21 ar
  39   21   22 ar
  40   21   37 1
  41   22   38 1

#	End of record

