#	Name: ASD01914350
#	Creating user name:	WinNT
#	Creation time:	15. 06. 2019 20:03

#	Modifying user name:	WinNT
#	Modification time:	15. 06. 2019 20:03

#	Program:	/corina/corina34_cracker 3.40 0067  02.08.2006

@<TRIPOS>MOLECULE
ASD01914350
  44   47    0    0    0
SMALL
NO_CHARGES


@<TRIPOS>ATOM
   1 C1             0.0473     1.2231    -0.2684 C.2     
   2 N2             0.0118    -0.1318    -0.2637 N.pl3   
   3 C3            -1.2078    -0.9381    -0.1626 C.3     
   4 C4            -2.3410    -0.0715     0.3975 C.3     
   5 N5            -2.3521     1.2227    -0.3011 N.am    
   6 C6            -1.1763     2.1006    -0.1512 C.3     
   7 C7            -3.0607     4.0570    -0.8945 C.ar    
   8 C8            -3.4467     2.9473    -1.6488 C.ar    
   9 C9            -3.4051     1.5955    -1.0552 C.2     
  10 C10           -3.1022     5.3164    -1.4545 C.ar    
  11 C11           -3.5253     5.4840    -2.7617 C.ar    
  12 C12           -3.8733     3.1223    -2.9692 C.ar    
  13 C13            1.3336     1.6062    -0.3867 C.2     
  14 C14            2.1198     0.4474    -0.4517 C.2     
  15 N15            1.3262    -0.5927    -0.3757 N.2     
  16 C16            3.6202     0.4050    -0.5863 C.3     
  17 O17            4.2151     0.3981     0.7130 O.3     
  18 C18            5.5724     0.3611     0.7699 C.ar    
  19 C19            6.2162     0.3523     1.9987 C.ar    
  20 C20            7.5961     0.3142     2.0540 C.ar    
  21 C21            8.3353     0.2847     0.8859 C.ar    
  22 C22            6.3162     0.3261    -0.4006 C.ar    
  23 O23           -4.3208     0.8191    -1.2468 O.2     
  24 C24            7.6960     0.2938    -0.3400 C.ar    
  25 C25           -3.9095     4.3916    -3.5168 C.ar    
  26 F26            1.7847     2.8787    -0.4341 F       
  27 F27           -4.2493     2.0549    -3.7071 F       
  28 H28           -1.4846    -1.3050    -1.1510 H       
  29 H29           -1.0317    -1.7824     0.5038 H       
  30 H30           -3.2949    -0.5761     0.2442 H       
  31 H31           -2.1818     0.0916     1.4634 H       
  32 H32           -1.1952     2.5840     0.8256 H       
  33 H33           -1.1711     2.8532    -0.9396 H       
  34 H34           -2.7343     3.9297     0.1272 H       
  35 H35           -2.8037     6.1749    -0.8712 H       
  36 H36           -3.5557     6.4732    -3.1939 H       
  37 H37            3.9114    -0.4974    -1.1240 H       
  38 H38            3.9605     1.2819    -1.1371 H       
  39 H39            5.6393     0.3757     2.9114 H       
  40 H40            8.0978     0.3077     3.0103 H       
  41 H41            9.4139     0.2549     0.9312 H       
  42 H42            5.8172     0.3283    -1.3584 H       
  43 H43            8.2756     0.2711    -1.2510 H       
  44 H44           -4.2389     4.5297    -4.5360 H       
@<TRIPOS>BOND
   1    1    2 1
   2    1   13 2
   3    1    6 1
   4    2    3 1
   5    2   15 1
   6    3    4 1
   7    3   28 1
   8    3   29 1
   9    4    5 1
  10    4   30 1
  11    4   31 1
  12    5    6 1
  13    5    9 am
  14    6   32 1
  15    6   33 1
  16    7    8 ar
  17    7   10 ar
  18    7   34 1
  19    8    9 1
  20    8   12 ar
  21    9   23 2
  22   10   11 ar
  23   10   35 1
  24   11   25 ar
  25   11   36 1
  26   12   27 1
  27   12   25 ar
  28   13   14 1
  29   13   26 1
  30   14   15 2
  31   14   16 1
  32   16   17 1
  33   16   37 1
  34   16   38 1
  35   17   18 1
  36   18   19 ar
  37   18   22 ar
  38   19   20 ar
  39   19   39 1
  40   20   21 ar
  41   20   40 1
  42   21   24 ar
  43   21   41 1
  44   22   24 ar
  45   22   42 1
  46   24   43 1
  47   25   44 1

#	End of record

