#	Name: ASD08150024
#	Creating user name:	WinNT
#	Creation time:	15. 06. 2019 21:15

#	Modifying user name:	WinNT
#	Modification time:	15. 06. 2019 21:15

#	Program:	/corina/corina34_cracker 3.40 0067  02.08.2006

@<TRIPOS>MOLECULE
ASD08150024
  41   45    0    0    0
SMALL
NO_CHARGES


@<TRIPOS>ATOM
   1 N1             0.3187     1.1814     0.9110 N.2     
   2 C2             0.2565    -0.0890     0.6515 C.2     
   3 N3             1.0844    -0.7136    -0.2300 N.am    
   4 C4             2.0361    -0.0163    -0.8933 C.2     
   5 C5             2.1319     1.4253    -0.6216 C.ar    
   6 C6             3.0771     2.2324    -1.2516 C.ar    
   7 C7             3.1235     3.5780    -0.9597 C.ar    
   8 C8             2.2378     4.1332    -0.0452 C.ar    
   9 C9             1.2968     3.3532     0.5883 C.ar    
  10 C10            1.2299     1.9866     0.3094 C.ar    
  11 O11            2.7839    -0.5618    -1.6838 O.2     
  12 C12            0.0133    -3.9342    -1.6455 C.ar    
  13 C13            0.1172    -2.5711    -1.4583 C.ar    
  14 C14            0.9509    -2.0873    -0.4519 C.ar    
  15 C15            1.6485    -3.0083     0.3274 C.ar    
  16 C16            1.4897    -4.3558     0.0762 C.ar    
  17 N17            0.6905    -4.7747    -0.8865 N.ar    
  18 C18           -0.7849    -0.9142     1.3627 C.3     
  19 S19           -1.8412     0.1712     2.3538 S.3     
  20 N20           -4.3862     0.5566     4.4287 N.2     
  21 C21           -5.4067     0.3560     5.2111 C.2     
  22 N22           -5.7018    -0.9740     5.2596 N.pl3   
  23 C23           -4.8018    -1.6245     4.4540 C.ar    
  24 N24           -4.5938    -2.8919     4.1114 N.ar    
  25 C25           -3.6165    -3.2135     3.2900 C.ar    
  26 N26           -2.8032    -2.3135     2.7691 N.ar    
  27 C27           -2.9335    -1.0210     3.0540 C.ar    
  28 C28           -3.9629    -0.6282     3.9271 C.ar    
  29 H29            3.7686     1.8061    -1.9633 H       
  30 H30            3.8551     4.2064    -1.4458 H       
  31 H31            2.2882     5.1900     0.1718 H       
  32 H32            0.6136     3.7961     1.2978 H       
  33 H33           -0.6339    -4.3182    -2.4201 H       
  34 H34           -0.4395    -1.8886    -2.0833 H       
  35 H35            2.3045    -2.6720     1.1167 H       
  36 H36            2.0263    -5.0766     0.6752 H       
  37 H37           -1.3936    -1.4422     0.6287 H       
  38 H38           -0.2933    -1.6366     2.0143 H       
  39 H39           -5.9410     1.1292     5.7433 H       
  40 H40           -6.4170    -1.3850     5.7701 H       
  41 H41           -3.4749    -4.2528     3.0325 H       
@<TRIPOS>BOND
   1    1    2 2
   2    1   10 1
   3    2    3 1
   4    2   18 1
   5    3    4 am
   6    3   14 1
   7    4    5 1
   8    4   11 2
   9    5    6 ar
  10    5   10 ar
  11    6    7 ar
  12    6   29 1
  13    7    8 ar
  14    7   30 1
  15    8    9 ar
  16    8   31 1
  17    9   10 ar
  18    9   32 1
  19   12   13 ar
  20   12   17 ar
  21   12   33 1
  22   13   14 ar
  23   13   34 1
  24   14   15 ar
  25   15   16 ar
  26   15   35 1
  27   16   17 ar
  28   16   36 1
  29   18   19 1
  30   18   37 1
  31   18   38 1
  32   19   27 1
  33   20   21 2
  34   20   28 1
  35   21   22 1
  36   21   39 1
  37   22   23 1
  38   22   40 1
  39   23   24 ar
  40   23   28 ar
  41   24   25 ar
  42   25   26 ar
  43   25   41 1
  44   26   27 ar
  45   27   28 ar

#	End of record

