#	Name: ASD03430202
#	Creating user name:	WinNT
#	Creation time:	15. 06. 2019 20:40

#	Modifying user name:	WinNT
#	Modification time:	15. 06. 2019 20:40

#	Program:	/corina/corina34_cracker 3.40 0067  02.08.2006

@<TRIPOS>MOLECULE
ASD03430202
  64   70    0    0    0
SMALL
NO_CHARGES


@<TRIPOS>ATOM
   1 C1            -0.0293     1.2761     0.4381 C.ar    
   2 C2            -0.0110    -0.0980     0.3457 C.ar    
   3 C3             1.1908    -0.7735     0.3106 C.ar    
   4 C4             2.3931    -0.0741     0.3768 C.ar    
   5 C5             2.3661     1.3130     0.4594 C.ar    
   6 C6             1.1574     1.9981     0.4875 C.ar    
   7 O7             3.4586    -0.9245     0.3609 O.3     
   8 C8             1.5465    -2.2309     0.1947 C.3     
   9 C9             3.0406    -2.2015    -0.1575 C.3     
  10 C10            0.4120    -4.0142     1.1186 C.ar    
  11 C11            1.2867    -2.9870     1.4640 C.ar    
  12 C12            0.7395    -2.9332    -0.8590 C.2     
  13 N13            0.1128    -3.9564    -0.2444 N.am    
  14 O14            0.6660    -2.6378    -2.0330 O.2     
  15 C15            1.7228    -2.8454     2.7620 C.ar    
  16 C16            1.2936    -3.7276     3.7380 C.ar    
  17 C17            0.4249    -4.7510     3.4066 C.ar    
  18 C18           -0.0153    -4.8971     2.1074 C.ar    
  19 C19           -0.7780    -4.8982    -0.9268 C.3     
  20 C20           -1.1640     2.2786     0.5142 C.3     
  21 C21           -0.4332     3.5530     0.9994 C.3     
  22 O22            0.9150     3.3372     0.5492 O.3     
  23 C23           -2.2016    -4.4182    -0.8092 C.ar    
  24 C24           -3.2330    -5.1303    -1.4241 C.ar    
  25 C25           -2.9328    -6.3574    -2.1921 C.2     
  26 O26           -1.7787    -6.6886    -2.3818 O.2     
  27 C27           -2.4893    -3.2775    -0.0890 C.ar    
  28 C28           -3.7961    -2.8357     0.0203 C.ar    
  29 C29           -4.8221    -3.5338    -0.5910 C.ar    
  30 C30           -4.5486    -4.6790    -1.3103 C.ar    
  31 N31           -3.9387    -7.1088    -2.6820 N.am    
  32 C32           -3.6412    -8.3248    -3.4430 C.3     
  33 C33           -4.9303    -8.9756    -3.8741 C.ar    
  34 C34           -5.5047    -8.6360    -5.0846 C.ar    
  35 C35           -5.5351    -9.9161    -3.0614 C.ar    
  36 C36           -6.7184   -10.5134    -3.4573 C.ar    
  37 C37           -7.2959   -10.1689    -4.6666 C.ar    
  38 C38           -6.6876    -9.2323    -5.4806 C.ar    
  39 Cl39          -7.4782   -11.6951    -2.4375 Cl      
  40 H40           -0.9397    -0.6476     0.3010 H       
  41 H41            3.2939     1.8641     0.5028 H       
  42 H42            3.1848    -2.2470    -1.2370 H       
  43 H43            3.5714    -3.0135     0.3395 H       
  44 H44            2.4009    -2.0451     3.0189 H       
  45 H45            1.6366    -3.6172     4.7561 H       
  46 H46            0.0898    -5.4395     4.1682 H       
  47 H47           -0.6936    -5.6991     1.8560 H       
  48 H48           -0.5018    -4.9619    -1.9793 H       
  49 H49           -0.6872    -5.8823    -0.4672 H       
  50 H50           -1.6112     2.4360    -0.4673 H       
  51 H51           -1.9159     1.9618     1.2369 H       
  52 H52           -0.8580     4.4425     0.5343 H       
  53 H53           -0.4700     3.6291     2.0862 H       
  54 H54           -1.6928    -2.7282     0.3909 H       
  55 H55           -4.0160    -1.9422     0.5857 H       
  56 H56           -5.8399    -3.1839    -0.5015 H       
  57 H57           -5.3505    -5.2231    -1.7871 H       
  58 H58           -4.8596    -6.8445    -2.5306 H       
  59 H59           -3.0520    -8.0675    -4.3232 H       
  60 H60           -3.0767    -9.0161    -2.8172 H       
  61 H61           -5.0295    -7.9043    -5.7212 H       
  62 H62           -5.0837   -10.1849    -2.1178 H       
  63 H63           -8.2197   -10.6349    -4.9762 H       
  64 H64           -7.1382    -8.9633    -6.4245 H       
@<TRIPOS>BOND
   1    1    2 ar
   2    1    6 ar
   3    1   20 1
   4    2    3 ar
   5    2   40 1
   6    3    4 ar
   7    3    8 1
   8    4    5 ar
   9    4    7 1
  10    5    6 ar
  11    5   41 1
  12    6   22 1
  13    7    9 1
  14    8    9 1
  15    8   11 1
  16    8   12 1
  17    9   42 1
  18    9   43 1
  19   10   11 ar
  20   10   13 1
  21   10   18 ar
  22   11   15 ar
  23   12   13 am
  24   12   14 2
  25   13   19 1
  26   15   16 ar
  27   15   44 1
  28   16   17 ar
  29   16   45 1
  30   17   18 ar
  31   17   46 1
  32   18   47 1
  33   19   23 1
  34   19   48 1
  35   19   49 1
  36   20   21 1
  37   20   50 1
  38   20   51 1
  39   21   22 1
  40   21   52 1
  41   21   53 1
  42   23   24 ar
  43   23   27 ar
  44   24   25 1
  45   24   30 ar
  46   25   26 2
  47   25   31 am
  48   27   28 ar
  49   27   54 1
  50   28   29 ar
  51   28   55 1
  52   29   30 ar
  53   29   56 1
  54   30   57 1
  55   31   32 1
  56   31   58 1
  57   32   33 1
  58   32   59 1
  59   32   60 1
  60   33   34 ar
  61   33   35 ar
  62   34   38 ar
  63   34   61 1
  64   35   36 ar
  65   35   62 1
  66   36   37 ar
  67   36   39 1
  68   37   38 ar
  69   37   63 1
  70   38   64 1

#	End of record

