#	Name: ASD03430453
#	Creating user name:	WinNT
#	Creation time:	15. 06. 2019 20:41

#	Modifying user name:	WinNT
#	Modification time:	15. 06. 2019 20:41

#	Program:	/corina/corina34_cracker 3.40 0067  02.08.2006

@<TRIPOS>MOLECULE
ASD03430453
  51   55    0    0    0
SMALL
NO_CHARGES


@<TRIPOS>ATOM
   1 N1            -0.0161     1.3396     0.0094 N.am    
   2 C2             0.0021    -0.0041     0.0020 C.2     
   3 C3             1.4556    -0.4274    -0.0141 C.3     
   4 C4             2.2175     0.8778    -0.0144 C.ar    
   5 C5             3.5735     1.1767    -0.0261 C.ar    
   6 C6             3.9990     2.5108    -0.0235 C.ar    
   7 C7             3.0210     3.5258    -0.0091 C.ar    
   8 C8             1.6973     3.2171     0.0019 C.ar    
   9 C9             1.2698     1.8850     0.0001 C.ar    
  10 S10            5.0047     0.1507    -0.0454 S.3     
  11 C11            6.0193     1.5226    -0.0483 C.2     
  12 N12            5.3422     2.6076    -0.0361 N.2     
  13 O13           -0.9631    -0.7386     0.0073 O.2     
  14 C14           -1.2431     2.1401     0.0197 C.3     
  15 C15           -1.6628     2.4114     1.4658 C.3     
  16 C16           -2.9442     3.2474     1.4766 C.3     
  17 C17           -4.0888     2.4342     0.8687 C.3     
  18 C18           -3.2953     3.6241     2.9174 C.3     
  19 O19            2.6885    -3.4531     4.5852 O.3     
  20 C20            2.3899    -2.7128     3.4826 C.ar    
  21 C21            1.9048    -1.4160     3.6065 C.ar    
  22 O22            1.7220    -0.8549     4.8341 O.3     
  23 C23            1.6802    -1.7502     5.9507 C.3     
  24 C24            2.8459    -2.7396     5.8164 C.3     
  25 C25            1.6025    -0.6796     2.4713 C.ar    
  26 C26            1.7853    -1.2312     1.2172 C.ar    
  27 C27            2.2715    -2.5236     1.0912 C.ar    
  28 C28            2.5734    -3.2641     2.2238 C.ar    
  29 O29            2.4517    -3.0649    -0.1431 O.3     
  30 H30            1.6770    -0.9991    -0.9153 H       
  31 H31            3.3271     4.5615    -0.0064 H       
  32 H32            0.9654     4.0112     0.0132 H       
  33 H33            7.0984     1.4801    -0.0584 H       
  34 H34           -1.0637     3.0866    -0.4902 H       
  35 H35           -2.0363     1.5958    -0.4928 H       
  36 H36           -1.8422     1.4649     1.9758 H       
  37 H37           -0.8696     2.9557     1.9784 H       
  38 H38           -2.7915     4.1539     0.8910 H       
  39 H39           -5.0017     3.0298     0.8764 H       
  40 H40           -3.8387     2.1659    -0.1577 H       
  41 H41           -4.2415     1.5277     1.4543 H       
  42 H42           -2.4799     4.2034     3.3504 H       
  43 H43           -4.2082     4.2196     2.9251 H       
  44 H44           -3.4480     2.7175     3.5030 H       
  45 H45            1.7816    -1.1863     6.8780 H       
  46 H46            0.7350    -2.2932     5.9514 H       
  47 H47            2.8316    -3.4400     6.6515 H       
  48 H48            3.7905    -2.1959     5.8080 H       
  49 H49            1.2238     0.3273     2.5672 H       
  50 H50            2.9521    -4.2708     2.1255 H       
  51 H51            3.3299    -2.9091    -0.5165 H       
@<TRIPOS>BOND
   1    1    2 am
   2    1    9 1
   3    1   14 1
   4    2    3 1
   5    2   13 2
   6    3    4 1
   7    3   26 1
   8    3   30 1
   9    4    5 ar
  10    4    9 ar
  11    5    6 ar
  12    5   10 1
  13    6    7 ar
  14    6   12 1
  15    7    8 ar
  16    7   31 1
  17    8    9 ar
  18    8   32 1
  19   10   11 1
  20   11   12 2
  21   11   33 1
  22   14   15 1
  23   14   34 1
  24   14   35 1
  25   15   16 1
  26   15   36 1
  27   15   37 1
  28   16   17 1
  29   16   18 1
  30   16   38 1
  31   17   39 1
  32   17   40 1
  33   17   41 1
  34   18   42 1
  35   18   43 1
  36   18   44 1
  37   19   20 1
  38   19   24 1
  39   20   21 ar
  40   20   28 ar
  41   21   22 1
  42   21   25 ar
  43   22   23 1
  44   23   24 1
  45   23   45 1
  46   23   46 1
  47   24   47 1
  48   24   48 1
  49   25   26 ar
  50   25   49 1
  51   26   27 ar
  52   27   28 ar
  53   27   29 1
  54   28   50 1
  55   29   51 1

#	End of record

