#	Name: ASD06020131
#	Creating user name:	WinNT
#	Creation time:	15. 06. 2019 21:04

#	Modifying user name:	WinNT
#	Modification time:	15. 06. 2019 21:04

#	Program:	/corina/corina34_cracker 3.40 0067  02.08.2006

@<TRIPOS>MOLECULE
ASD06020131
  37   40    0    0    0
SMALL
NO_CHARGES


@<TRIPOS>ATOM
   1 C1             0.0070    -0.0032     0.0572 C.1     
   2 C2            -0.0132     1.4287     0.0548 C.ar    
   3 C3             1.1855     2.1414     0.0335 C.ar    
   4 C4             1.1644     3.5326     0.0308 C.ar    
   5 C5             2.3915     4.2704     0.0085 C.1     
   6 C6            -0.0702     4.2128     0.0496 C.ar    
   7 C7            -1.2625     3.4877     0.0708 C.ar    
   8 C8            -1.2345     2.1091     0.0681 C.ar    
   9 N9             0.0230    -1.1390     0.0591 N.1     
  10 N10            3.3650     4.8556    -0.0092 N.1     
  11 Cl11          -2.7841     4.3231     0.0946 Cl      
  12 C12           -0.9478     9.4888     0.0550 C.ar    
  13 C13           -0.5975     8.1338     0.0515 C.ar    
  14 C14            0.7548     7.7706     0.0303 C.ar    
  15 C15            1.7052     8.8238     0.0129 C.ar    
  16 C16            1.2767    10.1133     0.0174 C.ar    
  17 N17           -0.0109    10.4205     0.0384 N.ar    
  18 S18           -1.5655     6.6640     0.0693 S.3     
  19 C19           -0.1018     5.6887     0.0473 C.2     
  20 N20            0.9431     6.4515     0.0293 N.2     
  21 N21           -2.2900     9.8568     0.0701 N.pl3   
  22 C22           -2.0336    13.3950     0.4984 C.ar    
  23 N23           -1.7087    12.1230     0.3881 N.ar    
  24 C24           -2.6415    11.1944     0.1856 C.ar    
  25 C25           -3.9738    11.5849     0.0912 C.ar    
  26 C26           -4.2741    12.9382     0.2133 C.ar    
  27 N27           -3.2828    13.8046     0.4147 N.ar    
  28 N28           -5.5859    13.3781     0.1261 N.pl3   
  29 H29            2.1282     1.6145     0.0195 H       
  30 H30           -2.1599     1.5525     0.0800 H       
  31 H31            2.7621     8.6022    -0.0034 H       
  32 H32            2.0065    10.9093     0.0044 H       
  33 H33           -2.9798     9.1784    -0.0000 H       
  34 H34           -1.2534    14.1227     0.6668 H       
  35 H35           -4.7543    10.8567    -0.0730 H       
  36 H36           -6.3023    12.7410    -0.0211 H       
  37 H37           -5.7872    14.3231     0.2122 H       
@<TRIPOS>BOND
   1    1    2 1
   2    1    9 3
   3    2    3 ar
   4    2    8 ar
   5    3    4 ar
   6    3   29 1
   7    4    5 1
   8    4    6 ar
   9    5   10 3
  10    6    7 ar
  11    6   19 1
  12    7    8 ar
  13    7   11 1
  14    8   30 1
  15   12   13 ar
  16   12   17 ar
  17   12   21 1
  18   13   14 ar
  19   13   18 1
  20   14   15 ar
  21   14   20 1
  22   15   16 ar
  23   15   31 1
  24   16   17 ar
  25   16   32 1
  26   18   19 1
  27   19   20 2
  28   21   24 1
  29   21   33 1
  30   22   23 ar
  31   22   27 ar
  32   22   34 1
  33   23   24 ar
  34   24   25 ar
  35   25   26 ar
  36   25   35 1
  37   26   27 ar
  38   26   28 1
  39   28   36 1
  40   28   37 1

#	End of record

