#	Name: ASD07930777
#	Creating user name:	WinNT
#	Creation time:	15. 06. 2019 21:13

#	Modifying user name:	WinNT
#	Modification time:	15. 06. 2019 21:13

#	Program:	/corina/corina34_cracker 3.40 0067  02.08.2006

@<TRIPOS>MOLECULE
ASD07930777
  48   50    0    0    0
SMALL
NO_CHARGES


@<TRIPOS>ATOM
   1 C1             1.8502    -1.4522     2.8751 C.3     
   2 N2            -0.7581    -0.2146     2.1160 N.2     
   3 N3            -1.1740    -2.2810     1.1068 N.pl3   
   4 C4            -0.9216    -2.8185    -0.2342 C.3     
   5 C5             0.4610    -3.4846    -0.2605 C.3     
   6 S6             1.6972    -2.2555     0.2644 S.o2    
   7 N7             1.0395    -1.6512     1.6711 N.am    
   8 C8            -0.3140    -1.3464     1.6461 C.2     
   9 C9            -0.9600    -1.6806    -1.2563 C.3     
  10 O10            2.8986    -2.8927     0.6763 O.2     
  11 O11            1.7166    -1.1479    -0.6257 O.2     
  12 C12           -1.9779    -3.8379    -0.5748 C.ar    
  13 C13           -2.1172    -4.9760     0.2019 C.ar    
  14 C14           -2.8100    -3.6339    -1.6579 C.ar    
  15 C15           -3.7832    -4.5736    -1.9714 C.ar    
  16 C16           -3.9175    -5.7165    -1.1949 C.ar    
  17 C17           -3.0869    -5.9141    -0.1089 C.ar    
  18 F18           -1.3056    -5.1713     1.2641 F       
  19 N19           -4.6284    -4.3683    -3.0692 N.am    
  20 C20           -5.0484    -5.4186    -3.8020 C.2     
  21 N21           -5.9443    -5.2345    -4.7918 N.am    
  22 O22           -4.6190    -6.5323    -3.5700 O.2     
  23 C23           -6.4853    -6.2867    -5.6646 C.3     
  24 C24           -7.4508    -5.6066    -6.6580 C.3     
  25 C25           -6.9690    -4.1317    -6.6563 C.3     
  26 C26           -6.5490    -3.9456    -5.1746 C.3     
  27 H27            2.2725    -0.4473     2.8667 H       
  28 H28            1.2245    -1.5760     3.7590 H       
  29 H29            2.6567    -2.1851     2.8953 H       
  30 H30           -0.1391     0.4311     2.4913 H       
  31 H31           -1.9465    -2.5790     1.6122 H       
  32 H32            0.4731    -4.3331     0.4236 H       
  33 H33            0.6864    -3.8238    -1.2715 H       
  34 H34           -0.1943    -0.9450    -1.0100 H       
  35 H35           -0.7723    -2.0807    -2.2527 H       
  36 H36           -1.9407    -1.2054    -1.2344 H       
  37 H37           -2.7042    -2.7440    -2.2606 H       
  38 H38           -4.6737    -6.4485    -1.4370 H       
  39 H39           -3.1910    -6.8031     0.4954 H       
  40 H40           -4.9115    -3.4703    -3.3021 H       
  41 H41           -5.6740    -6.7706    -6.2085 H       
  42 H42           -7.0248    -7.0222    -5.0679 H       
  43 H43           -7.3523    -6.0433    -7.6518 H       
  44 H44           -8.4796    -5.6766    -6.3050 H       
  45 H45           -6.1198    -3.9973    -7.3264 H       
  46 H46           -7.7822    -3.4547    -6.9181 H       
  47 H47           -7.4214    -3.7316    -4.5571 H       
  48 H48           -5.8149    -3.1448    -5.0860 H       
@<TRIPOS>BOND
   1    1    7 1
   2    1   27 1
   3    1   28 1
   4    1   29 1
   5    2    8 2
   6    2   30 1
   7    3    4 1
   8    3    8 1
   9    3   31 1
  10    4    5 1
  11    4    9 1
  12    4   12 1
  13    5    6 1
  14    5   32 1
  15    5   33 1
  16    6    7 am
  17    6   10 2
  18    6   11 2
  19    7    8 1
  20    9   34 1
  21    9   35 1
  22    9   36 1
  23   12   14 ar
  24   12   13 ar
  25   13   18 1
  26   13   17 ar
  27   14   15 ar
  28   14   37 1
  29   15   16 ar
  30   15   19 1
  31   16   17 ar
  32   16   38 1
  33   17   39 1
  34   19   20 am
  35   19   40 1
  36   20   21 am
  37   20   22 2
  38   21   23 1
  39   21   26 1
  40   23   24 1
  41   23   41 1
  42   23   42 1
  43   24   25 1
  44   24   43 1
  45   24   44 1
  46   25   26 1
  47   25   45 1
  48   25   46 1
  49   26   47 1
  50   26   48 1

#	End of record

