#	Name: ASD00311453
#	Creating user name:	WinNT
#	Creation time:	15. 06. 2019 18:34

#	Modifying user name:	WinNT
#	Modification time:	15. 06. 2019 18:34

#	Program:	/corina/corina34_cracker 3.40 0067  02.08.2006

@<TRIPOS>MOLECULE
ASD00311453
  47   51    0    0    0
SMALL
NO_CHARGES


@<TRIPOS>ATOM
   1 C1            -0.0167     1.3777     0.0096 C.2     
   2 C2             0.0021    -0.0041     0.0020 C.2     
   3 C3             1.2588    -0.6767    -0.0128 C.2     
   4 C4             2.4316     0.0672    -0.0193 C.2     
   5 C5             2.3574     1.4751    -0.0111 C.2     
   6 N6             1.1648     2.0902     0.0022 N.am    
   7 C7            -1.3433    -0.5752     0.0118 C.2     
   8 C8            -2.3228     0.3262     0.0260 C.2     
   9 S9            -1.6792     1.9563     0.0358 S.3     
  10 O10            3.3823     2.1373    -0.0167 O.2     
  11 C11            3.7477    -0.6121    -0.0343 C.ar    
  12 C12            4.5941    -0.4747    -1.1343 C.ar    
  13 C13            5.8189    -1.1100    -1.1423 C.ar    
  14 C14            6.2078    -1.8824    -0.0624 C.ar    
  15 C15            5.3726    -2.0225     1.0316 C.ar    
  16 C16            4.1480    -1.3871     1.0540 C.ar    
  17 C17           -2.0687    -4.7663    -0.0044 C.ar    
  18 C18           -2.7058    -3.9521     0.9317 C.ar    
  19 C19           -2.4711    -2.5951     0.9375 C.ar    
  20 C20           -1.5956    -2.0347     0.0064 C.ar    
  21 C21           -0.9583    -2.8497    -0.9302 C.ar    
  22 C22           -1.1936    -4.2066    -0.9352 C.ar    
  23 C23           -2.3171    -6.2283    -0.0063 C.ar    
  24 C24           -1.6818    -7.0438    -0.9404 C.ar    
  25 C25           -1.9176    -8.4084    -0.9366 C.ar    
  26 C26           -2.7854    -8.9606    -0.0040 C.ar    
  27 C27           -3.4159    -8.1522     0.9230 C.ar    
  28 C28           -3.1824    -6.7916     0.9303 C.ar    
  29 O29           -1.2998    -9.2072    -1.8461 O.3     
  30 O30            1.3087    -2.0292    -0.0201 O.3     
  31 H31            1.1326     3.0597     0.0073 H       
  32 H32           -3.3754     0.0847     0.0347 H       
  33 H33            4.2913     0.1275    -1.9782 H       
  34 H34            6.4752    -1.0043    -1.9935 H       
  35 H35            7.1672    -2.3783    -0.0736 H       
  36 H36            5.6816    -2.6271     1.8715 H       
  37 H37            3.4989    -1.4933     1.9107 H       
  38 H38           -3.3836    -4.3858     1.6521 H       
  39 H39           -2.9648    -1.9646     1.6622 H       
  40 H40           -0.2810    -2.4164    -1.6512 H       
  41 H41           -0.7005    -4.8374    -1.6599 H       
  42 H42           -1.0075    -6.6128    -1.6657 H       
  43 H43           -2.9685   -10.0250    -0.0031 H       
  44 H44           -4.0903    -8.5867     1.6461 H       
  45 H45           -3.6734    -6.1631     1.6585 H       
  46 H46           -0.4467    -9.5534    -1.5504 H       
  47 H47            2.2059    -2.3896    -0.0301 H       
@<TRIPOS>BOND
   1    1    2 2
   2    1    6 1
   3    1    9 1
   4    2    3 1
   5    2    7 1
   6    3    4 2
   7    3   30 1
   8    4    5 1
   9    4   11 1
  10    5    6 am
  11    5   10 2
  12    6   31 1
  13    7    8 2
  14    7   20 1
  15    8    9 1
  16    8   32 1
  17   11   12 ar
  18   11   16 ar
  19   12   13 ar
  20   12   33 1
  21   13   14 ar
  22   13   34 1
  23   14   15 ar
  24   14   35 1
  25   15   16 ar
  26   15   36 1
  27   16   37 1
  28   17   18 ar
  29   17   22 ar
  30   17   23 1
  31   18   19 ar
  32   18   38 1
  33   19   20 ar
  34   19   39 1
  35   20   21 ar
  36   21   22 ar
  37   21   40 1
  38   22   41 1
  39   23   24 ar
  40   23   28 ar
  41   24   25 ar
  42   24   42 1
  43   25   26 ar
  44   25   29 1
  45   26   27 ar
  46   26   43 1
  47   27   28 ar
  48   27   44 1
  49   28   45 1
  50   29   46 1
  51   30   47 1

#	End of record

