#	Name: ASD03090240
#	Creating user name:	WinNT
#	Creation time:	15. 06. 2019 20:28

#	Modifying user name:	WinNT
#	Modification time:	15. 06. 2019 20:28

#	Program:	/corina/corina34_cracker 3.40 0067  02.08.2006

@<TRIPOS>MOLECULE
ASD03090240
  48   51    0    0    0
SMALL
NO_CHARGES


@<TRIPOS>ATOM
   1 C1            -0.0097     0.7966     1.8730 C.ar    
   2 N2            -1.1647     1.0950     2.4498 N.ar    
   3 C3            -2.2466     0.3702     2.2517 C.ar    
   4 C4            -2.2108    -0.7473     1.4190 C.ar    
   5 C5            -1.0052    -1.0914     0.7930 C.ar    
   6 C6             0.1028    -0.3015     1.0240 C.ar    
   7 C7            -3.4276    -1.5584     1.1998 C.2     
   8 N8            -6.8983    -2.1171     1.2566 N.pl3   
   9 C9            -7.5067    -1.0107     1.8584 C.ar    
  10 C10           -6.8338    -0.2959     2.8407 C.ar    
  11 C11           -7.4365     0.7967     3.4333 C.ar    
  12 C12           -8.7104     1.1790     3.0491 C.ar    
  13 C13           -9.3835     0.4673     2.0700 C.ar    
  14 C14           -8.7825    -0.6218     1.4704 C.ar    
  15 N15           -4.6668    -1.1798     1.4444 N.2     
  16 C16           -5.5088    -2.1656     1.1279 C.2     
  17 N17           -4.8207    -3.1884     0.6766 N.2     
  18 N18           -3.4668    -2.8173     0.7077 N.pl3   
  19 C19           -2.3227    -3.6353     0.2977 C.3     
  20 C20           -2.0879    -3.4671    -1.2048 C.3     
  21 O21           -0.9720    -4.2650    -1.6048 O.3     
  22 F22           -9.2981     2.2476     3.6304 F       
  23 N23            1.1017     1.5925     2.1137 N.pl3   
  24 C24            2.4068     1.2129     1.5672 C.3     
  25 C25            3.4723     2.3055     1.4589 C.3     
  26 C26            3.6009     1.2145     2.5238 C.3     
  27 C27          -10.7703     0.8857     1.6542 C.3     
  28 F28          -11.2393     0.0215     0.6590 F       
  29 F29          -11.6252     0.8308     2.7603 F       
  30 F30          -10.7337     2.1930     1.1574 F       
  31 H31           -3.1704     0.6442     2.7394 H       
  32 H32           -0.9455    -1.9513     0.1423 H       
  33 H33            1.0482    -0.5369     0.5578 H       
  34 H34           -7.4416    -2.8506     0.9286 H       
  35 H35           -5.8403    -0.5942     3.1413 H       
  36 H36           -6.9136     1.3529     4.1973 H       
  37 H37           -9.3076    -1.1763     0.7067 H       
  38 H38           -1.4341    -3.3162     0.8422 H       
  39 H39           -2.5274    -4.6829     0.5184 H       
  40 H40           -2.9766    -3.7862    -1.7494 H       
  41 H41           -1.8832    -2.4195    -1.4255 H       
  42 H42           -0.7649    -4.2072    -2.5476 H       
  43 H43            1.0142     2.4002     2.6438 H       
  44 H44            2.3866     0.4507     0.7882 H       
  45 H45            4.1534     2.2619     0.6090 H       
  46 H46            3.2022     3.3069     1.7943 H       
  47 H47            3.4153     1.4980     3.5598 H       
  48 H48            4.3664     0.4531     2.3745 H       
@<TRIPOS>BOND
   1    1    2 ar
   2    1   23 1
   3    1    6 ar
   4    2    3 ar
   5    3    4 ar
   6    3   31 1
   7    4    5 ar
   8    4    7 1
   9    5    6 ar
  10    5   32 1
  11    6   33 1
  12    7   15 2
  13    7   18 1
  14    8    9 1
  15    8   16 1
  16    8   34 1
  17    9   10 ar
  18    9   14 ar
  19   10   11 ar
  20   10   35 1
  21   11   12 ar
  22   11   36 1
  23   12   13 ar
  24   12   22 1
  25   13   14 ar
  26   13   27 1
  27   14   37 1
  28   15   16 1
  29   16   17 2
  30   17   18 1
  31   18   19 1
  32   19   20 1
  33   19   38 1
  34   19   39 1
  35   20   21 1
  36   20   40 1
  37   20   41 1
  38   21   42 1
  39   23   24 1
  40   23   43 1
  41   24   25 1
  42   24   26 1
  43   24   44 1
  44   25   26 1
  45   25   45 1
  46   25   46 1
  47   26   47 1
  48   26   48 1
  49   27   28 1
  50   27   29 1
  51   27   30 1

#	End of record

