#	Name: ASD01911476
#	Creating user name:	WinNT
#	Creation time:	15. 06. 2019 19:57

#	Modifying user name:	WinNT
#	Modification time:	15. 06. 2019 19:57

#	Program:	/corina/corina34_cracker 3.40 0067  02.08.2006

@<TRIPOS>MOLECULE
ASD01911476
  46   47    0    0    0
SMALL
NO_CHARGES


@<TRIPOS>ATOM
   1 C1            -0.7979     0.1655     0.9916 C.2     
   2 N2             0.0402     0.1011    -0.0619 N.am    
   3 O3            -0.5503    -0.4590     2.0040 O.2     
   4 O4            -1.9067     0.9262     0.9241 O.3     
   5 C5             1.3053    -0.6287     0.0521 C.3     
   6 C6             1.0435    -2.1214     0.3402 C.3     
   7 C7             1.0694    -2.8425    -1.0189 C.3     
   8 C8             1.3461    -1.7629    -2.0854 C.3     
   9 C9             2.0549    -0.6293    -1.3033 C.3     
  10 C10            2.1781    -0.0166     1.1496 C.3     
  11 N11            2.3253     1.4213     0.9114 N.pl3   
  12 C12            3.1487     2.1816     1.7342 C.ar    
  13 C13            3.8300     1.5703     2.7820 C.ar    
  14 C14            4.6457     2.3382     3.5928 C.ar    
  15 C15            4.7534     3.6977     3.3275 C.ar    
  16 C16            4.0485     4.2382     2.2705 C.ar    
  17 N17            3.2816     3.4796     1.5101 N.ar    
  18 I18            5.9724     4.9152     4.5195 I       
  19 C19           -2.7635     0.9480     2.0962 C.3     
  20 C20           -1.9741     1.4773     3.2952 C.3     
  21 C21           -3.9641     1.8593     1.8335 C.3     
  22 C22           -3.2551    -0.4697     2.3950 C.3     
  23 H23           -0.1942     0.5380    -0.8956 H       
  24 H24            1.8240    -2.5191     0.9888 H       
  25 H25            0.0678    -2.2454     0.8101 H       
  26 H26            1.8625    -3.5901    -1.0298 H       
  27 H27            0.1063    -3.3165    -1.2085 H       
  28 H28            1.9996    -2.1551    -2.8647 H       
  29 H29            0.4114    -1.4030    -2.5155 H       
  30 H30            1.9325     0.3265    -1.8128 H       
  31 H31            3.1107    -0.8599    -1.1608 H       
  32 H32            1.7082    -0.1780     2.1198 H       
  33 H33            3.1603    -0.4892     1.1386 H       
  34 H34            1.8483     1.8430     0.1796 H       
  35 H35            3.7229     0.5104     2.9600 H       
  36 H36            5.1865     1.8913     4.4139 H       
  37 H37            4.1289     5.2946     2.0608 H       
  38 H38           -1.6238     2.4873     3.0824 H       
  39 H39           -2.6172     1.4937     4.1751 H       
  40 H40           -1.1188     0.8281     3.4824 H       
  41 H41           -4.5264     1.4822     0.9794 H       
  42 H42           -4.6072     1.8757     2.7134 H       
  43 H43           -3.6138     2.8694     1.6207 H       
  44 H44           -2.3998    -1.1190     2.5822 H       
  45 H45           -3.8983    -0.4534     3.2749 H       
  46 H46           -3.8175    -0.8468     1.5409 H       
@<TRIPOS>BOND
   1    1    2 am
   2    1    3 2
   3    1    4 1
   4    2    5 1
   5    2   23 1
   6    4   19 1
   7    5    6 1
   8    5    9 1
   9    5   10 1
  10    6    7 1
  11    6   24 1
  12    6   25 1
  13    7    8 1
  14    7   26 1
  15    7   27 1
  16    8    9 1
  17    8   28 1
  18    8   29 1
  19    9   30 1
  20    9   31 1
  21   10   11 1
  22   10   32 1
  23   10   33 1
  24   11   12 1
  25   11   34 1
  26   12   13 ar
  27   12   17 ar
  28   13   14 ar
  29   13   35 1
  30   14   15 ar
  31   14   36 1
  32   15   16 ar
  33   15   18 1
  34   16   17 ar
  35   16   37 1
  36   19   20 1
  37   19   22 1
  38   19   21 1
  39   20   38 1
  40   20   39 1
  41   20   40 1
  42   21   41 1
  43   21   42 1
  44   21   43 1
  45   22   44 1
  46   22   45 1
  47   22   46 1

#	End of record

