#	Name: ASD00461009
#	Creating user name:	WinNT
#	Creation time:	15. 06. 2019 18:36

#	Modifying user name:	WinNT
#	Modification time:	15. 06. 2019 18:36

#	Program:	/corina/corina34_cracker 3.40 0067  02.08.2006

@<TRIPOS>MOLECULE
ASD00461009
  41   44    0    0    0
SMALL
NO_CHARGES


@<TRIPOS>ATOM
   1 C1            -0.0184     1.5021     0.0103 C.3     
   2 C2             0.0021    -0.0041     0.0020 C.ar    
   3 C3             1.4039     2.0587    -0.0003 C.3     
   4 C4            -0.7543     1.9957    -1.2086 C.2     
   5 O5            -0.6939     1.9577     1.1842 O.3     
   6 C6            -1.1637    -0.6648    -0.3641 C.ar    
   7 C7             1.1203    -0.7318     0.3410 C.ar    
   8 C8             2.1984     1.3777     1.1203 C.3     
   9 S9            -2.1619     2.9590    -1.1557 S.3     
  10 N10           -0.3988     1.7498    -2.4127 N.2     
  11 C11           -1.2109    -2.0432    -0.3861 C.ar    
  12 C12            1.0702    -2.1199     0.3205 C.ar    
  13 C13            2.4219    -0.0828     0.7331 C.3     
  14 C14           -2.2344     2.9946    -2.9147 C.ar    
  15 C15           -1.1526     2.2564    -3.4070 C.ar    
  16 C16           -2.4805    -2.7500    -0.7855 C.3     
  17 C17           -0.0892    -2.7741    -0.0407 C.ar    
  18 C18            2.2922    -2.9175     0.6964 C.3     
  19 C19           -3.1306     3.5989    -3.7939 C.ar    
  20 C20           -0.9968     2.1408    -4.8032 C.ar    
  21 C21           -2.9526     3.4703    -5.1528 C.ar    
  22 C22           -1.8830     2.7373    -5.6478 C.ar    
  23 H23           -0.7467     2.9203     1.2590 H       
  24 H24            1.8727     1.8498    -0.9619 H       
  25 H25            1.3781     3.1350     0.1699 H       
  26 H26           -2.0405    -0.0946    -0.6334 H       
  27 H27            3.1599     1.8760     1.2437 H       
  28 H28            1.6357     1.4285     2.0524 H       
  29 H29            2.8494    -0.6181     1.5809 H       
  30 H30            3.1145    -0.1299    -0.1072 H       
  31 H31           -2.4807    -2.9152    -1.8629 H       
  32 H32           -2.5398    -3.7090    -0.2709 H       
  33 H33           -3.3391    -2.1370    -0.5118 H       
  34 H34           -0.1205    -3.8536    -0.0541 H       
  35 H35            2.2826    -3.1133     1.7687 H       
  36 H36            2.2899    -3.8631     0.1543 H       
  37 H37            3.1882    -2.3529     0.4382 H       
  38 H38           -3.9645     4.1674    -3.4096 H       
  39 H39           -0.1690     1.5759    -5.2058 H       
  40 H40           -3.6472     3.9386    -5.8346 H       
  41 H41           -1.7507     2.6408    -6.7153 H       
@<TRIPOS>BOND
   1    1    2 1
   2    1    3 1
   3    1    4 1
   4    1    5 1
   5    2    6 ar
   6    2    7 ar
   7    3    8 1
   8    3   24 1
   9    3   25 1
  10    4    9 1
  11    4   10 2
  12    5   23 1
  13    6   11 ar
  14    6   26 1
  15    7   12 ar
  16    7   13 1
  17    8   13 1
  18    8   27 1
  19    8   28 1
  20    9   14 1
  21   10   15 1
  22   11   17 ar
  23   11   16 1
  24   12   17 ar
  25   12   18 1
  26   13   29 1
  27   13   30 1
  28   14   15 ar
  29   14   19 ar
  30   15   20 ar
  31   16   31 1
  32   16   32 1
  33   16   33 1
  34   17   34 1
  35   18   35 1
  36   18   36 1
  37   18   37 1
  38   19   21 ar
  39   19   38 1
  40   20   22 ar
  41   20   39 1
  42   21   22 ar
  43   21   40 1
  44   22   41 1

#	End of record

