#	Name: ASD01882403
#	Creating user name:	WinNT
#	Creation time:	15. 06. 2019 19:44

#	Modifying user name:	WinNT
#	Modification time:	15. 06. 2019 19:44

#	Program:	/corina/corina34_cracker 3.40 0067  02.08.2006

@<TRIPOS>MOLECULE
ASD01882403
  55   59    0    0    0
SMALL
NO_CHARGES


@<TRIPOS>ATOM
   1 C1             1.2950     1.4651     1.0396 C.2     
   2 C2             1.2252     0.0621     1.0783 C.2     
   3 C3             1.5504    -0.6528    -0.0424 C.2     
   4 C4             1.9488     0.0292    -1.2128 C.2     
   5 C5             2.0087     1.3751    -1.2276 C.2     
   6 N6             1.6865     2.0971    -0.1156 N.pl3   
   7 N7             1.2641     3.5665     1.4019 N.2     
   8 N8             1.0466     2.4135     1.9299 N.2     
   9 C9             1.6536     3.4323     0.1616 C.2     
  10 N10            1.4894    -2.0430    -0.0283 N.pl3   
  11 C11            2.7077    -2.8475    -0.1936 C.3     
  12 C12            2.4900    -3.8426    -1.3378 C.3     
  13 C13            1.2277    -4.6628    -1.0620 C.3     
  14 C14            0.0159    -3.7305    -0.9956 C.3     
  15 C15            0.2063    -2.7342     0.1581 C.3     
  16 C16            1.0262    -5.6815    -2.1857 C.3     
  17 F17            2.1332    -6.5348    -2.2456 F       
  18 F18           -0.1277    -6.4314    -1.9338 F       
  19 F19            0.8887    -5.0096    -3.4051 F       
  20 C20            1.3766    -5.3871     0.2511 C.ar    
  21 C21            1.5721    -4.6709     1.4172 C.ar    
  22 C22            1.7086    -5.3353     2.6217 C.ar    
  23 C23            1.6493    -6.7158     2.6602 C.ar    
  24 C24            1.4529    -7.4319     1.4942 C.ar    
  25 C25            1.3120    -6.7674     0.2903 C.ar    
  26 C26            0.7980    -0.6462     2.3380 C.3     
  27 C27            2.0008     4.5487    -0.7892 C.3     
  28 C28            0.7443     4.9831    -1.5464 C.3     
  29 C29            0.8635     6.1896    -2.4796 C.3     
  30 C30            0.7283     4.7817    -3.0630 C.3     
  31 H31            2.2068    -0.5304    -2.0998 H       
  32 H32            2.3149     1.8871    -2.1278 H       
  33 H33            3.5472    -2.1945    -0.4320 H       
  34 H34            2.9148    -3.3906     0.7285 H       
  35 H35            2.3730    -3.2990    -2.2754 H       
  36 H36            3.3492    -4.5096    -1.4082 H       
  37 H37           -0.0778    -3.1880    -1.9363 H       
  38 H38           -0.8859    -4.3178    -0.8224 H       
  39 H39            0.2136    -3.2682     1.1083 H       
  40 H40           -0.6051    -2.0063     0.1519 H       
  41 H41            1.6184    -3.5923     1.3871 H       
  42 H42            1.8621    -4.7757     3.5326 H       
  43 H43            1.7567    -7.2349     3.6011 H       
  44 H44            1.4069    -8.5105     1.5243 H       
  45 H45            1.1549    -7.3267    -0.6201 H       
  46 H46            0.6737     0.0816     3.1398 H       
  47 H47           -0.1476    -1.1595     2.1634 H       
  48 H48            1.5589    -1.3732     2.6219 H       
  49 H49            2.3970     5.3945    -0.2273 H       
  50 H50            2.7510     4.2010    -1.4994 H       
  51 H51           -0.1961     4.8519    -1.0110 H       
  52 H52            0.0015     6.8520    -2.5586 H       
  53 H53            1.8372     6.6739    -2.5542 H       
  54 H54            1.6130     4.3397    -3.5213 H       
  55 H55           -0.2227     4.5178    -3.5256 H       
@<TRIPOS>BOND
   1    1    2 1
   2    1    6 1
   3    1    8 2
   4    2    3 2
   5    2   26 1
   6    3    4 1
   7    3   10 1
   8    4    5 2
   9    4   31 1
  10    5    6 1
  11    5   32 1
  12    6    9 1
  13    7    8 1
  14    7    9 2
  15    9   27 1
  16   10   11 1
  17   10   15 1
  18   11   12 1
  19   11   33 1
  20   11   34 1
  21   12   13 1
  22   12   35 1
  23   12   36 1
  24   13   14 1
  25   13   16 1
  26   13   20 1
  27   14   15 1
  28   14   37 1
  29   14   38 1
  30   15   39 1
  31   15   40 1
  32   16   17 1
  33   16   18 1
  34   16   19 1
  35   20   21 ar
  36   20   25 ar
  37   21   22 ar
  38   21   41 1
  39   22   23 ar
  40   22   42 1
  41   23   24 ar
  42   23   43 1
  43   24   25 ar
  44   24   44 1
  45   25   45 1
  46   26   46 1
  47   26   47 1
  48   26   48 1
  49   27   28 1
  50   27   49 1
  51   27   50 1
  52   28   29 1
  53   28   30 1
  54   28   51 1
  55   29   30 1
  56   29   52 1
  57   29   53 1
  58   30   54 1
  59   30   55 1

#	End of record

