#	Name: ASD01916195
#	Creating user name:	WinNT
#	Creation time:	15. 06. 2019 20:06

#	Modifying user name:	WinNT
#	Modification time:	15. 06. 2019 20:06

#	Program:	/corina/corina34_cracker 3.40 0067  02.08.2006

@<TRIPOS>MOLECULE
ASD01916195
  43   45    0    0    0
SMALL
NO_CHARGES


@<TRIPOS>ATOM
   1 C1            -0.4104     1.7403     0.1047 C.ar    
   2 C2            -0.5431     0.3900     0.3734 C.ar    
   3 N3             0.5001    -0.3399     0.7071 N.ar    
   4 C4             1.7179     0.1816     0.8000 C.ar    
   5 C5             1.9313     1.5325     0.5449 C.ar    
   6 C6             0.8475     2.3313     0.1895 C.ar    
   7 C7            -1.9021    -0.2549     0.2832 C.3     
   8 O8             1.0132     3.6537    -0.0681 O.3     
   9 C9             2.2648     4.1724     0.0379 C.ar    
  10 C10            3.1955     3.9762    -0.9727 C.ar    
  11 N11            4.4109     4.4768    -0.8756 N.ar    
  12 C12            4.7917     5.1785     0.1739 C.ar    
  13 C13            3.9199     5.4174     1.2227 C.ar    
  14 C14            2.6290     4.9121     1.1579 C.ar    
  15 C15            2.8596    -0.6828     1.1794 C.2     
  16 N16            2.6597    -1.9922     1.4284 N.am    
  17 O17            3.9762    -0.2114     1.2661 O.2     
  18 C18            3.7461    -2.8268     1.6818 C.ar    
  19 C19            3.5453    -4.1952     1.8224 C.ar    
  20 C20            4.6332    -5.0128     2.0740 C.ar    
  21 C21            5.8891    -4.4309     2.1766 C.ar    
  22 C22            6.0154    -3.0638     2.0258 C.ar    
  23 N23            4.9610    -2.3101     1.7812 N.ar    
  24 C24           -1.8387    -1.4465    -0.6743 C.3     
  25 F25            4.3194     6.1376     2.2936 F       
  26 C26            7.3763    -2.4259     2.1361 C.3     
  27 H27           -1.2725     2.3289    -0.1721 H       
  28 H28            2.9221     1.9552     0.6216 H       
  29 H29           -2.2074    -0.5987     1.2714 H       
  30 H30           -2.6250     0.4715    -0.0881 H       
  31 H31            2.9210     3.4066    -1.8483 H       
  32 H32            5.7967     5.5716     0.2161 H       
  33 H33            1.9258     5.0858     1.9590 H       
  34 H34            1.7596    -2.3536     1.4311 H       
  35 H35            2.5537    -4.6145     1.7369 H       
  36 H36            4.5077    -6.0794     2.1883 H       
  37 H37            6.7586    -5.0408     2.3727 H       
  38 H38           -1.1158    -2.1729    -0.3030 H       
  39 H39           -2.8217    -1.9129    -0.7396 H       
  40 H40           -1.5334    -1.1026    -1.6626 H       
  41 H41            7.8446    -2.3965     1.1522 H       
  42 H42            7.2718    -1.4108     2.5192 H       
  43 H43            7.9968    -3.0090     2.8165 H       
@<TRIPOS>BOND
   1    1    2 ar
   2    1    6 ar
   3    1   27 1
   4    2    3 ar
   5    2    7 1
   6    3    4 ar
   7    4    5 ar
   8    4   15 1
   9    5    6 ar
  10    5   28 1
  11    6    8 1
  12    7   24 1
  13    7   29 1
  14    7   30 1
  15    8    9 1
  16    9   10 ar
  17    9   14 ar
  18   10   11 ar
  19   10   31 1
  20   11   12 ar
  21   12   13 ar
  22   12   32 1
  23   13   25 1
  24   13   14 ar
  25   14   33 1
  26   15   16 am
  27   15   17 2
  28   16   18 1
  29   16   34 1
  30   18   19 ar
  31   18   23 ar
  32   19   20 ar
  33   19   35 1
  34   20   21 ar
  35   20   36 1
  36   21   22 ar
  37   21   37 1
  38   22   23 ar
  39   22   26 1
  40   24   38 1
  41   24   39 1
  42   24   40 1
  43   26   41 1
  44   26   42 1
  45   26   43 1

#	End of record

