#	Name: ASD04012010
#	Creating user name:	WinNT
#	Creation time:	15. 06. 2019 20:48

#	Modifying user name:	WinNT
#	Modification time:	15. 06. 2019 20:48

#	Program:	/corina/corina34_cracker 3.40 0067  02.08.2006

@<TRIPOS>MOLECULE
ASD04012010
  42   45    0    0    0
SMALL
NO_CHARGES


@<TRIPOS>ATOM
   1 N1            -0.0153     1.3854     0.1858 N.pl3   
   2 C2             1.2771     1.8273     0.2084 C.2     
   3 N3             1.5535     3.1268     0.3217 N.2     
   4 C4             0.5883     4.0207     0.4150 C.2     
   5 C5            -0.7466     3.6156     0.3967 C.2     
   6 C6            -1.0403     2.2858     0.2754 C.2     
   7 N7             0.0026    -0.0077     0.0602 N.2     
   8 C8             1.2385    -0.4258     0.0061 C.2     
   9 C9             2.0964     0.6873     0.0949 C.2     
  10 O10           -2.3255     1.8663     0.2546 O.3     
  11 C11           -1.8530     4.6333     0.5036 C.3     
  12 C12           -2.1184     4.9361     1.9557 C.ar    
  13 Cl13           0.9798     5.7056     0.5615 Cl      
  14 C14           -1.4320     5.9575     2.5855 C.ar    
  15 C15           -1.6755     6.2352     3.9176 C.ar    
  16 C16           -2.6057     5.4920     4.6198 C.ar    
  17 C17           -3.2928     4.4712     3.9898 C.ar    
  18 C18           -3.0525     4.1963     2.6566 C.ar    
  19 C19            5.6077    -0.5244    -0.1592 C.ar    
  20 C20            6.3748     0.4091     0.5255 C.ar    
  21 C21            7.7506     0.3913     0.4061 C.ar    
  22 C22            8.3644    -0.5548    -0.3942 C.ar    
  23 C23            7.6035    -1.4854    -1.0777 C.ar    
  24 C24            6.2276    -1.4769    -0.9576 C.ar    
  25 C25            3.5605     0.6640     0.0734 C.2     
  26 O26            4.1871     1.7043     0.1582 O.2     
  27 N27            4.2142    -0.5091    -0.0404 N.am    
  28 H28            1.5510    -1.4551    -0.0904 H       
  29 H29           -2.4253     0.9086     0.1656 H       
  30 H30           -1.5562     5.5478    -0.0100 H       
  31 H31           -2.7579     4.2358     0.0440 H       
  32 H32           -0.7052     6.5382     2.0369 H       
  33 H33           -1.1386     7.0327     4.4098 H       
  34 H34           -2.7954     5.7085     5.6607 H       
  35 H35           -4.0193     3.8903     4.5385 H       
  36 H36           -3.5893     3.3988     2.1643 H       
  37 H37            5.8960     1.1485     1.1505 H       
  38 H38            8.3477     1.1172     0.9380 H       
  39 H39            9.4405    -0.5666    -0.4860 H       
  40 H40            8.0859    -2.2227    -1.7022 H       
  41 H41            5.6338    -2.2039    -1.4917 H       
  42 H42            3.7183    -1.3427    -0.0399 H       
@<TRIPOS>BOND
   1    1    7 1
   2    1    2 1
   3    1    6 1
   4    2    3 1
   5    2    9 2
   6    3    4 2
   7    4    5 1
   8    4   13 1
   9    5    6 2
  10    5   11 1
  11    6   10 1
  12    7    8 2
  13    8    9 1
  14    8   28 1
  15    9   25 1
  16   10   29 1
  17   11   12 1
  18   11   30 1
  19   11   31 1
  20   12   14 ar
  21   12   18 ar
  22   14   15 ar
  23   14   32 1
  24   15   16 ar
  25   15   33 1
  26   16   17 ar
  27   16   34 1
  28   17   18 ar
  29   17   35 1
  30   18   36 1
  31   19   20 ar
  32   19   27 1
  33   19   24 ar
  34   20   21 ar
  35   20   37 1
  36   21   22 ar
  37   21   38 1
  38   22   23 ar
  39   22   39 1
  40   23   24 ar
  41   23   40 1
  42   24   41 1
  43   25   26 2
  44   25   27 am
  45   27   42 1

#	End of record

