#	Name: ASD02198501
#	Creating user name:	WinNT
#	Creation time:	15. 06. 2019 20:19

#	Modifying user name:	WinNT
#	Modification time:	15. 06. 2019 20:19

#	Program:	/corina/corina34_cracker 3.40 0067  02.08.2006

@<TRIPOS>MOLECULE
ASD02198501
  44   47    0    0    0
SMALL
NO_CHARGES


@<TRIPOS>ATOM
   1 C1            -0.2747     1.6195    -0.2672 C.2     
   2 C2            -0.4169     0.2716    -0.2073 C.2     
   3 N3             0.6612    -0.5340    -0.0754 N.pl3   
   4 N4             1.8632    -0.0951     0.0000 N.2     
   5 C5             2.1422     1.1896    -0.0458 C.2     
   6 C6             1.0355     2.1499    -0.1878 C.2     
   7 C7             0.4542    -1.9162    -0.0180 C.ar    
   8 C8             1.3311    -4.1478     0.0281 C.ar    
   9 C9             0.0447    -4.6504     0.0957 C.ar    
  10 C10           -1.0380    -3.7898     0.1008 C.ar    
  11 C11           -0.8373    -2.4249     0.0442 C.ar    
  12 C12            3.5395     1.6598     0.0441 C.2     
  13 N13            4.1870     2.4585    -0.8562 N.pl3   
  14 N14            5.4908     2.6605    -0.3868 N.2     
  15 C15            5.6353     2.0178     0.7446 C.2     
  16 C16            4.4337     1.3807     1.0543 C.2     
  17 C17            3.6440     2.9809    -2.0369 C.ar    
  18 C18            2.8467     2.1843    -2.8482 C.ar    
  19 O19            1.2392     3.3538    -0.2358 O.2     
  20 C20            3.8972     4.2983    -2.3959 C.ar    
  21 C21            3.3603     4.8104    -3.5608 C.ar    
  22 C22            2.5715     4.0129    -4.3694 C.ar    
  23 C23            2.3128     2.7023    -4.0118 C.ar    
  24 C24            1.5391    -2.7836    -0.0288 C.ar    
  25 C25            2.9957    -5.6022    -1.7338 C.3     
  26 S26            2.7069    -5.2487     0.0219 S.o2    
  27 O27            3.7742    -4.4787     0.5577 O.2     
  28 O28            2.2312    -6.4078     0.6922 O.2     
  29 H29           -1.1325     2.2664    -0.3765 H       
  30 H30           -1.4037    -0.1634    -0.2652 H       
  31 H31           -0.1149    -5.7175     0.1442 H       
  32 H32           -2.0415    -4.1856     0.1537 H       
  33 H33           -1.6831    -1.7534     0.0486 H       
  34 H34            6.5350     1.9887     1.3413 H       
  35 H35            4.2409     0.7731     1.9261 H       
  36 H36            2.6446     1.1606    -2.5696 H       
  37 H37            4.5129     4.9218    -1.7646 H       
  38 H38            3.5566     5.8350    -3.8403 H       
  39 H39            2.1525     4.4158    -5.2796 H       
  40 H40            1.6966     2.0818    -4.6456 H       
  41 H41            2.5441    -2.3917    -0.0819 H       
  42 H42            3.2155    -4.6733    -2.2600 H       
  43 H43            3.8400    -6.2844    -1.8329 H       
  44 H44            2.1053    -6.0612    -2.1633 H       
@<TRIPOS>BOND
   1    1    2 2
   2    1    6 1
   3    1   29 1
   4    2    3 1
   5    2   30 1
   6    3    4 1
   7    3    7 1
   8    4    5 2
   9    5    6 1
  10    5   12 1
  11    6   19 2
  12    7   24 ar
  13    7   11 ar
  14    8    9 ar
  15    8   26 1
  16    8   24 ar
  17    9   10 ar
  18    9   31 1
  19   10   11 ar
  20   10   32 1
  21   11   33 1
  22   12   13 1
  23   12   16 2
  24   13   14 1
  25   13   17 1
  26   14   15 2
  27   15   16 1
  28   15   34 1
  29   16   35 1
  30   17   20 ar
  31   17   18 ar
  32   18   23 ar
  33   18   36 1
  34   20   21 ar
  35   20   37 1
  36   21   22 ar
  37   21   38 1
  38   22   23 ar
  39   22   39 1
  40   23   40 1
  41   24   41 1
  42   25   26 1
  43   25   42 1
  44   25   43 1
  45   25   44 1
  46   26   27 2
  47   26   28 2

#	End of record

