#	Name: ASD01885838
#	Creating user name:	WinNT
#	Creation time:	15. 06. 2019 19:50

#	Modifying user name:	WinNT
#	Modification time:	15. 06. 2019 19:50

#	Program:	/corina/corina34_cracker 3.40 0067  02.08.2006

@<TRIPOS>MOLECULE
ASD01885838
  49   53    0    0    0
SMALL
NO_CHARGES


@<TRIPOS>ATOM
   1 C1            -0.0172     1.4136     0.0098 C.ar    
   2 C2             0.0021    -0.0041     0.0020 C.ar    
   3 C3            -1.2279    -0.7095     0.0099 C.ar    
   4 C4            -2.4020     0.0315     0.0251 C.ar    
   5 C5            -2.3350     1.4287     0.0320 C.ar    
   6 N6            -1.1797     2.0670     0.0189 N.ar    
   7 C7             2.3773     1.4226    -0.0130 C.ar    
   8 C8             2.3912     0.0296    -0.0214 C.ar    
   9 C9             1.2282    -0.6810    -0.0137 C.ar    
  10 C10           -1.2592    -2.1899     0.0017 C.2     
  11 C11           -3.5938     2.2126     0.0416 C.2     
  12 C12            3.6818     2.1772    -0.0224 C.3     
  13 C13            4.1014     2.4372    -1.4463 C.ar    
  14 C14            3.7030     3.5901    -2.1043 C.ar    
  15 N15            4.0909     3.7844    -3.3545 N.ar    
  16 C16            4.8459     2.8985    -3.9726 C.ar    
  17 N17            5.2437     1.7912    -3.3787 N.ar    
  18 C18            4.8998     1.5319    -2.1274 C.ar    
  19 C19            1.2047     2.1128     0.0019 C.ar    
  20 N20           -3.5489     3.5596     0.0369 N.am    
  21 O21           -4.6656     1.6405     0.0537 O.2     
  22 C22            5.2651     3.1582    -5.3966 C.3     
  23 C23            6.7648     3.2454    -5.6869 C.3     
  24 C24            5.9668     2.0230    -6.1448 C.3     
  25 C25           -0.5543    -3.0344    -0.8807 C.2     
  26 N26           -0.8393    -4.2710    -0.5720 N.2     
  27 N27           -1.7287    -4.2676     0.5090 N.pl3   
  28 C28           -1.9722    -2.9883     0.8520 C.2     
  29 C29           -2.2941    -5.4527     1.1588 C.3     
  30 H30           -3.3599    -0.4672     0.0311 H       
  31 H31            3.3357    -0.4940    -0.0346 H       
  32 H32            1.2519    -1.7607    -0.0194 H       
  33 H33            3.5562     3.1264     0.4985 H       
  34 H34            4.4473     1.5857     0.4798 H       
  35 H35            3.0841     4.3199    -1.6036 H       
  36 H36            5.2329     0.6249    -1.6450 H       
  37 H37            1.2113     3.1927     0.0073 H       
  38 H38           -2.6932     4.0163     0.0273 H       
  39 H39           -4.3723     4.0723     0.0432 H       
  40 H40            4.6028     3.8060    -5.9709 H       
  41 H41            7.0891     3.9503    -6.4524 H       
  42 H42            7.4482     3.1149    -4.8478 H       
  43 H43            6.1252     1.0882    -5.6070 H       
  44 H44            5.7661     1.9236    -7.2115 H       
  45 H45            0.1056    -2.7144    -1.6735 H       
  46 H46           -2.6186    -2.6537     1.6499 H       
  47 H47           -1.6411    -5.7669     1.9731 H       
  48 H48           -3.2806    -5.2136     1.5558 H       
  49 H49           -2.3811    -6.2594     0.4310 H       
@<TRIPOS>BOND
   1    1    2 ar
   2    1   19 ar
   3    1    6 ar
   4    2    9 ar
   5    2    3 ar
   6    3   10 1
   7    3    4 ar
   8    4    5 ar
   9    4   30 1
  10    5   11 1
  11    5    6 ar
  12    7   12 1
  13    7    8 ar
  14    7   19 ar
  15    8    9 ar
  16    8   31 1
  17    9   32 1
  18   10   25 1
  19   10   28 2
  20   11   20 am
  21   11   21 2
  22   12   13 1
  23   12   33 1
  24   12   34 1
  25   13   14 ar
  26   13   18 ar
  27   14   15 ar
  28   14   35 1
  29   15   16 ar
  30   16   22 1
  31   16   17 ar
  32   17   18 ar
  33   18   36 1
  34   19   37 1
  35   20   38 1
  36   20   39 1
  37   22   23 1
  38   22   24 1
  39   22   40 1
  40   23   24 1
  41   23   41 1
  42   23   42 1
  43   24   43 1
  44   24   44 1
  45   25   26 2
  46   25   45 1
  47   26   27 1
  48   27   28 1
  49   27   29 1
  50   28   46 1
  51   29   47 1
  52   29   48 1
  53   29   49 1

#	End of record

