#	Name: ASD03320164
#	Creating user name:	WinNT
#	Creation time:	15. 06. 2019 20:36

#	Modifying user name:	WinNT
#	Modification time:	15. 06. 2019 20:36

#	Program:	/corina/corina34_cracker 3.40 0067  02.08.2006

@<TRIPOS>MOLECULE
ASD03320164
  39   41    0    0    0
SMALL
NO_CHARGES


@<TRIPOS>ATOM
   1 C1            -0.0077     1.3441    -0.1945 C.ar    
   2 C2             0.0217    -0.0349     0.0277 C.ar    
   3 C3            -1.1525    -0.7585     0.0446 C.ar    
   4 C4            -2.3658    -0.1238    -0.1588 C.ar    
   5 C5            -2.4071     1.2549    -0.3825 C.ar    
   6 C6            -1.2278     1.9898    -0.3943 C.ar    
   7 C7             1.2505     2.1177    -0.2118 C.2     
   8 O8             1.2236     3.3178    -0.4053 O.2     
   9 N9             2.4283     1.4934    -0.0131 N.am    
  10 C10            3.6274     2.2078    -0.1264 C.ar    
  11 C11           -3.7084     1.9339    -0.6008 C.ar    
  12 C12            3.6885     3.5323     0.2864 C.ar    
  13 C13            4.8712     4.2361     0.1743 C.ar    
  14 C14            5.9981     3.6204    -0.3506 C.ar    
  15 C15            5.9378     2.2973    -0.7632 C.ar    
  16 C16            4.7573     1.5905    -0.6464 C.ar    
  17 O17            7.1623     4.3143    -0.4610 O.3     
  18 C18            8.2828     3.6180    -1.0103 C.3     
  19 F19            7.9761     3.1896    -2.3062 F       
  20 F20            9.3889     4.4737    -1.0515 F       
  21 F21            8.5805     2.5093    -0.2107 F       
  22 C22           -4.0403     3.0771     0.1226 C.ar    
  23 N23           -5.1951     3.6811    -0.0707 N.ar    
  24 C24           -6.0757     3.2358    -0.9457 C.ar    
  25 C25           -5.8203     2.1067    -1.7027 C.ar    
  26 C26           -4.6183     1.4400    -1.5397 C.ar    
  27 F27           -3.5120    -0.8388    -0.1414 F       
  28 H28            0.9655    -0.5353     0.1862 H       
  29 H29           -1.1251    -1.8243     0.2167 H       
  30 H30           -1.2551     3.0556    -0.5668 H       
  31 H31            2.4454     0.5492     0.2084 H       
  32 H32            2.8112     4.0118     0.6948 H       
  33 H33            4.9189     5.2663     0.4951 H       
  34 H34            6.8155     1.8187    -1.1718 H       
  35 H35            4.7106     0.5604    -0.9674 H       
  36 H36           -3.3449     3.4717     0.8486 H       
  37 H37           -7.0109     3.7608    -1.0730 H       
  38 H38           -6.5491     1.7516    -2.4162 H       
  39 H39           -4.3925     0.5561    -2.1178 H       
@<TRIPOS>BOND
   1    1    2 ar
   2    1    7 1
   3    1    6 ar
   4    2    3 ar
   5    2   28 1
   6    3    4 ar
   7    3   29 1
   8    4    5 ar
   9    4   27 1
  10    5    6 ar
  11    5   11 1
  12    6   30 1
  13    7    8 2
  14    7    9 am
  15    9   10 1
  16    9   31 1
  17   10   12 ar
  18   10   16 ar
  19   11   22 ar
  20   11   26 ar
  21   12   13 ar
  22   12   32 1
  23   13   14 ar
  24   13   33 1
  25   14   15 ar
  26   14   17 1
  27   15   16 ar
  28   15   34 1
  29   16   35 1
  30   17   18 1
  31   18   19 1
  32   18   20 1
  33   18   21 1
  34   22   23 ar
  35   22   36 1
  36   23   24 ar
  37   24   25 ar
  38   24   37 1
  39   25   26 ar
  40   25   38 1
  41   26   39 1

#	End of record

