#	Name: ASD00960302
#	Creating user name:	WinNT
#	Creation time:	15. 06. 2019 18:53

#	Modifying user name:	WinNT
#	Modification time:	15. 06. 2019 18:53

#	Program:	/corina/corina34_cracker 3.40 0067  02.08.2006

@<TRIPOS>MOLECULE
ASD00960302
  37   39    0    0    0
SMALL
NO_CHARGES


@<TRIPOS>ATOM
   1 C1            -0.0169     1.3985     0.0097 C.2     
   2 N2             2.0935     0.7106    -0.0208 N.pl3   
   3 C3             1.2856    -0.3972    -0.0097 C.2     
   4 C4             0.0021    -0.0041     0.0020 C.2     
   5 N5             3.4916     0.6030    -0.0576 N.2     
   6 C6             4.0167    -0.5729    -0.2878 C.2     
   7 N7             3.2270    -1.6837    -0.5655 N.pl3   
   8 C8             1.8703    -1.7917     0.0000 C.3     
   9 N9             1.9383    -2.2995     1.3768 N.3     
  10 C10            1.2995     1.8265    -0.0005 C.2     
  11 C11            5.4841    -0.7246    -0.2525 C.2     
  12 O12            6.2655     0.3407     0.0144 O.3     
  13 O13            5.9879    -1.8097    -0.4641 O.2     
  14 C14            1.7585     3.2162     0.0081 C.2     
  15 O15            0.9491     4.1240     0.0264 O.2     
  16 O16            3.0794     3.4903    -0.0042 O.3     
  17 C17            3.4560     4.8688     0.0052 C.3     
  18 C18            4.9588     4.9791    -0.0108 C.ar    
  19 C19            5.6345     5.0416    -1.2152 C.ar    
  20 C20            7.0130     5.1427    -1.2299 C.ar    
  21 C21            7.7159     5.1817    -0.0403 C.ar    
  22 C22            7.0403     5.1201     1.1641 C.ar    
  23 C23            5.6614     5.0234     1.1789 C.ar    
  24 H24           -0.8950     2.0273     0.0175 H       
  25 H25           -0.8619    -0.6521     0.0056 H       
  26 H26            3.5708    -2.3905    -1.1339 H       
  27 H27            1.2618    -2.4556    -0.6141 H       
  28 H28            2.3689    -3.2115     1.4050 H       
  29 H29            2.4248    -1.6511     1.9777 H       
  30 H30            7.2209     0.1923     0.0266 H       
  31 H31            3.0459     5.3635    -0.8752 H       
  32 H32            3.0662     5.3457     0.9045 H       
  33 H33            5.0853     5.0111    -2.1446 H       
  34 H34            7.5409     5.1909    -2.1709 H       
  35 H35            8.7930     5.2600    -0.0518 H       
  36 H36            7.5895     5.1503     2.0936 H       
  37 H37            5.1332     4.9790     2.1199 H       
@<TRIPOS>BOND
   1    1    4 1
   2    1   10 2
   3    1   24 1
   4    2    3 1
   5    2    5 1
   6    2   10 1
   7    3    4 2
   8    3    8 1
   9    4   25 1
  10    5    6 2
  11    6    7 1
  12    6   11 1
  13    7    8 1
  14    7   26 1
  15    8    9 1
  16    8   27 1
  17    9   28 1
  18    9   29 1
  19   10   14 1
  20   11   12 1
  21   11   13 2
  22   12   30 1
  23   14   15 2
  24   14   16 1
  25   16   17 1
  26   17   18 1
  27   17   31 1
  28   17   32 1
  29   18   19 ar
  30   18   23 ar
  31   19   20 ar
  32   19   33 1
  33   20   21 ar
  34   20   34 1
  35   21   22 ar
  36   21   35 1
  37   22   23 ar
  38   22   36 1
  39   23   37 1

#	End of record

