#	Name: ASD01410496
#	Creating user name:	WinNT
#	Creation time:	15. 06. 2019 19:17

#	Modifying user name:	WinNT
#	Modification time:	15. 06. 2019 19:17

#	Program:	/corina/corina34_cracker 3.40 0067  02.08.2006

@<TRIPOS>MOLECULE
ASD01410496
  71   75    0    0    0
SMALL
NO_CHARGES


@<TRIPOS>ATOM
   1 C1             1.0773     2.9582    -2.9117 C.ar    
   2 C2             1.6350     2.3175    -4.0092 C.ar    
   3 C3             2.7917     1.5809    -3.8458 C.ar    
   4 N4             3.3683     1.4809    -2.6635 N.ar    
   5 C5             2.8670     2.0770    -1.5940 C.ar    
   6 C6             1.7060     2.8341    -1.6848 C.ar    
   7 O7             3.4925     1.9471    -0.3973 O.3     
   8 C8             4.5663     1.1154    -0.3249 C.ar    
   9 C9             5.8162     1.5567    -0.7524 C.ar    
  10 C10            6.9136     0.7188    -0.6828 C.ar    
  11 C11            6.7756    -0.5690    -0.1858 C.ar    
  12 C12            5.5178    -1.0189     0.2465 C.ar    
  13 C13            4.4149    -0.1623     0.1775 C.ar    
  14 F14            5.9568     2.8097    -1.2378 F       
  15 N15            7.8814    -1.4134    -0.1162 N.am    
  16 C16            8.5568    -1.5453     1.0427 C.2     
  17 C17            8.3103    -2.1581    -1.3027 C.3     
  18 O18            9.5676    -2.2196     1.0839 O.2     
  19 C19            8.0691    -0.8710     2.2619 C.ar    
  20 C20            7.8260     0.5047     2.2536 C.ar    
  21 C21            7.3704     1.1284     3.3948 C.ar    
  22 C22            7.1526     0.3952     4.5505 C.ar    
  23 C23            7.3905    -0.9673     4.5684 C.ar    
  24 C24            7.8427    -1.6074     3.4293 C.ar    
  25 C25            0.9851     2.4240    -5.3647 C.3     
  26 N26            1.5287     3.5830    -6.0772 N.pl3   
  27 N27            1.0428     4.7721    -6.0157 N.2     
  28 C28            9.7111    -1.7000    -1.7136 C.3     
  29 C29            8.3360    -3.6543    -0.9841 C.3     
  30 C30            8.7839    -4.4320    -2.2233 C.3     
  31 C31           10.1847    -3.9739    -2.6341 C.3     
  32 C32           10.1590    -2.4777    -2.9527 C.3     
  33 O33           10.6030    -4.7002    -3.7915 O.3     
  34 C34           12.0164    -4.8924    -3.8776 C.3     
  35 N35            2.5599     3.5510    -6.8449 N.2     
  36 C36            2.7701     4.7580    -7.3191 C.2     
  37 C37            1.7690     5.5639    -6.7719 C.2     
  38 F38            8.0746    -2.9383     3.4467 F       
  39 Br39           6.5279     1.2618     6.1108 Br      
  40 C40            5.3620    -2.3844     0.7750 C.2     
  41 O41            6.3370    -3.0959     0.9171 O.2     
  42 O42            4.1382    -2.8452     1.1011 O.3     
  43 C43            1.1388     3.5117    -0.4641 C.3     
  44 F44           -0.0237     4.2067    -0.8143 F       
  45 F45            0.8328     2.5489     0.5038 F       
  46 F46            2.0808     4.4083     0.0515 F       
  47 H47            0.1757     3.5441    -3.0134 H       
  48 H48            3.2295     1.0801    -4.6966 H       
  49 H49            7.8799     1.0672    -1.0163 H       
  50 H50            3.4446    -0.5020     0.5083 H       
  51 H51            7.6131    -1.9725    -2.1198 H       
  52 H52            7.9952     1.0785     1.3544 H       
  53 H53            7.1827     2.1919     3.3887 H       
  54 H54            7.2187    -1.5327     5.4724 H       
  55 H55            1.1871     1.5184    -5.9367 H       
  56 H56           -0.0914     2.5444    -5.2431 H       
  57 H57            9.6928    -0.6340    -1.9405 H       
  58 H58           10.4083    -1.8856    -0.8965 H       
  59 H59            9.0332    -3.8399    -0.1670 H       
  60 H60            7.3380    -3.9806    -0.6914 H       
  61 H61            8.8022    -5.4979    -1.9963 H       
  62 H62            8.0867    -4.2464    -3.0403 H       
  63 H63           10.8819    -4.1595    -1.8170 H       
  64 H64            9.4618    -2.2921    -3.7698 H       
  65 H65           11.1570    -2.1513    -3.2454 H       
  66 H66           12.5137    -3.9230    -3.9092 H       
  67 H67           12.3611    -5.4494    -3.0064 H       
  68 H68           12.2525    -5.4515    -4.7830 H       
  69 H69            3.5576     5.0650    -7.9914 H       
  70 H70            1.6216     6.6209    -6.9372 H       
  71 H71            4.0860    -3.7478     1.4441 H       
@<TRIPOS>BOND
   1    1    2 ar
   2    1    6 ar
   3    1   47 1
   4    2    3 ar
   5    2   25 1
   6    3    4 ar
   7    3   48 1
   8    4    5 ar
   9    5    6 ar
  10    5    7 1
  11    6   43 1
  12    7    8 1
  13    8    9 ar
  14    8   13 ar
  15    9   10 ar
  16    9   14 1
  17   10   11 ar
  18   10   49 1
  19   11   12 ar
  20   11   15 1
  21   12   13 ar
  22   12   40 1
  23   13   50 1
  24   15   16 am
  25   15   17 1
  26   16   18 2
  27   16   19 1
  28   17   29 1
  29   17   28 1
  30   17   51 1
  31   19   20 ar
  32   19   24 ar
  33   20   21 ar
  34   20   52 1
  35   21   22 ar
  36   21   53 1
  37   22   23 ar
  38   22   39 1
  39   23   24 ar
  40   23   54 1
  41   24   38 1
  42   25   26 1
  43   25   55 1
  44   25   56 1
  45   26   35 1
  46   26   27 1
  47   27   37 2
  48   28   32 1
  49   28   57 1
  50   28   58 1
  51   29   30 1
  52   29   59 1
  53   29   60 1
  54   30   31 1
  55   30   61 1
  56   30   62 1
  57   31   32 1
  58   31   33 1
  59   31   63 1
  60   32   64 1
  61   32   65 1
  62   33   34 1
  63   34   66 1
  64   34   67 1
  65   34   68 1
  66   35   36 2
  67   36   37 1
  68   36   69 1
  69   37   70 1
  70   40   41 2
  71   40   42 1
  72   42   71 1
  73   43   44 1
  74   43   45 1
  75   43   46 1

#	End of record

