#	Name: ASD00960278
#	Creating user name:	WinNT
#	Creation time:	15. 06. 2019 18:53

#	Modifying user name:	WinNT
#	Modification time:	15. 06. 2019 18:53

#	Program:	/corina/corina34_cracker 3.40 0067  02.08.2006

@<TRIPOS>MOLECULE
ASD00960278
  48   50    0    0    0
SMALL
NO_CHARGES


@<TRIPOS>ATOM
   1 C1            -0.0169     1.3968     0.0097 C.2     
   2 C2             0.0021    -0.0041     0.0020 C.2     
   3 N3             1.2811     1.8202    -0.0004 N.pl3   
   4 C4             2.1029     0.7251    -0.0004 C.2     
   5 C5             1.3607    -0.3918    -0.0068 C.2     
   6 N6             1.8007     3.1238     0.0041 N.2     
   7 C7             3.0685     3.2844    -0.2329 C.2     
   8 N8             3.8952     2.2222    -0.5255 N.pl3   
   9 C9             3.6076     0.8826     0.0176 C.3     
  10 N10            4.1082     0.7796     1.3948 N.3     
  11 C11           -1.1351    -0.8743     0.0036 C.1     
  12 C12           -2.0675    -1.5878     0.0049 C.1     
  13 Si13          -3.5763    -2.7425     0.0069 Si      
  14 C14           -3.0021    -4.5147    -0.0058 C.3     
  15 C15           -4.5948    -2.4307     1.5354 C.3     
  16 C16           -4.6116    -2.4142    -1.5067 C.3     
  17 C17           -1.1692     2.2211     0.0199 C.2     
  18 O18           -2.2771     1.7179     0.0232 O.2     
  19 O19           -1.0380     3.5643     0.0261 O.3     
  20 C20           -2.2421     4.3337     0.0363 C.3     
  21 C21           -1.9003     5.8015     0.0419 C.ar    
  22 C22           -1.7498     6.4807    -1.1526 C.ar    
  23 C23           -1.4363     7.8270    -1.1474 C.ar    
  24 C24           -1.2737     8.4942     0.0524 C.ar    
  25 C25           -1.4251     7.8151     1.2469 C.ar    
  26 C26           -1.7429     6.4698     1.2417 C.ar    
  27 H27            1.7342    -1.4051    -0.0168 H       
  28 H28            3.4860     4.2799    -0.1998 H       
  29 H29            4.6709     2.3566    -1.0922 H       
  30 H30            4.0706     0.1189    -0.6074 H       
  31 H31            5.1053     0.9301     1.4294 H       
  32 H32            3.6243     1.4218     2.0044 H       
  33 H33           -2.3964    -4.7068     0.8798 H       
  34 H34           -3.8677    -5.1772    -0.0047 H       
  35 H35           -2.4062    -4.6972    -0.9001 H       
  36 H36           -4.9308    -1.3938     1.5429 H       
  37 H37           -5.4604    -3.0932     1.5366 H       
  38 H38           -3.9891    -2.6228     2.4211 H       
  39 H39           -4.0157    -2.5966    -2.4010 H       
  40 H40           -5.4772    -3.0767    -1.5055 H       
  41 H41           -4.9476    -1.3773    -1.4992 H       
  42 H42           -2.8296     4.1009    -0.8519 H       
  43 H43           -2.8203     4.0919     0.9281 H       
  44 H44           -1.8768     5.9595    -2.0899 H       
  45 H45           -1.3180     8.3575    -2.0806 H       
  46 H46           -1.0280     9.5459     0.0564 H       
  47 H47           -1.2977     8.3363     2.1842 H       
  48 H48           -1.8648     5.9402     2.1750 H       
@<TRIPOS>BOND
   1    1    2 2
   2    1    3 1
   3    1   17 1
   4    2   11 1
   5    2    5 1
   6    3    4 1
   7    3    6 1
   8    4    5 2
   9    4    9 1
  10    5   27 1
  11    6    7 2
  12    7    8 1
  13    7   28 1
  14    8    9 1
  15    8   29 1
  16    9   10 1
  17    9   30 1
  18   10   31 1
  19   10   32 1
  20   11   12 3
  21   12   13 1
  22   13   14 1
  23   13   15 1
  24   13   16 1
  25   14   33 1
  26   14   34 1
  27   14   35 1
  28   15   36 1
  29   15   37 1
  30   15   38 1
  31   16   39 1
  32   16   40 1
  33   16   41 1
  34   17   18 2
  35   17   19 1
  36   19   20 1
  37   20   21 1
  38   20   42 1
  39   20   43 1
  40   21   22 ar
  41   21   26 ar
  42   22   23 ar
  43   22   44 1
  44   23   24 ar
  45   23   45 1
  46   24   25 ar
  47   24   46 1
  48   25   26 ar
  49   25   47 1
  50   26   48 1

#	End of record

