#	Name: ASD01910539
#	Creating user name:	WinNT
#	Creation time:	15. 06. 2019 19:56

#	Modifying user name:	WinNT
#	Modification time:	15. 06. 2019 19:56

#	Program:	/corina/corina34_cracker 3.40 0067  02.08.2006

@<TRIPOS>MOLECULE
ASD01910539
  45   48    0    0    0
SMALL
NO_CHARGES


@<TRIPOS>ATOM
   1 O1             0.0875     0.2020     0.1080 O.3     
   2 C2             0.1323    -1.0084     0.6901 C.2     
   3 N3             1.4135    -1.2915     0.8745 N.2     
   4 C4             2.0870    -0.2360     0.3939 C.2     
   5 N5             1.2146     0.6207    -0.0500 N.2     
   6 C6            -1.0143    -1.8520     1.0515 C.2     
   7 C7            -0.9545    -3.0825     1.6449 C.2     
   8 C8            -2.2714    -3.5291     1.8097 C.2     
   9 C9            -3.0960    -2.5743     1.3199 C.2     
  10 N10           -2.3403    -1.5433     0.8593 N.pl3   
  11 C11            3.9745     1.1709     1.1792 C.3     
  12 C12            3.5848    -0.0718     0.3726 C.3     
  13 C13            4.0600     0.0935    -1.0728 C.3     
  14 C14            5.5843     0.2275    -1.0983 C.3     
  15 C15            5.9967     1.4735    -0.3083 C.3     
  16 N16            5.4207     1.3902     1.0408 N.am    
  17 C17            6.2042     1.5121     2.1307 C.2     
  18 C18            7.6672     1.6479     1.9772 C.ar    
  19 O19            5.7069     1.5104     3.2400 O.2     
  20 C20            8.1946     2.5992     1.1013 C.ar    
  21 C21            9.5604     2.7220     0.9623 C.ar    
  22 C22           10.4103     1.9032     1.6902 C.ar    
  23 C23            9.8919     0.9568     2.5610 C.ar    
  24 C24            8.5278     0.8295     2.7119 C.ar    
  25 F25           11.7482     2.0277     1.5502 F       
  26 C26           -4.6013    -2.6408     1.2950 C.3     
  27 H27           -0.0582    -3.6118     1.9326 H       
  28 H28           -2.5748    -4.4679     2.2492 H       
  29 H29           -2.6793    -0.7286     0.4565 H       
  30 H30            3.4353     2.0380     0.7979 H       
  31 H31            3.7272     1.0170     2.2296 H       
  32 H32            4.0541    -0.9523     0.8114 H       
  33 H33            3.7624    -0.7786    -1.6549 H       
  34 H34            3.6096     0.9880    -1.5031 H       
  35 H35            6.0348    -0.6559    -0.6456 H       
  36 H36            5.9241     0.3217    -2.1297 H       
  37 H37            7.0835     1.5194    -0.2394 H       
  38 H38            5.6224     2.3653    -0.8109 H       
  39 H39            7.5334     3.2372     0.5336 H       
  40 H40            9.9693     3.4571     0.2849 H       
  41 H41           10.5583     0.3213     3.1253 H       
  42 H42            8.1250     0.0922     3.3906 H       
  43 H43           -4.9992    -2.2117     2.2146 H       
  44 H44           -4.9758    -2.0782     0.4398 H       
  45 H45           -4.9177    -3.6806     1.2126 H       
@<TRIPOS>BOND
   1    1    2 1
   2    1    5 1
   3    2    3 2
   4    2    6 1
   5    3    4 1
   6    4    5 2
   7    4   12 1
   8    6    7 2
   9    6   10 1
  10    7    8 1
  11    7   27 1
  12    8    9 2
  13    8   28 1
  14    9   10 1
  15    9   26 1
  16   10   29 1
  17   11   12 1
  18   11   16 1
  19   11   30 1
  20   11   31 1
  21   12   13 1
  22   12   32 1
  23   13   14 1
  24   13   33 1
  25   13   34 1
  26   14   15 1
  27   14   35 1
  28   14   36 1
  29   15   16 1
  30   15   37 1
  31   15   38 1
  32   16   17 am
  33   17   18 1
  34   17   19 2
  35   18   20 ar
  36   18   24 ar
  37   20   21 ar
  38   20   39 1
  39   21   22 ar
  40   21   40 1
  41   22   23 ar
  42   22   25 1
  43   23   24 ar
  44   23   41 1
  45   24   42 1
  46   26   43 1
  47   26   44 1
  48   26   45 1

#	End of record

