#	Name: ASD01120118
#	Creating user name:	WinNT
#	Creation time:	15. 06. 2019 18:59

#	Modifying user name:	WinNT
#	Modification time:	15. 06. 2019 18:59

#	Program:	/corina/corina34_cracker 3.40 0067  02.08.2006

@<TRIPOS>MOLECULE
ASD01120118
  33   35    0    0    0
SMALL
NO_CHARGES


@<TRIPOS>ATOM
   1 C1            -0.0129     1.2597     0.7177 C.ar    
   2 C2            -1.1189     1.5361     1.5033 C.ar    
   3 C3            -2.3090     0.8755     1.2800 C.ar    
   4 C4            -2.3970    -0.0716     0.2608 C.ar    
   5 C5            -1.2805    -0.3459    -0.5277 C.ar    
   6 C6            -0.0964     0.3238    -0.2991 C.ar    
   7 N7            -3.5908    -0.7389     0.0324 N.pl3   
   8 C8            -4.7568    -0.0862     0.1487 C.2     
   9 N9            -5.9386    -0.6565     0.0714 N.2     
  10 C10           -6.9765     0.1184     0.2062 C.2     
  11 C11           -6.6107     1.5314     0.4264 C.2     
  12 S12           -4.9039     1.6419     0.4319 S.3     
  13 C13           -8.3151    -0.3457     0.1475 C.ar    
  14 C14           -8.5819    -1.7152    -0.0664 C.ar    
  15 C15           -9.8693    -2.1537    -0.1216 C.ar    
  16 C16          -10.9264    -1.2510     0.0330 C.ar    
  17 C17          -10.6692     0.1074     0.2453 C.ar    
  18 C18           -9.3867     0.5588     0.3086 C.ar    
  19 O19          -12.2037    -1.6938    -0.0234 O.3     
  20 N20            1.2623     1.9720     0.9620 N.pl3   
  21 O21            1.3428     2.8666     1.9251 O.2     
  22 O22            2.3158     1.7108     0.2161 O.2     
  23 H23           -1.0496     2.2700     2.2926 H       
  24 H24           -3.1710     1.0913     1.8938 H       
  25 H25           -1.3434    -1.0791    -1.3182 H       
  26 H26            0.7690     0.1123    -0.9096 H       
  27 H27           -3.5827    -1.6777    -0.2115 H       
  28 H28           -7.3001     2.3512     0.5644 H       
  29 H29           -7.7667    -2.4133    -0.1864 H       
  30 H30          -10.0750    -3.2012    -0.2856 H       
  31 H31          -11.4902     0.7989     0.3639 H       
  32 H32           -9.1896     1.6078     0.4729 H       
  33 H33          -12.5656    -1.9609     0.8326 H       
@<TRIPOS>BOND
   1    1    2 ar
   2    1   20 1
   3    1    6 ar
   4    2    3 ar
   5    2   23 1
   6    3    4 ar
   7    3   24 1
   8    4    5 ar
   9    4    7 1
  10    5    6 ar
  11    5   25 1
  12    6   26 1
  13    7    8 1
  14    7   27 1
  15    8    9 2
  16    8   12 1
  17    9   10 1
  18   10   11 2
  19   10   13 1
  20   11   12 1
  21   11   28 1
  22   13   14 ar
  23   13   18 ar
  24   14   15 ar
  25   14   29 1
  26   15   16 ar
  27   15   30 1
  28   16   17 ar
  29   16   19 1
  30   17   18 ar
  31   17   31 1
  32   18   32 1
  33   19   33 1
  34   20   21 2
  35   20   22 2

#	End of record

