#	Name: ASD05720304
#	Creating user name:	WinNT
#	Creation time:	15. 06. 2019 21:02

#	Modifying user name:	WinNT
#	Modification time:	15. 06. 2019 21:02

#	Program:	/corina/corina34_cracker 3.40 0067  02.08.2006

@<TRIPOS>MOLECULE
ASD05720304
  61   64    0    0    0
SMALL
NO_CHARGES


@<TRIPOS>ATOM
   1 N1            -0.0967     1.5906    -0.5569 N.am    
   2 C2            -0.1683     0.2725    -1.1923 C.3     
   3 C3             1.0590     2.2838    -0.5715 C.2     
   4 O4             2.0422     1.8153    -1.1121 O.2     
   5 N5             1.1249     3.4965     0.0130 N.am    
   6 C6             2.3479     4.1656     0.0970 C.ar    
   7 C7             2.3889     5.5517    -0.0063 C.ar    
   8 C8             3.5939     6.2145     0.0757 C.ar    
   9 C9             4.7743     5.4932     0.2632 C.ar    
  10 C10            4.7299     4.1018     0.3671 C.ar    
  11 C11            3.5214     3.4449     0.2895 C.ar    
  12 C12            7.4576     7.9363    -0.2963 C.ar    
  13 N13            6.2980     7.2951    -0.3705 N.ar    
  14 C14            6.0700     6.2021     0.3512 C.ar    
  15 C15            7.0923     5.7344     1.2031 C.ar    
  16 C16            8.3067     6.4496     1.2475 C.ar    
  17 N17            8.4430     7.5336     0.4882 N.ar    
  18 N18            9.1096     5.7958     2.1353 N.pl3   
  19 N19            8.4050     4.6928     2.6337 N.2     
  20 C20            7.2205     4.6473     2.0936 C.2     
  21 C21           10.4741     6.1810     2.5040 C.3     
  22 C22           10.4297     7.1307     3.7027 C.3     
  23 C23           11.8426     7.6310     4.0097 C.3     
  24 C24            9.5266     8.3219     3.3765 C.3     
  25 O25            9.9120     6.4379     4.8403 O.3     
  26 N26            7.6446     9.0661    -1.0738 N.3     
  27 C27            7.6298     8.7293    -2.5047 C.3     
  28 C28            7.8990     9.9943    -3.3240 C.3     
  29 O29            6.9254    10.9877    -2.9915 O.3     
  30 C30            6.9128    11.3402    -1.6055 C.3     
  31 C31            6.6336    10.0888    -0.7688 C.3     
  32 C32            8.7150     7.6910    -2.7965 C.3     
  33 H33           -0.8821     1.9661    -0.1291 H       
  34 H34            0.0689     0.3667    -2.2520 H       
  35 H35            0.5476    -0.3989    -0.7180 H       
  36 H36           -1.1746    -0.1309    -1.0796 H       
  37 H37            0.3230     3.9044     0.3754 H       
  38 H38            1.4754     6.1092    -0.1514 H       
  39 H39            3.6253     7.2910    -0.0053 H       
  40 H40            5.6415     3.5412     0.5118 H       
  41 H41            3.4860     2.3688     0.3738 H       
  42 H42            6.4641     3.9027     2.2934 H       
  43 H43           11.0446     5.2903     2.7670 H       
  44 H44           10.9506     6.6818     1.6612 H       
  45 H45           12.2375     8.1594     3.1420 H       
  46 H46           11.8110     8.3075     4.8637 H       
  47 H47           12.4860     6.7824     4.2421 H       
  48 H48            8.5200     7.9655     3.1578 H       
  49 H49            9.4949     8.9984     4.2305 H       
  50 H50            9.9215     8.8503     2.5088 H       
  51 H51            9.8555     6.9803     5.6389 H       
  52 H52            6.6546     8.3227    -2.7728 H       
  53 H53            8.8960    10.3707    -3.0953 H       
  54 H54            7.8324     9.7607    -4.3866 H       
  55 H55            7.8811    11.7558    -1.3268 H       
  56 H56            6.1329    12.0801    -1.4252 H       
  57 H57            5.6425     9.7040    -1.0091 H       
  58 H58            6.6795    10.3416     0.2905 H       
  59 H59            8.4767     6.7613    -2.2799 H       
  60 H60            8.7636     7.5080    -3.8700 H       
  61 H61            9.6779     8.0640    -2.4476 H       
@<TRIPOS>BOND
   1    1    2 1
   2    1    3 am
   3    1   33 1
   4    2   34 1
   5    2   35 1
   6    2   36 1
   7    3    4 2
   8    3    5 am
   9    5    6 1
  10    5   37 1
  11    6    7 ar
  12    6   11 ar
  13    7    8 ar
  14    7   38 1
  15    8    9 ar
  16    8   39 1
  17    9   10 ar
  18    9   14 1
  19   10   11 ar
  20   10   40 1
  21   11   41 1
  22   12   13 ar
  23   12   17 ar
  24   12   26 1
  25   13   14 ar
  26   14   15 ar
  27   15   16 ar
  28   15   20 1
  29   16   17 ar
  30   16   18 1
  31   18   19 1
  32   18   21 1
  33   19   20 2
  34   20   42 1
  35   21   22 1
  36   21   43 1
  37   21   44 1
  38   22   23 1
  39   22   24 1
  40   22   25 1
  41   23   45 1
  42   23   46 1
  43   23   47 1
  44   24   48 1
  45   24   49 1
  46   24   50 1
  47   25   51 1
  48   26   27 1
  49   26   31 1
  50   27   28 1
  51   27   32 1
  52   27   52 1
  53   28   29 1
  54   28   53 1
  55   28   54 1
  56   29   30 1
  57   30   31 1
  58   30   55 1
  59   30   56 1
  60   31   57 1
  61   31   58 1
  62   32   59 1
  63   32   60 1
  64   32   61 1

#	End of record

