#	Name: ASD01916396
#	Creating user name:	WinNT
#	Creation time:	15. 06. 2019 20:07

#	Modifying user name:	WinNT
#	Modification time:	15. 06. 2019 20:07

#	Program:	/corina/corina34_cracker 3.40 0067  02.08.2006

@<TRIPOS>MOLECULE
ASD01916396
  38   40    0    0    0
SMALL
NO_CHARGES


@<TRIPOS>ATOM
   1 N1            -0.0169     1.3954     0.0097 N.2     
   2 N2             0.0021    -0.0041     0.0020 N.pl3   
   3 C3             1.2675    -0.4442    -0.0124 C.2     
   4 C4             2.1011     0.6587    -0.0145 C.ar    
   5 C5             3.4995     0.8486    -0.0264 C.ar    
   6 C6             4.0034     2.1081    -0.0241 C.ar    
   7 C7             3.1731     3.2313    -0.0096 C.ar    
   8 C8             1.8213     3.1213     0.0028 C.ar    
   9 C9             1.2261     1.8414     0.0002 C.ar    
  10 C10           -1.1861    -0.8611     0.0095 C.3     
  11 C11           -2.0719    -0.4943     1.2018 C.3     
  12 C12           -3.3128    -1.3893     1.2097 C.3     
  13 C13           -4.1987    -1.0225     2.4020 C.3     
  14 C14           -5.3925    -1.8836     2.4095 C.1     
  15 C15           -6.3447    -2.5704     2.4155 C.1     
  16 C16           -7.5061    -3.4081     2.4228 C.ar    
  17 C17           -8.4642    -3.2545     3.4256 C.ar    
  18 C18           -9.5807    -4.0715     3.4188 C.ar    
  19 C19           -9.7045    -5.0166     2.4097 C.ar    
  20 C20           -8.7170    -5.1150     1.4469 C.ar    
  21 N21           -7.6657    -4.3215     1.4722 N.ar    
  22 H22            1.5809    -1.4777    -0.0207 H       
  23 H23            4.1639    -0.0028    -0.0369 H       
  24 H24            5.0745     2.2460    -0.0332 H       
  25 H25            3.6199     4.2146    -0.0080 H       
  26 H26            1.2041     4.0075     0.0145 H       
  27 H27           -1.7440    -0.7167    -0.9157 H       
  28 H28           -0.8811    -1.9043     0.0908 H       
  29 H29           -1.5140    -0.6387     2.1270 H       
  30 H30           -2.3770     0.5490     1.1205 H       
  31 H31           -3.8708    -1.2449     0.2845 H       
  32 H32           -3.0078    -2.4326     1.2910 H       
  33 H33           -3.6407    -1.1669     3.3272 H       
  34 H34           -4.5037     0.0207     2.3207 H       
  35 H35           -8.3359    -2.5087     4.1962 H       
  36 H36          -10.3389    -3.9763     4.1820 H       
  37 H37          -10.5642    -5.6695     2.3771 H       
  38 H38           -8.8108    -5.8498     0.6610 H       
@<TRIPOS>BOND
   1    1    2 1
   2    1    9 2
   3    2    3 1
   4    2   10 1
   5    3    4 2
   6    3   22 1
   7    4    5 ar
   8    4    9 ar
   9    5    6 ar
  10    5   23 1
  11    6    7 ar
  12    6   24 1
  13    7    8 ar
  14    7   25 1
  15    8    9 ar
  16    8   26 1
  17   10   11 1
  18   10   27 1
  19   10   28 1
  20   11   12 1
  21   11   29 1
  22   11   30 1
  23   12   13 1
  24   12   31 1
  25   12   32 1
  26   13   14 1
  27   13   33 1
  28   13   34 1
  29   14   15 3
  30   15   16 1
  31   16   17 ar
  32   16   21 ar
  33   17   18 ar
  34   17   35 1
  35   18   19 ar
  36   18   36 1
  37   19   20 ar
  38   19   37 1
  39   20   21 ar
  40   20   38 1

#	End of record

