#	Name: ASD03331825
#	Creating user name:	WinNT
#	Creation time:	15. 06. 2019 20:39

#	Modifying user name:	WinNT
#	Modification time:	15. 06. 2019 20:39

#	Program:	/corina/corina34_cracker 3.40 0067  02.08.2006

@<TRIPOS>MOLECULE
ASD03331825
  66   68    0    0    0
SMALL
NO_CHARGES


@<TRIPOS>ATOM
   1 C1             0.6426     2.2478     0.5539 C.2     
   2 N2             0.9734     0.9346     0.4427 N.pl3   
   3 C3            -0.1690     0.2445     0.1796 C.2     
   4 N4            -1.1691     1.0985     0.1271 N.2     
   5 C5            -0.6966     2.3442     0.3581 C.2     
   6 C6             1.6394     3.3389     0.8493 C.3     
   7 N7             2.8729     2.7058     1.3497 N.3     
   8 C8             3.3063     1.6155     0.4646 C.3     
   9 C9             2.3413     0.4295     0.5905 C.3     
  10 C10           -1.4922     3.5844     0.3857 C.2     
  11 O11           -0.9494     4.6502     0.6059 O.2     
  12 N12           -2.8212     3.5374     0.1669 N.am    
  13 C13           -3.6121     4.7703     0.1944 C.3     
  14 C14           -5.0643     4.4370     0.5422 C.3     
  15 C15           -3.5587     5.4316    -1.1587 C.2     
  16 C16           -5.1119     3.7035     1.8840 C.3     
  17 C17           -5.8753     5.7307     0.6391 C.3     
  18 C18           -0.2696    -1.2120    -0.0142 C.2     
  19 C19           -1.5521    -3.2589    -0.4650 C.3     
  20 C20           -1.4492    -1.7686    -0.2667 C.2     
  21 O21           -3.0751     4.8433    -2.1025 O.2     
  22 C22           -5.6578     3.5435    -0.5488 C.3     
  23 C23            3.9412     3.6989     1.5236 C.3     
  24 N24           -4.0483     6.6769    -1.3199 N.am    
  25 N25           -2.5428    -3.8099     0.4693 N.3     
  26 C26           -2.8449    -5.2111     0.1500 C.3     
  27 C27           -3.7651    -5.7936     1.2252 C.3     
  28 C28           -5.0571    -4.9739     1.2832 C.3     
  29 C29           -4.7110    -3.5099     1.5691 C.3     
  30 C30           -3.7634    -2.9936     0.4840 C.3     
  31 H31            1.8552     3.8972    -0.0617 H       
  32 H32            1.2365     4.0107     1.6072 H       
  33 H33            3.3149     1.9677    -0.5669 H       
  34 H34            4.3101     1.2974     0.7463 H       
  35 H35            2.4575    -0.0368     1.5688 H       
  36 H36            2.5507    -0.2996    -0.1922 H       
  37 H37           -3.2541     2.6873    -0.0087 H       
  38 H38           -3.2046     5.4467     0.9458 H       
  39 H39           -4.6891     4.3400     2.6613 H       
  40 H40           -6.1465     3.4660     2.1318 H       
  41 H41           -4.5341     2.7818     1.8150 H       
  42 H42           -5.8358     6.2567    -0.3148 H       
  43 H43           -6.9114     5.4929     0.8802 H       
  44 H44           -5.4566     6.3643     1.4210 H       
  45 H45            0.6155    -1.8276     0.0491 H       
  46 H46           -1.8622    -3.4687    -1.4887 H       
  47 H47           -0.5815    -3.7183    -0.2780 H       
  48 H48           -2.3343    -1.1530    -0.3300 H       
  49 H49           -5.0800     2.6218    -0.6179 H       
  50 H50           -6.6924     3.3061    -0.3010 H       
  51 H51           -5.6239     4.0661    -1.5048 H       
  52 H52            3.6211     4.4553     2.2402 H       
  53 H53            4.8397     3.2051     1.8936 H       
  54 H54            4.1556     4.1734     0.5659 H       
  55 H55           -4.3726     7.1737    -0.5525 H       
  56 H56           -4.0764     7.0764    -2.2034 H       
  57 H57           -3.3402    -5.2640    -0.8195 H       
  58 H58           -1.9181    -5.7838     0.1160 H       
  59 H59           -4.0018    -6.8289     0.9796 H       
  60 H60           -3.2650    -5.7537     2.1928 H       
  61 H61           -5.5771    -5.0454     0.3279 H       
  62 H62           -5.6972    -5.3586     2.0771 H       
  63 H63           -5.6234    -2.9136     1.5692 H       
  64 H64           -4.2258    -3.4341     2.5421 H       
  65 H65           -3.5037    -1.9557     0.6924 H       
  66 H66           -4.2543    -3.0569    -0.4871 H       
@<TRIPOS>BOND
   1    1    2 1
   2    1    6 1
   3    1    5 2
   4    2    3 1
   5    2    9 1
   6    3    4 2
   7    3   18 1
   8    4    5 1
   9    5   10 1
  10    6    7 1
  11    6   31 1
  12    6   32 1
  13    7    8 1
  14    7   23 1
  15    8    9 1
  16    8   33 1
  17    8   34 1
  18    9   35 1
  19    9   36 1
  20   10   11 2
  21   10   12 am
  22   12   13 1
  23   12   37 1
  24   13   14 1
  25   13   15 1
  26   13   38 1
  27   14   16 1
  28   14   17 1
  29   14   22 1
  30   15   21 2
  31   15   24 am
  32   16   39 1
  33   16   40 1
  34   16   41 1
  35   17   42 1
  36   17   43 1
  37   17   44 1
  38   18   20 2
  39   18   45 1
  40   19   20 1
  41   19   25 1
  42   19   46 1
  43   19   47 1
  44   20   48 1
  45   22   49 1
  46   22   50 1
  47   22   51 1
  48   23   52 1
  49   23   53 1
  50   23   54 1
  51   24   55 1
  52   24   56 1
  53   25   26 1
  54   25   30 1
  55   26   27 1
  56   26   57 1
  57   26   58 1
  58   27   28 1
  59   27   59 1
  60   27   60 1
  61   28   29 1
  62   28   61 1
  63   28   62 1
  64   29   30 1
  65   29   63 1
  66   29   64 1
  67   30   65 1
  68   30   66 1

#	End of record

