#	Name: ASD02038886
#	Creating user name:	WinNT
#	Creation time:	15. 06. 2019 20:17

#	Modifying user name:	WinNT
#	Modification time:	15. 06. 2019 20:17

#	Program:	/corina/corina34_cracker 3.40 0067  02.08.2006

@<TRIPOS>MOLECULE
ASD02038886
  46   46    0    0    0
SMALL
NO_CHARGES


@<TRIPOS>ATOM
   1 N1            -0.0179     1.4660     0.0101 N.am    
   2 C2             0.0021    -0.0041     0.0020 C.3     
   3 C3             1.4812    -0.4420    -0.0417 C.3     
   4 C4             2.1956     0.8049    -0.6268 C.3     
   5 C5             1.3719     1.9577    -0.0005 C.3     
   6 C6            -1.1236     2.2365     0.0197 C.2     
   7 O7            -2.2237     1.7205     0.0223 O.2     
   8 O8            -1.0093     3.5780     0.0264 O.3     
   9 C9            -0.6521    -0.5324     1.2526 C.2     
  10 N10           -1.0833    -1.8084     1.3000 N.am    
  11 O11           -0.7906     0.1907     2.2164 O.2     
  12 C12           -1.5541    -3.8188     2.5752 C.2     
  13 C13           -1.7192    -2.3220     2.5158 C.3     
  14 C14           -3.2089    -1.9736     2.4983 C.3     
  15 O15           -0.9655    -4.3971     1.6926 O.2     
  16 O16           -2.0608    -4.5094     3.6086 O.3     
  17 C17           -1.8639    -5.9480     3.6000 C.3     
  18 O18           -3.8461    -2.6605     1.4192 O.3     
  19 C19           -2.2424     4.3446     0.0367 C.3     
  20 C20           -3.0502     3.9946     1.2880 C.3     
  21 C21           -1.9138     5.8389     0.0432 C.3     
  22 C22           -3.0624     4.0082    -1.2104 C.3     
  23 H23           -0.5211    -0.3771    -0.8784 H       
  24 H24            1.8482    -0.6617     0.9609 H       
  25 H25            1.6093    -1.3030    -0.6977 H       
  26 H26            3.2356     0.8471    -0.3030 H       
  27 H27            2.1257     0.8207    -1.7144 H       
  28 H28            1.4517     2.8565    -0.6119 H       
  29 H29            1.7113     2.1579     1.0158 H       
  30 H30           -0.9725    -2.3868     0.5292 H       
  31 H31           -1.2506    -1.8698     3.3898 H       
  32 H32           -3.6641    -2.2768     3.4412 H       
  33 H33           -3.3291    -0.8984     2.3659 H       
  34 H34           -0.7965    -6.1686     3.5955 H       
  35 H35           -2.3210    -6.3826     4.4889 H       
  36 H36           -2.3264    -6.3726     2.7090 H       
  37 H37           -4.7945    -2.4861     1.3474 H       
  38 H38           -2.4659     4.2343     2.1764 H       
  39 H39           -3.9758     4.5701     1.2957 H       
  40 H40           -3.2842     2.9300     1.2834 H       
  41 H41           -1.3383     6.0883    -0.8483 H       
  42 H42           -2.8395     6.4144     0.0508 H       
  43 H43           -1.3296     6.0786     0.9316 H       
  44 H44           -3.2965     2.9436    -1.2151 H       
  45 H45           -3.9881     4.5837    -1.2027 H       
  46 H46           -2.4869     4.2575    -2.1019 H       
@<TRIPOS>BOND
   1    1    2 1
   2    1    5 1
   3    1    6 am
   4    2    3 1
   5    2    9 1
   6    2   23 1
   7    3    4 1
   8    3   24 1
   9    3   25 1
  10    4    5 1
  11    4   26 1
  12    4   27 1
  13    5   28 1
  14    5   29 1
  15    6    7 2
  16    6    8 1
  17    8   19 1
  18    9   10 am
  19    9   11 2
  20   10   13 1
  21   10   30 1
  22   12   13 1
  23   12   15 2
  24   12   16 1
  25   13   14 1
  26   13   31 1
  27   14   18 1
  28   14   32 1
  29   14   33 1
  30   16   17 1
  31   17   34 1
  32   17   35 1
  33   17   36 1
  34   18   37 1
  35   19   20 1
  36   19   22 1
  37   19   21 1
  38   20   38 1
  39   20   39 1
  40   20   40 1
  41   21   41 1
  42   21   42 1
  43   21   43 1
  44   22   44 1
  45   22   45 1
  46   22   46 1

#	End of record

