#	Name: ASD06020060
#	Creating user name:	WinNT
#	Creation time:	15. 06. 2019 21:04

#	Modifying user name:	WinNT
#	Modification time:	15. 06. 2019 21:04

#	Program:	/corina/corina34_cracker 3.40 0067  02.08.2006

@<TRIPOS>MOLECULE
ASD06020060
  40   43    0    0    0
SMALL
NO_CHARGES


@<TRIPOS>ATOM
   1 C1            -0.0168     1.4228    -0.0192 C.3     
   2 O2             0.0031    -0.0059    -0.0412 O.3     
   3 C3             3.9966     2.7931    -0.0270 C.ar    
   4 C4             2.9797     3.7531    -0.0053 C.ar    
   5 C5             1.6420     3.3416    -0.0022 C.ar    
   6 C6             1.3968     1.9449    -0.0217 C.ar    
   7 C7             2.4455     1.0804    -0.0422 C.ar    
   8 N8             3.6992     1.5054    -0.0441 N.ar    
   9 S9             3.0182     5.5126     0.0207 S.3     
  10 C10            1.2599     5.5605     0.0341 C.2     
  11 N11            0.7803     4.3593     0.0193 N.2     
  12 N12            5.3291     3.1961    -0.0361 N.pl3   
  13 C13            7.0082     0.0683     0.3415 C.ar    
  14 N14            6.0502     0.9689     0.2555 N.ar    
  15 C15            6.3401     2.2509     0.0544 C.ar    
  16 C16            7.6787     2.6304    -0.0648 C.ar    
  17 C17            8.6484     1.6519     0.0320 C.ar    
  18 N18            8.2804     0.3943     0.2333 N.ar    
  19 C19           10.1073     2.0092    -0.0901 C.3     
  20 C20            0.4479     6.7949     0.0579 C.ar    
  21 C21            1.0712     8.0450     0.0711 C.ar    
  22 C22            0.3062     9.1941     0.0929 C.ar    
  23 C23           -1.0750     9.1105     0.1021 C.ar    
  24 C24           -1.7000     7.8772     0.0897 C.ar    
  25 C25           -0.9475     6.7176     0.0615 C.ar    
  26 F26           -1.5594     5.5132     0.0433 F       
  27 Cl27           2.8037     8.1533     0.0607 Cl      
  28 H28           -0.5422     1.7924    -0.8998 H       
  29 H29           -0.5290     1.7652     0.8799 H       
  30 H30           -0.8748    -0.4115    -0.0409 H       
  31 H31            2.2506     0.0182    -0.0570 H       
  32 H32            5.5505     4.1379    -0.1056 H       
  33 H33            6.7436    -0.9652     0.5097 H       
  34 H34            7.9488     3.6631    -0.2289 H       
  35 H35           10.5077     2.2441     0.8961 H       
  36 H36           10.6538     1.1661    -0.5128 H       
  37 H37           10.2157     2.8760    -0.7421 H       
  38 H38            0.7871    10.1610     0.1030 H       
  39 H39           -1.6677    10.0131     0.1195 H       
  40 H40           -2.7785     7.8196     0.0977 H       
@<TRIPOS>BOND
   1    1    2 1
   2    1    6 1
   3    1   28 1
   4    1   29 1
   5    2   30 1
   6    3    4 ar
   7    3    8 ar
   8    3   12 1
   9    4    5 ar
  10    4    9 1
  11    5    6 ar
  12    5   11 1
  13    6    7 ar
  14    7    8 ar
  15    7   31 1
  16    9   10 1
  17   10   11 2
  18   10   20 1
  19   12   15 1
  20   12   32 1
  21   13   14 ar
  22   13   18 ar
  23   13   33 1
  24   14   15 ar
  25   15   16 ar
  26   16   17 ar
  27   16   34 1
  28   17   18 ar
  29   17   19 1
  30   19   35 1
  31   19   36 1
  32   19   37 1
  33   20   21 ar
  34   20   25 ar
  35   21   22 ar
  36   21   27 1
  37   22   23 ar
  38   22   38 1
  39   23   24 ar
  40   23   39 1
  41   24   25 ar
  42   24   40 1
  43   25   26 1

#	End of record

