#	Name: ASD03570039
#	Creating user name:	WinNT
#	Creation time:	15. 06. 2019 20:43

#	Modifying user name:	WinNT
#	Modification time:	15. 06. 2019 20:43

#	Program:	/corina/corina34_cracker 3.40 0067  02.08.2006

@<TRIPOS>MOLECULE
ASD03570039
  54   56    0    0    0
SMALL
NO_CHARGES


@<TRIPOS>ATOM
   1 C1             0.2945     1.7236     0.7984 C.ar    
   2 C2            -0.1154     0.4200     0.5162 C.ar    
   3 C3             0.6861    -0.6401     0.9207 C.ar    
   4 C4             1.8671    -0.3567     1.5921 C.ar    
   5 C5             2.2079     0.9586     1.8362 C.ar    
   6 N6             1.4275     1.9472     1.4406 N.ar    
   7 N7            -1.3173     0.1838    -0.1645 N.am    
   8 C8            -1.4675    -0.9371    -0.8977 C.2     
   9 N9            -2.6592    -1.2197    -1.4603 N.am    
  10 O10           -0.5279    -1.6934    -1.0515 O.2     
  11 C11           -2.8473    -2.4367    -2.1291 C.ar    
  12 C12           -4.0490    -3.1204    -2.0022 C.ar    
  13 C13           -1.8342    -2.9564    -2.9236 C.ar    
  14 C14           -2.0203    -4.1555    -3.5828 C.ar    
  15 C15           -3.2194    -4.8405    -3.4517 C.ar    
  16 C16           -4.2338    -4.3194    -2.6620 C.ar    
  17 O17           -3.4024    -6.0207    -4.1018 O.3     
  18 C18           -4.6616    -6.6720    -3.9218 C.3     
  19 F19           -4.8494    -6.9571    -2.5651 F       
  20 F20           -5.6884    -5.8336    -4.3687 F       
  21 O21           -0.4743     2.7709     0.4051 O.3     
  22 C22           -0.0696     4.0227     0.7455 C.ar    
  23 C23            0.5747     4.8227    -0.1876 C.ar    
  24 C24            0.9851     6.0946     0.1610 C.ar    
  25 C25            0.7544     6.5710     1.4386 C.ar    
  26 C26            0.1131     5.7759     2.3702 C.ar    
  27 C27           -0.3049     4.5052     2.0248 C.ar    
  28 C28            0.8269     4.3040    -1.5798 C.3     
  29 C29            1.4242     5.4199    -2.4394 C.3     
  30 C30            1.8053     3.1294    -1.5170 C.3     
  31 C31           -0.4928     3.8361    -2.1966 C.3     
  32 H32            0.3968    -1.6606     0.7178 H       
  33 H33            2.5132    -1.1573     1.9208 H       
  34 H34            3.1262     1.1821     2.3588 H       
  35 H35           -2.0412     0.8270    -0.1079 H       
  36 H36           -3.3867    -0.5807    -1.4022 H       
  37 H37           -4.8388    -2.7149    -1.3874 H       
  38 H38           -0.9008    -2.4228    -3.0263 H       
  39 H39           -1.2323    -4.5598    -4.2008 H       
  40 H40           -5.1685    -4.8514    -2.5633 H       
  41 H41           -4.6756    -7.6000    -4.4934 H       
  42 H42            1.4869     6.7175    -0.5647 H       
  43 H43            1.0760     7.5659     1.7092 H       
  44 H44           -0.0652     6.1501     3.3675 H       
  45 H45           -0.8101     3.8862     2.7515 H       
  46 H46            2.3644     5.7533    -2.0001 H       
  47 H47            1.6066     5.0447    -3.4464 H       
  48 H48            0.7272     6.2567    -2.4842 H       
  49 H49            1.3208     2.2781    -1.0389 H       
  50 H50            2.1085     2.8547    -2.5273 H       
  51 H51            2.6837     3.4187    -0.9401 H       
  52 H52           -1.1898     4.6729    -2.2413 H       
  53 H53           -0.3104     3.4609    -3.2036 H       
  54 H54           -0.9183     3.0411    -1.5842 H       
@<TRIPOS>BOND
   1    1    2 ar
   2    1    6 ar
   3    1   21 1
   4    2    3 ar
   5    2    7 1
   6    3    4 ar
   7    3   32 1
   8    4    5 ar
   9    4   33 1
  10    5    6 ar
  11    5   34 1
  12    7    8 am
  13    7   35 1
  14    8    9 am
  15    8   10 2
  16    9   11 1
  17    9   36 1
  18   11   13 ar
  19   11   12 ar
  20   12   16 ar
  21   12   37 1
  22   13   14 ar
  23   13   38 1
  24   14   15 ar
  25   14   39 1
  26   15   16 ar
  27   15   17 1
  28   16   40 1
  29   17   18 1
  30   18   19 1
  31   18   20 1
  32   18   41 1
  33   21   22 1
  34   22   23 ar
  35   22   27 ar
  36   23   24 ar
  37   23   28 1
  38   24   25 ar
  39   24   42 1
  40   25   26 ar
  41   25   43 1
  42   26   27 ar
  43   26   44 1
  44   27   45 1
  45   28   29 1
  46   28   30 1
  47   28   31 1
  48   29   46 1
  49   29   47 1
  50   29   48 1
  51   30   49 1
  52   30   50 1
  53   30   51 1
  54   31   52 1
  55   31   53 1
  56   31   54 1

#	End of record

