#	Name: ASD01940101
#	Creating user name:	WinNT
#	Creation time:	15. 06. 2019 20:11

#	Modifying user name:	WinNT
#	Modification time:	15. 06. 2019 20:11

#	Program:	/corina/corina34_cracker 3.40 0067  02.08.2006

@<TRIPOS>MOLECULE
ASD01940101
  32   33    0    0    0
SMALL
NO_CHARGES


@<TRIPOS>ATOM
   1 I1             2.7928    -4.5949    -1.6124 I       
   2 F2             1.9034     1.5944     2.2884 F       
   3 C3             1.0654     2.1486     1.3851 C.ar    
   4 C4             1.3901     2.1332     0.0352 C.ar    
   5 C5             0.5220     2.7058    -0.8931 C.ar    
   6 C6            -0.6615     3.2880    -0.4645 C.ar    
   7 C7            -0.9793     3.3008     0.8812 C.ar    
   8 C8            -0.1216     2.7277     1.8045 C.ar    
   9 N9             2.5876     1.5439    -0.3929 N.pl3   
  10 N10            0.8448     2.6935    -2.2567 N.am    
  11 C11            2.6341     0.1730    -0.6653 C.ar    
  12 C12            1.4788    -0.5922    -0.5827 C.ar    
  13 C13            1.5275    -1.9465    -0.8528 C.ar    
  14 C14            2.7254    -2.5410    -1.2048 C.ar    
  15 C15            3.8799    -1.7825    -1.2880 C.ar    
  16 C16            3.8373    -0.4261    -1.0252 C.ar    
  17 F17            4.9643     0.3146    -1.1063 F       
  18 F18           -0.4400     2.7377     3.1174 F       
  19 S19            0.4291     3.9766    -3.2175 S.o2    
  20 O20            0.9940     3.6639    -4.4834 O.2     
  21 O21           -0.9771     4.0970    -3.0523 O.2     
  22 C22            1.2813     5.3944    -2.4729 C.3     
  23 Cl23           3.0596     5.0975    -2.4786 Cl      
  24 Cl24           0.9172     6.8819    -3.4245 Cl      
  25 H25           -1.3352     3.7321    -1.1823 H       
  26 H26           -1.9014     3.7552     1.2124 H       
  27 H27            3.3841     2.0869    -0.5003 H       
  28 H28            1.3116     1.9334    -2.6377 H       
  29 H29            0.5426    -0.1295    -0.3073 H       
  30 H30            0.6286    -2.5417    -0.7886 H       
  31 H31            4.8140    -2.2498    -1.5628 H       
  32 H32            0.9382     5.5265    -1.4467 H       
@<TRIPOS>BOND
   1    1   14 1
   2    2    3 1
   3    3    4 ar
   4    3    8 ar
   5    4    5 ar
   6    4    9 1
   7    5    6 ar
   8    5   10 1
   9    6    7 ar
  10    6   25 1
  11    7    8 ar
  12    7   26 1
  13    8   18 1
  14    9   11 1
  15    9   27 1
  16   10   19 am
  17   10   28 1
  18   11   12 ar
  19   11   16 ar
  20   12   13 ar
  21   12   29 1
  22   13   14 ar
  23   13   30 1
  24   14   15 ar
  25   15   16 ar
  26   15   31 1
  27   16   17 1
  28   19   20 2
  29   19   21 2
  30   19   22 1
  31   22   23 1
  32   22   24 1
  33   22   32 1

#	End of record

