#	Name: ASD03930043
#	Creating user name:	WinNT
#	Creation time:	15. 06. 2019 20:47

#	Modifying user name:	WinNT
#	Modification time:	15. 06. 2019 20:47

#	Program:	/corina/corina34_cracker 3.40 0067  02.08.2006

@<TRIPOS>MOLECULE
ASD03930043
  24   26    0    0    0
SMALL
NO_CHARGES


@<TRIPOS>ATOM
   1 C1            -0.0166     1.3743     0.0096 C.ar    
   2 C2             0.0021    -0.0041     0.0020 C.ar    
   3 C3             1.2010    -0.7086    -0.0021 C.ar    
   4 C4             2.3938    -0.0459     0.0008 C.ar    
   5 C5             2.3809     1.3654    -0.0148 C.ar    
   6 C6             1.1930     2.0786     0.0018 C.ar    
   7 C7             3.6954    -0.7947     0.0518 C.3     
   8 N8             4.7894    -0.0905    -0.6228 N.am    
   9 S9             5.1679     1.4652    -0.1383 S.o2    
  10 C10            3.5641     2.2400    -0.0694 C.2     
  11 S11            1.5456     3.8007     0.0061 S.3     
  12 C12            3.2773     3.5195    -0.0553 C.2     
  13 O13            5.6516     1.3831     1.1953 O.2     
  14 O14            5.8824     2.0744    -1.2049 O.2     
  15 C15            5.5387    -0.7380    -1.7024 C.3     
  16 F16           -1.1659    -0.6830    -0.0010 F       
  17 H17           -0.9565     1.9063     0.0170 H       
  18 H18            1.1880    -1.7885    -0.0074 H       
  19 H19            3.9695    -0.9508     1.0952 H       
  20 H20            3.5594    -1.7670    -0.4218 H       
  21 H21            4.0174     4.3057    -0.0780 H       
  22 H22            5.0590    -0.5230    -2.6573 H       
  23 H23            6.5600    -0.3572    -1.7150 H       
  24 H24            5.5546    -1.8154    -1.5383 H       
@<TRIPOS>BOND
   1    1    2 ar
   2    1    6 ar
   3    1   17 1
   4    2    3 ar
   5    2   16 1
   6    3    4 ar
   7    3   18 1
   8    4    5 ar
   9    4    7 1
  10    5    6 ar
  11    5   10 1
  12    6   11 1
  13    7    8 1
  14    7   19 1
  15    7   20 1
  16    8    9 am
  17    8   15 1
  18    9   10 1
  19    9   13 2
  20    9   14 2
  21   10   12 2
  22   11   12 1
  23   12   21 1
  24   15   22 1
  25   15   23 1
  26   15   24 1

#	End of record

