#	Name: ASD09116317
#	Creating user name:	WinNT
#	Creation time:	15. 06. 2019 21:21

#	Modifying user name:	WinNT
#	Modification time:	15. 06. 2019 21:21

#	Program:	/corina/corina34_cracker 3.40 0067  02.08.2006

@<TRIPOS>MOLECULE
ASD09116317
  76   81    0    0    0
SMALL
NO_CHARGES


@<TRIPOS>ATOM
   1 N1             1.2349    -0.2628     2.5947 N.2     
   2 N2             1.1634    -1.4006     1.7748 N.pl3   
   3 C3             2.3520     0.3555     2.2957 C.2     
   4 N4             2.9878    -0.3264     1.3357 N.2     
   5 C5             2.2861    -1.3899     1.0078 C.2     
   6 N6             2.6292    -2.3290     0.0544 N.pl3   
   7 C7             0.1450    -2.3518     1.7524 C.ar    
   8 N8             2.8048     1.5361     2.8839 N.pl3   
   9 C9             4.0674     2.0435     2.5534 C.ar    
  10 C10            4.2981     3.4127     2.5945 C.ar    
  11 C11            5.0900     1.1776     2.1902 C.ar    
  12 C12            6.3363     1.6773     1.8644 C.ar    
  13 C13            6.5667     3.0450     1.8995 C.ar    
  14 N14           -0.3925    -2.7472     0.5993 N.ar    
  15 C15           -1.3548    -3.6468     0.5691 C.ar    
  16 N16           -1.8413    -4.1915     1.6678 N.ar    
  17 C17           -1.3641    -3.8407     2.8568 C.ar    
  18 C18           -0.3283    -2.9127     2.9305 C.ar    
  19 N19            7.8309     3.5514     1.5689 N.3     
  20 C20            8.8626     3.0193     2.4683 C.3     
  21 C21           10.2001     3.7019     2.1729 C.3     
  22 C22           10.5870     3.4457     0.7137 C.3     
  23 C23            9.4739     3.9657    -0.2001 C.3     
  24 C24            8.1575     3.2755     0.1640 C.3     
  25 N25           11.8410     4.1471     0.4079 N.3     
  26 C26            5.5444     3.9131     2.2683 C.ar    
  27 F27            5.7680     5.2450     2.3022 F       
  28 C28           12.3053     3.8281    -0.9488 C.3     
  29 C29           11.6897     5.5975     0.5852 C.3     
  30 C30           12.8659     2.4047    -0.9745 C.3     
  31 C31           13.0720     6.2489     0.6616 C.3     
  32 C32           -1.9154    -4.3884     4.1165 C.ar    
  33 C33           -2.2616    -3.5047     5.1404 C.ar    
  34 C34           -2.1177    -2.0245     4.9157 C.3     
  35 C35           -0.6598    -1.5841     5.0185 C.3     
  36 C36            0.2552    -2.5554     4.2667 C.3     
  37 C37           -2.0869    -5.7571     4.2918 C.ar    
  38 C38           -2.5829    -6.2364     5.4888 C.ar    
  39 C39           -2.9048    -5.3589     6.5082 C.ar    
  40 C40           -2.7439    -3.9951     6.3347 C.ar    
  41 H41            3.4560    -2.2345    -0.4440 H       
  42 H42            2.0434    -3.0830    -0.1166 H       
  43 H43            2.2452     2.0058     3.5219 H       
  44 H44            3.5038     4.0860     2.8810 H       
  45 H45            4.9113     0.1128     2.1626 H       
  46 H46            7.1314     1.0029     1.5826 H       
  47 H47           -1.7587    -3.9478    -0.3862 H       
  48 H48            8.5772     3.2118     3.5025 H       
  49 H49            8.9610     1.9450     2.3128 H       
  50 H50           10.1063     4.7747     2.3415 H       
  51 H51           10.9690     3.2955     2.8300 H       
  52 H52           10.7190     2.3755     0.5544 H       
  53 H53            9.3687     5.0426    -0.0689 H       
  54 H54            9.7240     3.7478    -1.2384 H       
  55 H55            8.2592     2.1999     0.0193 H       
  56 H56            7.3600     3.6540    -0.4753 H       
  57 H57           11.4703     3.9024    -1.6454 H       
  58 H58           13.0855     4.5312    -1.2405 H       
  59 H59           11.1393     6.0113    -0.2598 H       
  60 H60           11.1431     5.7958     1.5071 H       
  61 H61           13.2005     2.1642    -1.9836 H       
  62 H62           13.7077     2.3332    -0.2858 H       
  63 H63           12.0887     1.7027    -0.6724 H       
  64 H64           13.6587     5.7655     1.4428 H       
  65 H65           13.5799     6.1369    -0.2963 H       
  66 H66           12.9620     7.3084     0.8928 H       
  67 H67           -2.4962    -1.7760     3.9242 H       
  68 H68           -2.7046    -1.4917     5.6639 H       
  69 H69           -0.5552    -0.5869     4.5910 H       
  70 H70           -0.3664    -1.5566     6.0678 H       
  71 H71            0.3795    -3.4618     4.8592 H       
  72 H72            1.2291    -2.0886     4.1190 H       
  73 H73           -1.8340    -6.4420     3.4960 H       
  74 H74           -2.7199    -7.2985     5.6286 H       
  75 H75           -3.2841    -5.7400     7.4449 H       
  76 H76           -2.9960    -3.3153     7.1352 H       
@<TRIPOS>BOND
   1    1    2 1
   2    1    3 2
   3    2    7 1
   4    2    5 1
   5    3    4 1
   6    3    8 1
   7    4    5 2
   8    5    6 1
   9    6   41 1
  10    6   42 1
  11    7   14 ar
  12    7   18 ar
  13    8    9 1
  14    8   43 1
  15    9   10 ar
  16    9   11 ar
  17   10   26 ar
  18   10   44 1
  19   11   12 ar
  20   11   45 1
  21   12   13 ar
  22   12   46 1
  23   13   26 ar
  24   13   19 1
  25   14   15 ar
  26   15   16 ar
  27   15   47 1
  28   16   17 ar
  29   17   18 ar
  30   17   32 1
  31   18   36 1
  32   19   20 1
  33   19   24 1
  34   20   21 1
  35   20   48 1
  36   20   49 1
  37   21   22 1
  38   21   50 1
  39   21   51 1
  40   22   23 1
  41   22   25 1
  42   22   52 1
  43   23   24 1
  44   23   53 1
  45   23   54 1
  46   24   55 1
  47   24   56 1
  48   25   28 1
  49   25   29 1
  50   26   27 1
  51   28   30 1
  52   28   57 1
  53   28   58 1
  54   29   31 1
  55   29   59 1
  56   29   60 1
  57   30   61 1
  58   30   62 1
  59   30   63 1
  60   31   64 1
  61   31   65 1
  62   31   66 1
  63   32   33 ar
  64   32   37 ar
  65   33   34 1
  66   33   40 ar
  67   34   35 1
  68   34   67 1
  69   34   68 1
  70   35   36 1
  71   35   69 1
  72   35   70 1
  73   36   71 1
  74   36   72 1
  75   37   38 ar
  76   37   73 1
  77   38   39 ar
  78   38   74 1
  79   39   40 ar
  80   39   75 1
  81   40   76 1

#	End of record

