#	Name: ASD01917034
#	Creating user name:	WinNT
#	Creation time:	15. 06. 2019 20:08

#	Modifying user name:	WinNT
#	Modification time:	15. 06. 2019 20:08

#	Program:	/corina/corina34_cracker 3.40 0067  02.08.2006

@<TRIPOS>MOLECULE
ASD01917034
  45   47    0    0    0
SMALL
NO_CHARGES


@<TRIPOS>ATOM
   1 C1            -0.0120     1.4234    -0.4327 C.ar    
   2 C2            -0.0211     0.0475    -0.2887 C.ar    
   3 C3             1.1610    -0.6394    -0.0774 C.ar    
   4 C4             2.3572     0.0448    -0.0095 C.ar    
   5 C5             2.3731     1.4321    -0.1544 C.ar    
   6 C6             1.1777     2.1191    -0.3668 C.ar    
   7 C7             3.6526     2.1721    -0.0822 C.2     
   8 N8             4.8528     1.6608    -0.2570 N.2     
   9 C9             5.7757     2.6192    -0.1194 C.2     
  10 N10            5.1726     3.7582     0.1459 N.2     
  11 N11            3.7936     3.4943     0.1694 N.pl3   
  12 C12            2.7202     4.4579     0.4254 C.3     
  13 C13            2.3034     5.1019    -0.8718 C.2     
  14 O14            1.3281     6.0241    -0.8802 O.3     
  15 O15            2.8472     4.7882    -1.9041 O.2     
  16 C16            0.9787     6.6022    -2.1655 C.3     
  17 C17            7.2419     2.4287    -0.2452 C.ar    
  18 C18            8.1028     3.5112    -0.0784 C.ar    
  19 C19            7.7601     1.1652    -0.5246 C.ar    
  20 C20            9.1272     0.9916    -0.6405 C.ar    
  21 C21            9.9831     2.0785    -0.4781 C.ar    
  22 C22            9.4667     3.3335    -0.1955 C.ar    
  23 O23           11.3270     1.9073    -0.5922 O.3     
  24 C24           12.1459     3.0647    -0.4137 C.3     
  25 O25            9.6359    -0.2400    -0.9126 O.3     
  26 C26            8.7000    -1.3089    -1.0662 C.3     
  27 H27           -0.9376     1.9537    -0.6016 H       
  28 H28           -0.9549    -0.4925    -0.3410 H       
  29 H29            1.1473    -1.7135     0.0351 H       
  30 H30            3.2794    -0.4926     0.1559 H       
  31 H31            1.1836     3.1931    -0.4801 H       
  32 H32            1.8667     3.9425     0.8659 H       
  33 H33            3.0765     5.2244     1.1136 H       
  34 H34            0.1792     7.3308    -2.0309 H       
  35 H35            1.8522     7.0959    -2.5914 H       
  36 H36            0.6423     5.8140    -2.8391 H       
  37 H37            7.7029     4.4899     0.1421 H       
  38 H38            7.0953     0.3234    -0.6499 H       
  39 H39           10.1326     4.1745    -0.0700 H       
  40 H40           11.8819     3.8150    -1.1589 H       
  41 H41           11.9863     3.4722     0.5846 H       
  42 H42           13.1942     2.7896    -0.5305 H       
  43 H43            8.0227    -1.0833    -1.8899 H       
  44 H44            9.2363    -2.2335    -1.2798 H       
  45 H45            8.1271    -1.4254    -0.1463 H       
@<TRIPOS>BOND
   1    1    2 ar
   2    1    6 ar
   3    1   27 1
   4    2    3 ar
   5    2   28 1
   6    3    4 ar
   7    3   29 1
   8    4    5 ar
   9    4   30 1
  10    5    6 ar
  11    5    7 1
  12    6   31 1
  13    7    8 2
  14    7   11 1
  15    8    9 1
  16    9   10 2
  17    9   17 1
  18   10   11 1
  19   11   12 1
  20   12   13 1
  21   12   32 1
  22   12   33 1
  23   13   14 1
  24   13   15 2
  25   14   16 1
  26   16   34 1
  27   16   35 1
  28   16   36 1
  29   17   18 ar
  30   17   19 ar
  31   18   22 ar
  32   18   37 1
  33   19   20 ar
  34   19   38 1
  35   20   21 ar
  36   20   25 1
  37   21   22 ar
  38   21   23 1
  39   22   39 1
  40   23   24 1
  41   24   40 1
  42   24   41 1
  43   24   42 1
  44   25   26 1
  45   26   43 1
  46   26   44 1
  47   26   45 1

#	End of record

