#	Name: ASD02030079
#	Creating user name:	WinNT
#	Creation time:	15. 06. 2019 20:14

#	Modifying user name:	WinNT
#	Modification time:	15. 06. 2019 20:14

#	Program:	/corina/corina34_cracker 3.40 0067  02.08.2006

@<TRIPOS>MOLECULE
ASD02030079
  95  100    0    0    0
SMALL
NO_CHARGES


@<TRIPOS>ATOM
   1 C1            -0.6010     0.2794     1.1746 C.ar    
   2 C2             0.0062     0.0048    -0.0428 C.ar    
   3 C3            -0.5914     0.3951    -1.2265 C.ar    
   4 C4            -1.8033     1.0651    -1.2078 C.ar    
   5 C5            -2.4257     1.3476     0.0186 C.ar    
   6 C6            -1.8162     0.9436     1.2128 C.ar    
   7 F7            -2.4062     1.2097     2.3987 F       
   8 O8            -2.3874     1.4479    -2.3715 O.3     
   9 C9            -3.7140     2.0599     0.0486 C.2     
  10 O10           -4.7552     1.4364    -0.0251 O.2     
  11 C11           -3.7415     3.5348     0.1685 C.ar    
  12 C12           -4.9547     4.2200     0.0786 C.ar    
  13 C13           -2.5550     4.2405     0.3773 C.ar    
  14 C14           -2.5807     5.6135     0.4899 C.ar    
  15 C15           -3.7932     6.2991     0.3946 C.ar    
  16 C16           -4.9803     5.5931     0.1902 C.ar    
  17 C17           -3.8209     7.7730     0.5159 C.2     
  18 O18           -4.9906     8.4344     0.4241 O.3     
  19 O19           -2.7890     8.3867     0.6984 O.2     
  20 C20           -4.9424     9.8799     0.5526 C.3     
  21 C21           -6.1520    10.5355    -0.1647 C.3     
  22 N22           -7.3535     9.7080    -0.0307 N.am    
  23 C23           -8.3389     9.7976    -0.9458 C.2     
  24 O24           -8.2307    10.5651    -1.8825 O.2     
  25 C25           -9.5494     8.9639    -0.8108 C.ar    
  26 C26          -10.5722     9.0552    -1.7585 C.ar    
  27 C27           -9.6731     8.0769     0.2619 C.ar    
  28 C28          -10.8037     7.3006     0.3841 C.ar    
  29 C29          -11.8212     7.3982    -0.5579 C.ar    
  30 C30          -11.6997     8.2754    -1.6292 C.ar    
  31 O31          -12.9340     6.6313    -0.4340 O.3     
  32 C32           -5.1409    10.3043     2.0230 C.3     
  33 N33           -5.9871    11.5066     2.0198 N.am    
  34 C34           -6.2999    11.8609     0.6234 C.3     
  35 C35           -1.6964     1.1271    -3.5804 C.3     
  36 O36           -1.8414    -0.2675    -3.8563 O.3     
  37 C37           -3.1322    -0.6312    -4.3500 C.3     
  38 C38           -6.4081    12.1737     3.1127 C.2     
  39 O39           -6.0532    11.7478     4.3396 O.3     
  40 O40           -7.1078    13.1596     2.9906 O.2     
  41 C41           -6.5429    12.5150     5.4709 C.3     
  42 C42           -6.0479    11.8934     6.7514 C.ar    
  43 C43           -4.8427    12.2972     7.2949 C.ar    
  44 C44           -6.8016    10.9235     7.3855 C.ar    
  45 C45           -6.3476    10.3534     8.5600 C.ar    
  46 C46           -5.1395    10.7528     9.1003 C.ar    
  47 C47           -4.3886    11.7270     8.4695 C.ar    
  48 C48          -13.9406     6.7819    -1.4370 C.3     
  49 C49          -15.0920     5.8574    -1.1359 C.ar    
  50 C50          -16.1401     6.2932    -0.3470 C.ar    
  51 C51          -17.1963     5.4452    -0.0707 C.ar    
  52 C52          -17.2046     4.1616    -0.5838 C.ar    
  53 C53          -16.1569     3.7262    -1.3735 C.ar    
  54 C54          -15.1028     4.5756    -1.6534 C.ar    
  55 O55           -0.0040    -0.1098     2.3334 O.3     
  56 C56            1.2447    -0.7956     2.2214 C.3     
  57 H57            0.9516    -0.5167    -0.0654 H       
  58 H58           -0.1114     0.1771    -2.1692 H       
  59 H59           -5.8730     3.6738    -0.0789 H       
  60 H60           -1.6170     3.7101     0.4510 H       
  61 H61           -1.6630     6.1593     0.6521 H       
  62 H62           -5.9182     6.1235     0.1162 H       
  63 H63           -4.0020    10.2692     0.1625 H       
  64 H64           -5.9272    10.7271    -1.2139 H       
  65 H65           -7.4398     9.0957     0.7166 H       
  66 H66          -10.4786     9.7368    -2.5910 H       
  67 H67           -8.8828     8.0002     0.9940 H       
  68 H68          -10.8999     6.6146     1.2126 H       
  69 H69          -12.4925     8.3485    -2.3590 H       
  70 H70           -5.6344     9.5051     2.5761 H       
  71 H71           -4.1762    10.5312     2.4768 H       
  72 H72           -5.5931    12.6034     0.2530 H       
  73 H73           -7.3204    12.2360     0.5467 H       
  74 H74           -2.1160     1.7058    -4.4033 H       
  75 H75           -0.6390     1.3674    -3.4693 H       
  76 H76           -3.1613    -1.7050    -4.5346 H       
  77 H77           -3.8905    -0.3686    -3.6124 H       
  78 H78           -3.3293    -0.0972    -5.2796 H       
  79 H79           -6.1786    13.5398     5.3999 H       
  80 H80           -7.6329    12.5156     5.4650 H       
  81 H81           -4.2557    13.0579     6.8017 H       
  82 H82           -7.7455    10.6115     6.9634 H       
  83 H83           -6.9368     9.5961     9.0558 H       
  84 H84           -4.7849    10.3076    10.0182 H       
  85 H85           -3.4448    12.0391     8.8916 H       
  86 H86          -14.2947     7.8127    -1.4446 H       
  87 H87          -13.5215     6.5345    -2.4124 H       
  88 H88          -16.1337     7.2960     0.0539 H       
  89 H89          -18.0148     5.7854     0.5463 H       
  90 H90          -18.0294     3.4988    -0.3674 H       
  91 H91          -16.1632     2.7232    -1.7742 H       
  92 H92          -14.2843     4.2354    -2.2704 H       
  93 H93            1.1072    -1.7084     1.6418 H       
  94 H94            1.9686    -0.1527     1.7206 H       
  95 H95            1.6107    -1.0486     3.2164 H       
@<TRIPOS>BOND
   1    1    2 ar
   2    1   55 1
   3    1    6 ar
   4    2    3 ar
   5    2   57 1
   6    3    4 ar
   7    3   58 1
   8    4    5 ar
   9    4    8 1
  10    5    6 ar
  11    5    9 1
  12    6    7 1
  13    8   35 1
  14    9   10 2
  15    9   11 1
  16   11   12 ar
  17   11   13 ar
  18   12   16 ar
  19   12   59 1
  20   13   14 ar
  21   13   60 1
  22   14   15 ar
  23   14   61 1
  24   15   16 ar
  25   15   17 1
  26   16   62 1
  27   17   18 1
  28   17   19 2
  29   18   20 1
  30   20   32 1
  31   20   21 1
  32   20   63 1
  33   21   22 1
  34   21   34 1
  35   21   64 1
  36   22   23 am
  37   22   65 1
  38   23   24 2
  39   23   25 1
  40   25   26 ar
  41   25   27 ar
  42   26   30 ar
  43   26   66 1
  44   27   28 ar
  45   27   67 1
  46   28   29 ar
  47   28   68 1
  48   29   30 ar
  49   29   31 1
  50   30   69 1
  51   31   48 1
  52   32   33 1
  53   32   70 1
  54   32   71 1
  55   33   34 1
  56   33   38 am
  57   34   72 1
  58   34   73 1
  59   35   36 1
  60   35   74 1
  61   35   75 1
  62   36   37 1
  63   37   76 1
  64   37   77 1
  65   37   78 1
  66   38   39 1
  67   38   40 2
  68   39   41 1
  69   41   42 1
  70   41   79 1
  71   41   80 1
  72   42   43 ar
  73   42   44 ar
  74   43   47 ar
  75   43   81 1
  76   44   45 ar
  77   44   82 1
  78   45   46 ar
  79   45   83 1
  80   46   47 ar
  81   46   84 1
  82   47   85 1
  83   48   49 1
  84   48   86 1
  85   48   87 1
  86   49   50 ar
  87   49   54 ar
  88   50   51 ar
  89   50   88 1
  90   51   52 ar
  91   51   89 1
  92   52   53 ar
  93   52   90 1
  94   53   54 ar
  95   53   91 1
  96   54   92 1
  97   55   56 1
  98   56   93 1
  99   56   94 1
 100   56   95 1

#	End of record

