#	Name: ASD01915178
#	Creating user name:	WinNT
#	Creation time:	15. 06. 2019 20:05

#	Modifying user name:	WinNT
#	Modification time:	15. 06. 2019 20:05

#	Program:	/corina/corina34_cracker 3.40 0067  02.08.2006

@<TRIPOS>MOLECULE
ASD01915178
  45   48    0    0    0
SMALL
NO_CHARGES


@<TRIPOS>ATOM
   1 C1            -0.0167     1.3782     0.0096 C.ar    
   2 C2             0.0021    -0.0041     0.0020 C.ar    
   3 C3            -1.1849    -0.7118     0.0091 C.ar    
   4 C4            -2.4106     1.3485     0.0439 C.ar    
   5 C5            -1.2224     2.0541     0.0305 C.ar    
   6 C6            -2.3932    -0.0359     0.0243 C.ar    
   7 F7            -3.5542    -0.7267     0.0312 F       
   8 S8             1.4975     2.2792     0.0000 S.o2    
   9 O9             1.2086     3.5555     0.5541 O.2     
  10 O10            2.4865     1.4075     0.5303 O.2     
  11 N11            1.9037     2.5384    -1.5844 N.am    
  12 C12            1.4409     3.7420    -2.2886 C.3     
  13 C13            0.7302     3.3166    -3.5773 C.3     
  14 C14            1.6644     2.4269    -4.4005 C.3     
  15 C15            2.0089     1.1683    -3.6009 C.3     
  16 C16            2.7387     1.5721    -2.3108 C.3     
  17 C17            0.3657     4.5401    -4.3781 C.2     
  18 N18           -0.8406     4.9067    -4.7328 N.2     
  19 C19           -0.6809     6.0537    -5.4311 C.2     
  20 N20            0.6005     6.3135    -5.4590 N.2     
  21 O21            1.2123     5.4581    -4.8548 O.3     
  22 C22           -1.7579     6.8653    -6.0502 C.ar    
  23 C23           -1.4427     8.0318    -6.7443 C.ar    
  24 C24           -2.4471     8.7834    -7.3183 C.ar    
  25 C25           -4.0853     7.2175    -6.5210 C.ar    
  26 C26           -3.0870     6.4600    -5.9440 C.ar    
  27 C27           -3.7679     8.3798    -7.2055 C.ar    
  28 F28           -4.7484     9.1187    -7.7691 F       
  29 H29            0.9447    -0.5311    -0.0098 H       
  30 H30           -1.1700    -1.7917     0.0024 H       
  31 H31           -3.3525     1.8767     0.0606 H       
  32 H32           -1.2357     3.1339     0.0458 H       
  33 H33            0.7471     4.2929    -1.6535 H       
  34 H34            2.2951     4.3731    -2.5336 H       
  35 H35           -0.1743     2.7618    -3.3278 H       
  36 H36            1.1702     2.1429    -5.3296 H       
  37 H37            2.5792     2.9739    -4.6286 H       
  38 H38            1.0924     0.6337    -3.3512 H       
  39 H39            2.6554     0.5242    -4.1969 H       
  40 H40            3.6982     2.0252    -2.5603 H       
  41 H41            2.8990     0.6904    -1.6903 H       
  42 H42           -0.4135     8.3472    -6.8324 H       
  43 H43           -2.2036     9.6878    -7.8561 H       
  44 H44           -5.1156     6.9042    -6.4392 H       
  45 H45           -3.3352     5.5539    -5.4114 H       
@<TRIPOS>BOND
   1    1    2 ar
   2    1    8 1
   3    1    5 ar
   4    2    3 ar
   5    2   29 1
   6    3    6 ar
   7    3   30 1
   8    4    5 ar
   9    4    6 ar
  10    4   31 1
  11    5   32 1
  12    6    7 1
  13    8    9 2
  14    8   10 2
  15    8   11 am
  16   11   12 1
  17   11   16 1
  18   12   13 1
  19   12   33 1
  20   12   34 1
  21   13   14 1
  22   13   17 1
  23   13   35 1
  24   14   15 1
  25   14   36 1
  26   14   37 1
  27   15   16 1
  28   15   38 1
  29   15   39 1
  30   16   40 1
  31   16   41 1
  32   17   18 2
  33   17   21 1
  34   18   19 1
  35   19   20 2
  36   19   22 1
  37   20   21 1
  38   22   23 ar
  39   22   26 ar
  40   23   24 ar
  41   23   42 1
  42   24   27 ar
  43   24   43 1
  44   25   26 ar
  45   25   27 ar
  46   25   44 1
  47   26   45 1
  48   27   28 1

#	End of record

