#	Name: ASD08178419
#	Creating user name:	WinNT
#	Creation time:	15. 06. 2019 21:18

#	Modifying user name:	WinNT
#	Modification time:	15. 06. 2019 21:18

#	Program:	/corina/corina34_cracker 3.40 0067  02.08.2006

@<TRIPOS>MOLECULE
ASD08178419
  65   68    0    0    0
SMALL
NO_CHARGES


@<TRIPOS>ATOM
   1 Cl1           -4.7620    -6.0068     3.5863 Cl      
   2 C2            -4.0286    -3.8138     2.1783 C.ar    
   3 C3            -4.1772    -2.5067     1.7536 C.ar    
   4 C4            -5.2431    -1.7504     2.2035 C.ar    
   5 C5            -6.1616    -2.3009     3.0782 C.ar    
   6 C6            -6.0144    -3.6076     3.5031 C.ar    
   7 C7            -4.9473    -4.3650     3.0534 C.ar    
   8 C8            -3.1765    -1.9060     0.8002 C.3     
   9 C9            -3.6233    -2.1519    -0.6178 C.2     
  10 N10           -2.8787    -1.7011    -1.6468 N.am    
  11 O11           -4.6529    -2.7556    -0.8331 O.2     
  12 C12           -3.2338    -2.0205    -2.9569 C.ar    
  13 C13           -2.5312    -1.4692    -4.0266 C.ar    
  14 N14           -4.2369    -2.8537    -3.1901 N.ar    
  15 N15           -4.5946    -3.1735    -4.3805 N.ar    
  16 C16           -3.9893    -2.6955    -5.4499 C.ar    
  17 C17           -2.9232    -1.8189    -5.3099 C.ar    
  18 C18           -4.4516    -3.1062    -6.8242 C.3     
  19 C19           -4.4407    -4.6324    -6.9311 C.3     
  20 C20           -4.9101    -5.0493    -8.3264 C.3     
  21 C21           -4.8991    -6.5756    -8.4333 C.3     
  22 C22           -5.3615    -6.9862    -9.8075 C.2     
  23 N23           -4.6077    -7.1638   -10.8458 N.2     
  24 N24           -5.1879    -7.5091   -11.9126 N.2     
  25 C25           -6.4780    -7.6552   -11.8773 C.2     
  26 S26           -7.0255    -7.3188   -10.2892 S.3     
  27 N27           -7.2812    -8.0284   -12.9496 N.am    
  28 C28           -6.7271    -8.2728   -14.1536 C.2     
  29 C29           -7.5974    -8.6772   -15.3155 C.3     
  30 O30           -5.5280    -8.1674   -14.3019 O.2     
  31 C31           -6.7392    -8.8895   -16.5359 C.ar    
  32 C32           -6.2083   -10.1375   -16.7976 C.ar    
  33 C33           -5.4186   -10.3324   -17.9217 C.ar    
  34 C34           -5.1644    -9.2728   -18.7801 C.ar    
  35 C35           -5.6978    -8.0263   -18.5139 C.ar    
  36 C36           -6.4887    -7.8360   -17.3960 C.ar    
  37 O37           -4.8947   -11.5592   -18.1811 O.3     
  38 C38           -4.0914   -11.6864   -19.3561 C.3     
  39 F39           -2.9959   -10.8208   -19.2680 F       
  40 F40           -3.6364   -13.0045   -19.4695 F       
  41 F41           -4.8556   -11.3584   -20.4812 F       
  42 H42           -3.1980    -4.4059     1.8235 H       
  43 H43           -5.3583    -0.7291     1.8720 H       
  44 H44           -6.9940    -1.7094     3.4297 H       
  45 H45           -6.7317    -4.0373     4.1866 H       
  46 H46           -3.1045    -0.8329     0.9776 H       
  47 H47           -2.2015    -2.3667     0.9591 H       
  48 H48           -2.0958    -1.1545    -1.4760 H       
  49 H49           -1.7075    -0.7906    -3.8614 H       
  50 H50           -2.4161    -1.4176    -6.1749 H       
  51 H51           -5.4635    -2.7374    -6.9924 H       
  52 H52           -3.7820    -2.6846    -7.5739 H       
  53 H53           -3.4288    -5.0012    -6.7629 H       
  54 H54           -5.1103    -5.0540    -6.1814 H       
  55 H55           -5.9219    -4.6806    -8.4946 H       
  56 H56           -4.2404    -4.6278    -9.0760 H       
  57 H57           -3.8873    -6.9443    -8.2651 H       
  58 H58           -5.5687    -6.9971    -7.6836 H       
  59 H59           -8.2402    -8.1127   -12.8309 H       
  60 H60           -8.1199    -9.6027   -15.0733 H       
  61 H61           -8.3251    -7.8907   -15.5154 H       
  62 H62           -6.4074   -10.9608   -16.1276 H       
  63 H63           -4.5498    -9.4219   -19.6555 H       
  64 H64           -5.5002    -7.2010   -19.1818 H       
  65 H65           -6.9047    -6.8610   -17.1897 H       
@<TRIPOS>BOND
   1    1    7 1
   2    2    3 ar
   3    2    7 ar
   4    2   42 1
   5    3    4 ar
   6    3    8 1
   7    4    5 ar
   8    4   43 1
   9    5    6 ar
  10    5   44 1
  11    6    7 ar
  12    6   45 1
  13    8    9 1
  14    8   46 1
  15    8   47 1
  16    9   10 am
  17    9   11 2
  18   10   12 1
  19   10   48 1
  20   12   13 ar
  21   12   14 ar
  22   13   17 ar
  23   13   49 1
  24   14   15 ar
  25   15   16 ar
  26   16   17 ar
  27   16   18 1
  28   17   50 1
  29   18   19 1
  30   18   51 1
  31   18   52 1
  32   19   20 1
  33   19   53 1
  34   19   54 1
  35   20   21 1
  36   20   55 1
  37   20   56 1
  38   21   22 1
  39   21   57 1
  40   21   58 1
  41   22   23 2
  42   22   26 1
  43   23   24 1
  44   24   25 2
  45   25   26 1
  46   25   27 1
  47   27   28 am
  48   27   59 1
  49   28   29 1
  50   28   30 2
  51   29   31 1
  52   29   60 1
  53   29   61 1
  54   31   32 ar
  55   31   36 ar
  56   32   33 ar
  57   32   62 1
  58   33   34 ar
  59   33   37 1
  60   34   35 ar
  61   34   63 1
  62   35   36 ar
  63   35   64 1
  64   36   65 1
  65   37   38 1
  66   38   39 1
  67   38   40 1
  68   38   41 1

#	End of record

