#	Name: ASD01180022
#	Creating user name:	WinNT
#	Creation time:	15. 06. 2019 19:06

#	Modifying user name:	WinNT
#	Modification time:	15. 06. 2019 19:06

#	Program:	/corina/corina34_cracker 3.40 0067  02.08.2006

@<TRIPOS>MOLECULE
ASD01180022
  33   34    0    0    0
SMALL
NO_CHARGES


@<TRIPOS>ATOM
   1 N1             0.0252     1.3809    -0.0886 N.ar    
   2 C2            -0.0403     0.0734    -0.0174 C.ar    
   3 C3             1.1317    -0.6986     0.0703 C.ar    
   4 N4             2.3165    -0.1182     0.0828 N.ar    
   5 C5             2.4014     1.2163     0.0109 C.ar    
   6 C6             3.6482     1.8631     0.0216 C.ar    
   7 C7             3.7052     3.2223    -0.0533 C.ar    
   8 C8             2.5397     3.9845    -0.1409 C.ar    
   9 C9             1.3142     3.3898    -0.1537 C.ar    
  10 C10            1.2176     1.9903    -0.0779 C.ar    
  11 S11           -1.6116    -0.7238    -0.0312 S.o2    
  12 O12           -2.5042     0.2695    -0.5168 O.2     
  13 O13           -1.3884    -1.9256    -0.7558 O.2     
  14 C14           -1.9507    -1.0861     1.7137 C.3     
  15 Cl15           2.6530     5.7143    -0.2341 Cl      
  16 Cl16           5.2488     4.0166    -0.0392 Cl      
  17 N17            1.0415    -2.0807     0.1448 N.pl3   
  18 C18            2.2576    -2.8969     0.1117 C.3     
  19 C19            1.9931    -4.2344     0.8060 C.3     
  20 C20            2.6637    -3.1483    -1.3419 C.3     
  21 H21            4.5580     1.2852     0.0893 H       
  22 H22            0.4202     3.9919    -0.2215 H       
  23 H23           -1.9715    -0.1553     2.2806 H       
  24 H24           -2.9154    -1.5859     1.8001 H       
  25 H25           -1.1687    -1.7347     2.1087 H       
  26 H26            0.1732    -2.5067     0.2187 H       
  27 H27            3.0615    -2.3723     0.6280 H       
  28 H28            1.1892    -4.7591     0.2897 H       
  29 H29            2.8979    -4.8418     0.7813 H       
  30 H30            1.7038    -4.0553     1.8415 H       
  31 H31            2.8521    -2.1955    -1.8365 H       
  32 H32            3.5684    -3.7557    -1.3665 H       
  33 H33            1.8597    -3.6730    -1.8582 H       
@<TRIPOS>BOND
   1    1    2 ar
   2    1   10 ar
   3    2    3 ar
   4    2   11 1
   5    3    4 ar
   6    3   17 1
   7    4    5 ar
   8    5    6 ar
   9    5   10 ar
  10    6    7 ar
  11    6   21 1
  12    7    8 ar
  13    7   16 1
  14    8    9 ar
  15    8   15 1
  16    9   10 ar
  17    9   22 1
  18   11   12 2
  19   11   13 2
  20   11   14 1
  21   14   23 1
  22   14   24 1
  23   14   25 1
  24   17   18 1
  25   17   26 1
  26   18   19 1
  27   18   20 1
  28   18   27 1
  29   19   28 1
  30   19   29 1
  31   19   30 1
  32   20   31 1
  33   20   32 1
  34   20   33 1

#	End of record

