#	Name: ASD01121007
#	Creating user name:	WinNT
#	Creation time:	15. 06. 2019 18:59

#	Modifying user name:	WinNT
#	Modification time:	15. 06. 2019 18:59

#	Program:	/corina/corina34_cracker 3.40 0067  02.08.2006

@<TRIPOS>MOLECULE
ASD01121007
  44   46    0    0    0
SMALL
NO_CHARGES


@<TRIPOS>ATOM
   1 C1             0.0050     1.3309    -0.1742 C.2     
   2 N2             0.0388    -0.0164    -0.1767 N.am    
   3 O3            -1.0517     1.9128    -0.3259 O.2     
   4 N4             1.1417     2.0332     0.0021 N.am    
   5 S5            -1.3579    -0.8793    -0.3933 S.o2    
   6 O6            -0.9880    -2.2513    -0.3801 O.2     
   7 O7            -2.3151    -0.3238     0.4981 O.2     
   8 C8            -1.9362    -0.5355    -2.0218 C.2     
   9 H9             0.8813    -0.4806    -0.0516 H       
  10 H10            1.9720     1.5712     0.1968 H       
  11 C11            1.1242     3.4170    -0.0950 C.2     
  12 C12            1.9057     4.0390    -1.0179 C.2     
  13 C13            1.8950     5.4362    -1.1237 C.2     
  14 C14            1.0972     6.1712    -0.2977 C.2     
  15 C15            0.2928     5.5146     0.6529 C.2     
  16 N16            0.3170     4.1458     0.7342 N.pl3   
  17 Br17           2.9833     6.2992    -2.4069 Br      
  18 N18           -0.5593     5.9641     1.5643 N.2     
  19 C19           -1.0784     4.9279     2.2297 C.2     
  20 C20           -0.5517     3.7885     1.7338 C.2     
  21 C21           -1.6099    -1.2260    -3.1154 C.2     
  22 C22           -2.1885    -0.7700    -4.2873 C.2     
  23 C23           -2.9846     0.2908    -4.1454 C.2     
  24 S24           -3.0380     0.7659    -2.4528 S.3     
  25 C25           -1.9375    -1.4223    -5.6225 C.3     
  26 C26           -3.7286     0.9744    -5.2635 C.3     
  27 C27           -5.1072     0.3312    -5.4268 C.3     
  28 O28           -5.8127     0.9795    -6.4870 O.3     
  29 C29           -7.1195     0.4517    -6.7236 C.3     
  30 H30            2.5367     3.4544    -1.6710 H       
  31 H31            1.0827     7.2485    -0.3718 H       
  32 H32           -1.8012     4.9915     3.0296 H       
  33 H33           -0.7727     2.7838     2.0625 H       
  34 H34           -0.9444    -2.0762    -3.0886 H       
  35 H35           -2.6797    -2.2025    -5.7909 H       
  36 H36           -2.0111    -0.6742    -6.4119 H       
  37 H37           -0.9401    -1.8618    -5.6303 H       
  38 H38           -3.8467     2.0321    -5.0279 H       
  39 H39           -3.1665     0.8694    -6.1915 H       
  40 H40           -4.9891    -0.7264    -5.6623 H       
  41 H41           -5.6694     0.4362    -4.4988 H       
  42 H42           -7.0431    -0.6035    -6.9860 H       
  43 H43           -7.7233     0.5592    -5.8225 H       
  44 H44           -7.5887     0.9968    -7.5426 H       
@<TRIPOS>BOND
   1    1    2 am
   2    1    4 am
   3    1    3 2
   4    2    5 am
   5    2    9 1
   6    4   10 1
   7    4   11 1
   8    5    7 2
   9    5    8 1
  10    5    6 2
  11    8   21 2
  12    8   24 1
  13   11   12 2
  14   11   16 1
  15   12   13 1
  16   12   30 1
  17   13   14 2
  18   13   17 1
  19   14   15 1
  20   14   31 1
  21   15   16 1
  22   15   18 2
  23   16   20 1
  24   18   19 1
  25   19   20 2
  26   19   32 1
  27   20   33 1
  28   21   22 1
  29   21   34 1
  30   22   23 2
  31   22   25 1
  32   23   24 1
  33   23   26 1
  34   25   35 1
  35   25   36 1
  36   25   37 1
  37   26   27 1
  38   26   38 1
  39   26   39 1
  40   27   28 1
  41   27   40 1
  42   27   41 1
  43   28   29 1
  44   29   42 1
  45   29   43 1
  46   29   44 1

#	End of record

