#	Name: ASD04590472
#	Creating user name:	WinNT
#	Creation time:	15. 06. 2019 20:50

#	Modifying user name:	WinNT
#	Modification time:	15. 06. 2019 20:50

#	Program:	/corina/corina34_cracker 3.40 0067  02.08.2006

@<TRIPOS>MOLECULE
ASD04590472
  52   56    0    0    0
SMALL
NO_CHARGES


@<TRIPOS>ATOM
   1 C1            -0.0167     1.3832     0.0096 C.ar    
   2 C2             0.0021    -0.0041     0.0020 C.ar    
   3 C3             2.4020     0.0223    -0.0208 C.ar    
   4 C4             2.3769     1.4283    -0.0130 C.ar    
   5 C5             1.1624     2.0986     0.0022 C.ar    
   6 N6             3.7040    -0.3552    -0.0358 N.2     
   7 C7             4.4709     0.7083    -0.0376 C.2     
   8 N8             3.6969     1.8375    -0.0239 N.pl3   
   9 C9             5.9482     0.6906    -0.0519 C.2     
  10 C10            6.7657    -0.4631    -0.0662 C.2     
  11 C11            8.0579    -0.0539    -0.0772 C.2     
  12 N12            8.0646     1.3050    -0.0701 N.pl3   
  13 N13            6.7360     1.7480    -0.0593 N.2     
  14 N14            6.3189    -1.7943    -0.0683 N.am    
  15 C15            7.2109    -2.8046    -0.0826 C.2     
  16 O16            8.4026    -2.5632    -0.0938 O.2     
  17 C17            1.1969    -0.6870    -0.0131 C.ar    
  18 C18           -1.2962    -0.7693     0.0109 C.3     
  19 N19           -1.7318    -1.0105    -1.3712 N.3     
  20 C20            6.7409    -4.2048    -0.0848 C.ar    
  21 C21            7.6630    -5.2536    -0.0997 C.ar    
  22 C22            5.3728    -4.4849    -0.0661 C.ar    
  23 C23            4.9397    -5.7934    -0.0677 C.ar    
  24 C24            5.8595    -6.8307    -0.0874 C.ar    
  25 C25            7.2190    -6.5584    -0.1011 C.ar    
  26 F26            5.4296    -8.1115    -0.0885 F       
  27 C27           -2.8604    -1.9518    -1.4111 C.3     
  28 C28           -0.6176    -1.4976    -2.1974 C.3     
  29 C29           -1.0996    -1.6784    -3.6392 C.3     
  30 O30           -2.2162    -2.5719    -3.6548 O.3     
  31 C31           -3.3198    -2.1280    -2.8609 C.3     
  32 H32           -0.9614     1.9066     0.0170 H       
  33 H33            1.1403     3.1784     0.0079 H       
  34 H34            4.0155     2.7537    -0.0218 H       
  35 H35            8.9276    -0.6941    -0.0893 H       
  36 H36            8.8529     1.8702    -0.0746 H       
  37 H37            5.3682    -1.9868    -0.0593 H       
  38 H38            1.2037    -1.7669    -0.0186 H       
  39 H39           -1.1522    -1.7232     0.5182 H       
  40 H40           -2.0559    -0.1898     0.5354 H       
  41 H41            8.7222    -5.0425    -0.1104 H       
  42 H42            4.6555    -3.6776    -0.0501 H       
  43 H43            3.8819    -6.0111    -0.0533 H       
  44 H44            7.9312    -7.3702    -0.1168 H       
  45 H45           -2.5454    -2.9149    -1.0095 H       
  46 H46           -3.6832    -1.5591    -0.8137 H       
  47 H47            0.1967    -0.7734    -2.1739 H       
  48 H48           -0.2668    -2.4535    -1.8083 H       
  49 H49           -1.4002    -0.7130    -4.0462 H       
  50 H50           -0.2928    -2.0935    -4.2433 H       
  51 H51           -4.1188    -2.8683    -2.9020 H       
  52 H52           -3.6850    -1.1756    -3.2453 H       
@<TRIPOS>BOND
   1    1    2 ar
   2    1    5 ar
   3    1   32 1
   4    2   17 ar
   5    2   18 1
   6    3    4 ar
   7    3    6 1
   8    3   17 ar
   9    4    5 ar
  10    4    8 1
  11    5   33 1
  12    6    7 2
  13    7    8 1
  14    7    9 1
  15    8   34 1
  16    9   10 1
  17    9   13 2
  18   10   11 2
  19   10   14 1
  20   11   12 1
  21   11   35 1
  22   12   13 1
  23   12   36 1
  24   14   15 am
  25   14   37 1
  26   15   16 2
  27   15   20 1
  28   17   38 1
  29   18   19 1
  30   18   39 1
  31   18   40 1
  32   19   27 1
  33   19   28 1
  34   20   21 ar
  35   20   22 ar
  36   21   25 ar
  37   21   41 1
  38   22   23 ar
  39   22   42 1
  40   23   24 ar
  41   23   43 1
  42   24   25 ar
  43   24   26 1
  44   25   44 1
  45   27   31 1
  46   27   45 1
  47   27   46 1
  48   28   29 1
  49   28   47 1
  50   28   48 1
  51   29   30 1
  52   29   49 1
  53   29   50 1
  54   30   31 1
  55   31   51 1
  56   31   52 1

#	End of record

