#	Name: ASD01813795
#	Creating user name:	WinNT
#	Creation time:	15. 06. 2019 19:31

#	Modifying user name:	WinNT
#	Modification time:	15. 06. 2019 19:31

#	Program:	/corina/corina34_cracker 3.40 0067  02.08.2006

@<TRIPOS>MOLECULE
ASD01813795
  61   65    0    0    0
SMALL
NO_CHARGES


@<TRIPOS>ATOM
   1 C1             0.1686     1.4743     0.4145 C.2     
   2 C2             0.2813     0.0897     0.5993 C.2     
   3 C3             1.4813    -0.5214     0.3808 C.2     
   4 C4             2.5840     0.2480    -0.0259 C.2     
   5 N5             2.4456     1.5985    -0.1983 N.am    
   6 C6             1.2413     2.1982     0.0227 C.2     
   7 C7             3.8184    -0.3776    -0.2511 C.2     
   8 C8             4.8960     0.3606    -0.6460 C.2     
   9 C9             4.7499     1.7491    -0.8228 C.2     
  10 C10            3.4958     2.3489    -0.5881 C.2     
  11 O11            3.3601     3.5513    -0.7392 O.2     
  12 C12            5.8910     2.5640    -1.2456 C.2     
  13 O13            5.7444     3.8945    -1.4133 O.3     
  14 O14            6.9710     2.0412    -1.4455 O.2     
  15 C15            3.9552    -1.8657    -0.0564 C.3     
  16 N16            3.7716    -2.5470    -1.3449 N.3     
  17 C17            4.0613    -3.9829    -1.2273 C.3     
  18 C18            3.9362    -4.6402    -2.6038 C.3     
  19 N19            2.5807    -4.4204    -3.1273 N.3     
  20 C20            2.2911    -2.9845    -3.2449 C.3     
  21 C21            2.4162    -2.3272    -1.8684 C.3     
  22 C22            2.4062    -5.0682    -4.3524 C.ar    
  23 C23            5.4836    -4.1750    -0.6973 C.3     
  24 C24            1.1892    -4.9845    -5.0170 C.ar    
  25 C25            1.0202    -5.6258    -6.2283 C.ar    
  26 C26            2.0607    -6.3507    -6.7798 C.ar    
  27 C27            3.2735    -6.4361    -6.1209 C.ar    
  28 C28            3.4510    -5.7929    -4.9117 C.ar    
  29 C29            5.7597    -5.6460    -0.5211 C.ar    
  30 C30            6.3976    -6.3543    -1.5223 C.ar    
  31 C31            6.6508    -7.7036    -1.3607 C.ar    
  32 C32            6.2664    -8.3446    -0.1978 C.ar    
  33 C33            5.6293    -7.6361     0.8037 C.ar    
  34 C34            5.3800    -6.2858     0.6439 C.ar    
  35 H35           -0.7794     1.9641     0.5814 H       
  36 H36           -0.5751    -0.4890     0.9126 H       
  37 H37            1.5827    -1.5876     0.5196 H       
  38 H38            1.1431     3.2647    -0.1164 H       
  39 H39            5.8499    -0.1150    -0.8204 H       
  40 H40            6.5259     4.3904    -1.6933 H       
  41 H41            4.9469    -2.0911     0.3358 H       
  42 H42            3.1987    -2.2110     0.6482 H       
  43 H43            3.3514    -4.4419    -0.5392 H       
  44 H44            4.6648    -4.2000    -3.2846 H       
  45 H45            4.1222    -5.7105    -2.5140 H       
  46 H46            3.0010    -2.5255    -3.9330 H       
  47 H47            1.2778    -2.8477    -3.6225 H       
  48 H48            1.6876    -2.7674    -1.1876 H       
  49 H49            2.2301    -1.2570    -1.9582 H       
  50 H50            6.1958    -3.7541    -1.4071 H       
  51 H51            5.5851    -3.6688     0.2627 H       
  52 H52            0.3761    -4.4188    -4.5867 H       
  53 H53            0.0742    -5.5614    -6.7454 H       
  54 H54            1.9258    -6.8516    -7.7271 H       
  55 H55            4.0841    -7.0031    -6.5543 H       
  56 H56            4.3986    -5.8597    -4.3978 H       
  57 H57            6.6979    -5.8535    -2.4308 H       
  58 H58            7.1486    -8.2571    -2.1432 H       
  59 H59            6.4636    -9.3989    -0.0719 H       
  60 H60            5.3287    -8.1370     1.7121 H       
  61 H61            4.8822    -5.7323     1.4264 H       
@<TRIPOS>BOND
   1    1    2 1
   2    1    6 2
   3    1   35 1
   4    2    3 2
   5    2   36 1
   6    3    4 1
   7    3   37 1
   8    4    5 1
   9    4    7 2
  10    5    6 1
  11    5   10 am
  12    6   38 1
  13    7    8 1
  14    7   15 1
  15    8    9 2
  16    8   39 1
  17    9   10 1
  18    9   12 1
  19   10   11 2
  20   12   13 1
  21   12   14 2
  22   13   40 1
  23   15   16 1
  24   15   41 1
  25   15   42 1
  26   16   17 1
  27   16   21 1
  28   17   18 1
  29   17   23 1
  30   17   43 1
  31   18   19 1
  32   18   44 1
  33   18   45 1
  34   19   20 1
  35   19   22 1
  36   20   21 1
  37   20   46 1
  38   20   47 1
  39   21   48 1
  40   21   49 1
  41   22   24 ar
  42   22   28 ar
  43   23   29 1
  44   23   50 1
  45   23   51 1
  46   24   25 ar
  47   24   52 1
  48   25   26 ar
  49   25   53 1
  50   26   27 ar
  51   26   54 1
  52   27   28 ar
  53   27   55 1
  54   28   56 1
  55   29   30 ar
  56   29   34 ar
  57   30   31 ar
  58   30   57 1
  59   31   32 ar
  60   31   58 1
  61   32   33 ar
  62   32   59 1
  63   33   34 ar
  64   33   60 1
  65   34   61 1

#	End of record

