#	Name: ASD03331511
#	Creating user name:	WinNT
#	Creation time:	15. 06. 2019 20:39

#	Modifying user name:	WinNT
#	Modification time:	15. 06. 2019 20:39

#	Program:	/corina/corina34_cracker 3.40 0067  02.08.2006

@<TRIPOS>MOLECULE
ASD03331511
  57   59    0    0    0
SMALL
NO_CHARGES


@<TRIPOS>ATOM
   1 C1            -0.0180     1.4753     0.0102 C.ar    
   2 C2             0.0021    -0.0041     0.0020 C.2     
   3 N3            -1.0260    -0.8169     0.3870 N.pl3   
   4 C4            -0.6067    -2.0956     0.2438 C.2     
   5 C5             0.6656    -2.0524    -0.2414 C.2     
   6 N6             1.0082    -0.7535    -0.3815 N.2     
   7 C7             1.5139    -3.2143    -0.5607 C.2     
   8 N8             2.7609    -3.0277    -1.0368 N.am    
   9 C9             1.1788     2.1922    -0.0008 C.ar    
  10 O10            1.0888    -4.3416    -0.3946 O.2     
  11 C11            3.6043    -4.1828    -1.3542 C.3     
  12 C12            1.1534     3.5717     0.0064 C.ar    
  13 C13           -0.0555     4.2440     0.0249 C.ar    
  14 C14           -1.2458     3.5390     0.0358 C.ar    
  15 C15           -1.2339     2.1593     0.0230 C.ar    
  16 C16           -2.3462    -0.3875     0.8571 C.3     
  17 C17           -2.9265    -1.4524     1.7904 C.3     
  18 C18           -3.7214    -2.4749     0.9795 C.3     
  19 C19           -2.8129    -3.1840    -0.0201 C.3     
  20 C20           -1.4094    -3.3256     0.5767 C.3     
  21 C21            3.2934    -4.6670    -2.7719 C.3     
  22 O22            6.0154    -4.6882    -1.5181 O.3     
  23 C23            5.0551    -3.7848    -1.2662 C.2     
  24 C24            7.3908    -4.2346    -1.4144 C.3     
  25 O25            5.3540    -2.6525    -0.9688 O.2     
  26 C26            3.5747    -3.5409    -3.7687 C.3     
  27 C27            4.1742    -5.8733    -3.1034 C.3     
  28 C28            1.8204    -5.0711    -2.8613 C.3     
  29 H29            3.1000    -2.1286    -1.1693 H       
  30 H30            2.1232     1.6684    -0.0145 H       
  31 H31            3.4039    -4.9851    -0.6441 H       
  32 H32            2.0792     4.1277    -0.0021 H       
  33 H33           -0.0702     5.3239     0.0312 H       
  34 H34           -2.1863     4.0696     0.0506 H       
  35 H35           -2.1637     1.6100     0.0312 H       
  36 H36           -2.2511     0.5551     1.3961 H       
  37 H37           -3.0098    -0.2523     0.0030 H       
  38 H38           -2.1142    -1.9573     2.3133 H       
  39 H39           -3.5841    -0.9769     2.5181 H       
  40 H40           -4.1574    -3.2107     1.6553 H       
  41 H41           -4.5210    -1.9655     0.4417 H       
  42 H42           -3.2159    -4.1727    -0.2396 H       
  43 H43           -2.7596    -2.6011    -0.9397 H       
  44 H44           -0.9212    -4.2045     0.1556 H       
  45 H45           -1.4825    -3.4313     1.6591 H       
  46 H46            8.0641    -5.0610    -1.6423 H       
  47 H47            7.5599    -3.4226    -2.1215 H       
  48 H48            7.5809    -3.8799    -0.4014 H       
  49 H49            4.6241    -3.2530    -3.7050 H       
  50 H50            3.3533    -3.8858    -4.7786 H       
  51 H51            2.9473    -2.6814    -3.5325 H       
  52 H52            3.9738    -6.6756    -2.3933 H       
  53 H53            3.9527    -6.2183    -4.1134 H       
  54 H54            5.2236    -5.5855    -3.0397 H       
  55 H55            1.1930    -4.2117    -2.6251 H       
  56 H56            1.5990    -5.4161    -3.8713 H       
  57 H57            1.6200    -5.8734    -2.1512 H       
@<TRIPOS>BOND
   1    1    2 1
   2    1    9 ar
   3    1   15 ar
   4    2    3 1
   5    2    6 2
   6    3    4 1
   7    3   16 1
   8    4    5 2
   9    4   20 1
  10    5    6 1
  11    5    7 1
  12    7    8 am
  13    7   10 2
  14    8   11 1
  15    8   29 1
  16    9   12 ar
  17    9   30 1
  18   11   21 1
  19   11   23 1
  20   11   31 1
  21   12   13 ar
  22   12   32 1
  23   13   14 ar
  24   13   33 1
  25   14   15 ar
  26   14   34 1
  27   15   35 1
  28   16   17 1
  29   16   36 1
  30   16   37 1
  31   17   18 1
  32   17   38 1
  33   17   39 1
  34   18   19 1
  35   18   40 1
  36   18   41 1
  37   19   20 1
  38   19   42 1
  39   19   43 1
  40   20   44 1
  41   20   45 1
  42   21   26 1
  43   21   27 1
  44   21   28 1
  45   22   23 1
  46   22   24 1
  47   23   25 2
  48   24   46 1
  49   24   47 1
  50   24   48 1
  51   26   49 1
  52   26   50 1
  53   26   51 1
  54   27   52 1
  55   27   53 1
  56   27   54 1
  57   28   55 1
  58   28   56 1
  59   28   57 1

#	End of record

