#	Name: ASD01120251
#	Creating user name:	WinNT
#	Creation time:	15. 06. 2019 18:59

#	Modifying user name:	WinNT
#	Modification time:	15. 06. 2019 18:59

#	Program:	/corina/corina34_cracker 3.40 0067  02.08.2006

@<TRIPOS>MOLECULE
ASD01120251
  53   54    0    0    0
SMALL
NO_CHARGES


@<TRIPOS>ATOM
   1 C1            -0.0167     1.3791     0.0096 C.ar    
   2 C2             0.0021    -0.0041     0.0020 C.ar    
   3 C3            -1.1857    -0.7112     0.0100 C.ar    
   4 C4            -2.3919    -0.0365     0.0257 C.ar    
   5 C5            -2.4113     1.3460     0.0333 C.ar    
   6 C6            -1.2245     2.0540     0.0306 C.ar    
   7 S7            -3.9495     2.2052     0.0532 S.o2    
   8 N8            -4.3617     2.4358     1.6404 N.am    
   9 C9            -3.6007     3.2226     2.4268 C.2     
  10 N10           -3.9362     3.4102     3.7186 N.am    
  11 O11           -3.6957     3.4949    -0.4869 O.2     
  12 O12           -4.9146     1.3128    -0.4865 O.2     
  13 O13           -2.6116     3.7631     1.9709 O.2     
  14 C14           -2.7638    -4.5328     7.6430 C.ar    
  15 C15           -1.9258    -4.8980     6.6048 C.ar    
  16 C16           -0.6643    -4.3415     6.5068 C.ar    
  17 C17           -0.2402    -3.4201     7.4458 C.ar    
  18 C18           -1.0773    -3.0546     8.4837 C.ar    
  19 C19           -2.3407    -3.6064     8.5798 C.ar    
  20 S20           -0.5358    -1.8800     9.6802 S.o2    
  21 N21           -0.9712    -0.3809     9.1275 N.am    
  22 C22           -2.2745    -0.0609     9.0031 C.2     
  23 N23           -2.6288     1.1592     8.5533 N.am    
  24 O24           -1.3062    -2.1154    10.8508 O.2     
  25 O25            0.8846    -1.9167     9.6642 O.2     
  26 O26           -3.1306    -0.8729     9.2967 O.2     
  27 Cl27          -4.3485    -5.2309     7.7665 Cl      
  28 Cl28           1.4746     2.2678     0.0002 Cl      
  29 C29           -4.0455     1.5070     8.4181 C.3     
  30 C30           -4.1712     2.9382     7.8920 C.3     
  31 O31           -3.6369     3.0079     6.5685 O.3     
  32 C32           -3.7059     4.3089     5.9815 C.3     
  33 C33           -3.1091     4.2655     4.5734 C.3     
  34 H34            0.9445    -0.5314    -0.0105 H       
  35 H35           -1.1712    -1.7911     0.0037 H       
  36 H36           -3.3197    -0.5894     0.0316 H       
  37 H37           -1.2398     3.1339     0.0365 H       
  38 H38           -5.1507     2.0046     2.0041 H       
  39 H39           -4.7253     2.9790     4.0823 H       
  40 H40           -2.2570    -5.6182     5.8713 H       
  41 H41           -0.0098    -4.6268     5.6964 H       
  42 H42            0.7457    -2.9858     7.3689 H       
  43 H43           -2.9945    -3.3209     9.3906 H       
  44 H44           -0.2882     0.2668     8.8933 H       
  45 H45           -1.9459     1.8069     8.3191 H       
  46 H46           -4.5233     0.8199     7.7198 H       
  47 H47           -4.5321     1.4334     9.3907 H       
  48 H48           -5.2218     3.2282     7.8754 H       
  49 H49           -3.6178     3.6147     8.5433 H       
  50 H50           -4.7469     4.6273     5.9253 H       
  51 H51           -3.1429     5.0138     6.5932 H       
  52 H52           -2.0973     3.8628     4.6199 H       
  53 H53           -3.0803     5.2735     4.1597 H       
@<TRIPOS>BOND
   1    1    2 ar
   2    1   28 1
   3    1    6 ar
   4    2    3 ar
   5    2   34 1
   6    3    4 ar
   7    3   35 1
   8    4    5 ar
   9    4   36 1
  10    5    6 ar
  11    5    7 1
  12    6   37 1
  13    7    8 am
  14    7   11 2
  15    7   12 2
  16    8    9 am
  17    8   38 1
  18    9   10 am
  19    9   13 2
  20   10   33 1
  21   10   39 1
  22   14   15 ar
  23   14   27 1
  24   14   19 ar
  25   15   16 ar
  26   15   40 1
  27   16   17 ar
  28   16   41 1
  29   17   18 ar
  30   17   42 1
  31   18   19 ar
  32   18   20 1
  33   19   43 1
  34   20   21 am
  35   20   24 2
  36   20   25 2
  37   21   22 am
  38   21   44 1
  39   22   23 am
  40   22   26 2
  41   23   29 1
  42   23   45 1
  43   29   30 1
  44   29   46 1
  45   29   47 1
  46   30   31 1
  47   30   48 1
  48   30   49 1
  49   31   32 1
  50   32   33 1
  51   32   50 1
  52   32   51 1
  53   33   52 1
  54   33   53 1

#	End of record

