#	Name: ASD00100139
#	Creating user name:	WinNT
#	Creation time:	15. 06. 2019 18:30

#	Modifying user name:	WinNT
#	Modification time:	15. 06. 2019 18:30

#	Program:	/corina/corina34_cracker 3.40 0067  02.08.2006

@<TRIPOS>MOLECULE
ASD00100139
  38   40    0    0    0
SMALL
NO_CHARGES


@<TRIPOS>ATOM
   1 N1            -0.1237     1.5342     0.3558 N.pl3   
   2 C2            -0.0176     0.1656     0.1768 C.2     
   3 N3             1.1019    -0.5005     0.0324 N.2     
   4 C4             0.8189    -1.8195    -0.1194 C.2     
   5 C5            -0.5302    -1.9648    -0.0654 C.2     
   6 N6            -1.0583    -0.7098     0.1278 N.pl3   
   7 C7             1.8048    -2.9053    -0.3102 C.2     
   8 C8             3.1415    -2.7425    -0.3613 C.2     
   9 C9             3.8577    -3.9085    -0.5470 C.2     
  10 C10            3.1190    -5.0161    -0.6473 C.2     
  11 S11            1.4145    -4.6100    -0.4980 S.3     
  12 C12            3.6641    -6.4059    -0.8529 C.3     
  13 C13           -2.4792    -0.3764     0.2542 C.3     
  14 C14           -3.0244     0.0184    -1.0942 C.ar    
  15 C15           -3.4580    -0.9571    -1.9805 C.ar    
  16 C16           -3.9593    -0.5905    -3.2209 C.ar    
  17 C17           -4.0256     0.7444    -3.5707 C.ar    
  18 C18           -3.5926     1.7144    -2.6860 C.ar    
  19 C19           -3.0981     1.3519    -1.4465 C.ar    
  20 O20           -3.3913    -2.2696    -1.6342 O.3     
  21 C21           -3.8553    -3.2188    -2.5963 C.3     
  22 H22            0.6767     2.0765     0.4342 H       
  23 H23           -0.9983     1.9513     0.3988 H       
  24 H24           -1.0821    -2.8890    -0.1532 H       
  25 H25            3.6151    -1.7767    -0.2650 H       
  26 H26            4.9359    -3.9234    -0.6070 H       
  27 H27            3.8506    -6.8700     0.1156 H       
  28 H28            2.9396    -7.0020    -1.4079 H       
  29 H29            4.5963    -6.3511    -1.4151 H       
  30 H30           -3.0242    -1.2437     0.6267 H       
  31 H31           -2.5972     0.4535     0.9509 H       
  32 H32           -4.2971    -1.3480    -3.9126 H       
  33 H33           -4.4158     1.0304    -4.5363 H       
  34 H34           -3.6446     2.7574    -2.9617 H       
  35 H35           -2.7649     2.1118    -0.7552 H       
  36 H36           -4.9052    -3.0275    -2.8184 H       
  37 H37           -3.2681    -3.1268    -3.5100 H       
  38 H38           -3.7467    -4.2262    -2.1945 H       
@<TRIPOS>BOND
   1    1    2 1
   2    1   22 1
   3    1   23 1
   4    2    3 2
   5    2    6 1
   6    3    4 1
   7    4    5 2
   8    4    7 1
   9    5    6 1
  10    5   24 1
  11    6   13 1
  12    7    8 2
  13    7   11 1
  14    8    9 1
  15    8   25 1
  16    9   10 2
  17    9   26 1
  18   10   11 1
  19   10   12 1
  20   12   27 1
  21   12   28 1
  22   12   29 1
  23   13   14 1
  24   13   30 1
  25   13   31 1
  26   14   15 ar
  27   14   19 ar
  28   15   16 ar
  29   15   20 1
  30   16   17 ar
  31   16   32 1
  32   17   18 ar
  33   17   33 1
  34   18   19 ar
  35   18   34 1
  36   19   35 1
  37   20   21 1
  38   21   36 1
  39   21   37 1
  40   21   38 1

#	End of record

