#	Name: ASD02588018
#	Creating user name:	WinNT
#	Creation time:	15. 06. 2019 20:25

#	Modifying user name:	WinNT
#	Modification time:	15. 06. 2019 20:25

#	Program:	/corina/corina34_cracker 3.40 0067  02.08.2006

@<TRIPOS>MOLECULE
ASD02588018
  83   88    0    0    0
SMALL
NO_CHARGES


@<TRIPOS>ATOM
   1 C1            -0.2667     1.6754    -0.3979 C.2     
   2 N2            -0.1627     0.3114    -0.4067 N.pl3   
   3 N3            -1.3366    -0.4499    -0.2991 N.2     
   4 C4            -2.5022     0.1497    -0.1930 C.2     
   5 N5            -2.6127     1.4811    -0.1836 N.2     
   6 C6            -1.5517     2.2600    -0.2752 C.2     
   7 C7             1.0194     2.2169    -0.5160 C.2     
   8 C8             1.9169     1.1271    -0.5977 C.2     
   9 C9             1.1529    -0.0372    -0.5271 C.2     
  10 N10           -1.6933     3.6337    -0.2626 N.pl3   
  11 C11            1.3695     3.6449    -0.5496 C.2     
  12 C12            3.3869     1.2071    -0.7325 C.2     
  13 C13           -3.7296    -0.6759    -0.0810 C.2     
  14 N14            3.9505     1.2430    -1.9562 N.am    
  15 O15            4.0873     1.2406     0.2604 O.2     
  16 N16            1.4236     4.2980    -1.7273 N.am    
  17 O17            1.6101     4.2367     0.4857 O.2     
  18 O18           -4.8048    -0.1432     0.1097 O.2     
  19 N19           -3.6520    -2.0169    -0.1909 N.am    
  20 C20            5.7771     1.3487    -3.5504 C.ar    
  21 C21            1.7625     6.2067    -3.1872 C.ar    
  22 C22           -4.4655    -4.2977    -0.0308 C.ar    
  23 C23            5.8821     2.5562    -4.2151 C.ar    
  24 C24            6.2269     2.5808    -5.5535 C.ar    
  25 C25            6.4671     1.3978    -6.2272 C.ar    
  26 C26            6.3630     0.1903    -5.5623 C.ar    
  27 C27            6.0168     0.1657    -4.2242 C.ar    
  28 C28            0.6004     6.7159    -3.7359 C.ar    
  29 C29            0.5929     7.1672    -5.0425 C.ar    
  30 C30            1.7476     7.1096    -5.8002 C.ar    
  31 C31            2.9100     6.6012    -5.2512 C.ar    
  32 C32            2.9171     6.1487    -3.9451 C.ar    
  33 C33           -4.1780    -4.9861     1.1330 C.ar    
  34 C34           -3.8367    -6.3245     1.0779 C.ar    
  35 C35           -3.7833    -6.9746    -0.1408 C.ar    
  36 C36           -4.0717    -6.2865    -1.3045 C.ar    
  37 C37           -4.4116    -4.9477    -1.2496 C.ar    
  38 C38            5.4072     1.3222    -2.0897 C.3     
  39 C39            1.7723     5.7205    -1.7608 C.3     
  40 C40           -4.8436    -2.8401     0.0297 C.3     
  41 C41            1.6744    -1.4071    -0.5737 C.2     
  42 O42            0.9227    -2.3496    -0.4150 O.2     
  43 O43            2.9880    -1.6215    -0.7926 O.3     
  44 C44            3.4548    -2.9939    -0.7092 C.3     
  45 C45            4.9543    -3.0244    -0.8564 C.ar    
  46 C46            5.7592    -3.0263     0.2674 C.ar    
  47 C47            7.1347    -3.0542     0.1323 C.ar    
  48 C48            7.7051    -3.0806    -1.1266 C.ar    
  49 C49            6.9002    -3.0796    -2.2504 C.ar    
  50 C50            5.5246    -3.0561    -2.1152 C.ar    
  51 H51           -2.5755     4.0296    -0.1862 H       
  52 H52           -0.9105     4.2025    -0.3302 H       
  53 H53            3.3915     1.2163    -2.7485 H       
  54 H54            1.2317     3.8261    -2.5528 H       
  55 H55           -2.8072    -2.4371    -0.4161 H       
  56 H56            5.6944     3.4804    -3.6887 H       
  57 H57            6.3083     3.5241    -6.0729 H       
  58 H58            6.7358     1.4170    -7.2730 H       
  59 H59            6.5499    -0.7339    -6.0888 H       
  60 H60            5.9350    -0.7777    -3.7049 H       
  61 H61           -0.3018     6.7609    -3.1438 H       
  62 H62           -0.3152     7.5644    -5.4714 H       
  63 H63            1.7416     7.4615    -6.8213 H       
  64 H64            3.8119     6.5556    -5.8435 H       
  65 H65            3.8251     5.7512    -3.5163 H       
  66 H66           -4.2197    -4.4781     2.0851 H       
  67 H67           -3.6114    -6.8621     1.9871 H       
  68 H68           -3.5160    -8.0201    -0.1839 H       
  69 H69           -4.0296    -6.7943    -2.2567 H       
  70 H70           -4.6373    -4.4101    -2.1587 H       
  71 H71            5.7674     2.2309    -1.6072 H       
  72 H72            5.8634     0.4535    -1.6151 H       
  73 H73            1.0449     6.2866    -1.1790 H       
  74 H74            2.7661     5.8611    -1.3358 H       
  75 H75           -5.2648    -2.6144     1.0094 H       
  76 H76           -5.5824    -2.6241    -0.7420 H       
  77 H77            3.1760    -3.4144     0.2570 H       
  78 H78            2.9994    -3.5817    -1.5062 H       
  79 H79            5.3135    -3.0057     1.2509 H       
  80 H80            7.7636    -3.0550     1.0103 H       
  81 H81            8.7798    -3.1017    -1.2321 H       
  82 H82            7.3459    -3.0999    -3.2339 H       
  83 H83            4.8957    -3.0591    -2.9932 H       
@<TRIPOS>BOND
   1    1    2 1
   2    1    7 2
   3    1    6 1
   4    2    3 1
   5    2    9 1
   6    3    4 2
   7    4    5 1
   8    4   13 1
   9    5    6 2
  10    6   10 1
  11    7    8 1
  12    7   11 1
  13    8    9 2
  14    8   12 1
  15    9   41 1
  16   10   51 1
  17   10   52 1
  18   11   16 am
  19   11   17 2
  20   12   14 am
  21   12   15 2
  22   13   18 2
  23   13   19 am
  24   14   38 1
  25   14   53 1
  26   16   39 1
  27   16   54 1
  28   19   40 1
  29   19   55 1
  30   20   23 ar
  31   20   27 ar
  32   20   38 1
  33   21   28 ar
  34   21   32 ar
  35   21   39 1
  36   22   33 ar
  37   22   37 ar
  38   22   40 1
  39   23   24 ar
  40   23   56 1
  41   24   25 ar
  42   24   57 1
  43   25   26 ar
  44   25   58 1
  45   26   27 ar
  46   26   59 1
  47   27   60 1
  48   28   29 ar
  49   28   61 1
  50   29   30 ar
  51   29   62 1
  52   30   31 ar
  53   30   63 1
  54   31   32 ar
  55   31   64 1
  56   32   65 1
  57   33   34 ar
  58   33   66 1
  59   34   35 ar
  60   34   67 1
  61   35   36 ar
  62   35   68 1
  63   36   37 ar
  64   36   69 1
  65   37   70 1
  66   38   71 1
  67   38   72 1
  68   39   73 1
  69   39   74 1
  70   40   75 1
  71   40   76 1
  72   41   42 2
  73   41   43 1
  74   43   44 1
  75   44   45 1
  76   44   77 1
  77   44   78 1
  78   45   46 ar
  79   45   50 ar
  80   46   47 ar
  81   46   79 1
  82   47   48 ar
  83   47   80 1
  84   48   49 ar
  85   48   81 1
  86   49   50 ar
  87   49   82 1
  88   50   83 1

#	End of record

