#	Name: ASD00170487
#	Creating user name:	WinNT
#	Creation time:	15. 06. 2019 18:32

#	Modifying user name:	WinNT
#	Modification time:	15. 06. 2019 18:32

#	Program:	/corina/corina34_cracker 3.40 0067  02.08.2006

@<TRIPOS>MOLECULE
ASD00170487
  39   42    0    0    0
SMALL
NO_CHARGES


@<TRIPOS>ATOM
   1 C1            -0.0122     1.3976    -0.0048 C.ar    
   2 C2            -0.0025     0.0038     0.0035 C.ar    
   3 C3             1.2171    -0.6850     0.0033 C.ar    
   4 C4             2.4015     0.0238    -0.0051 C.ar    
   5 C5             2.3906     1.4142    -0.0134 C.ar    
   6 C6             1.1734     2.0993    -0.0131 C.ar    
   7 C7             3.8480    -0.4004    -0.0076 C.3     
   8 C8             4.6486     0.8836    -0.0181 C.2     
   9 C9             3.7961     1.9263    -0.0214 C.2     
  10 S10            6.3046     1.4882    -0.0271 S.3     
  11 C11            5.7027     3.1410    -0.0347 C.2     
  12 N12            4.4128     3.1289    -0.0311 N.2     
  13 N13            6.4919     4.2796    -0.0439 N.pl3   
  14 O14            1.2342    -2.0435     0.0119 O.3     
  15 C15            1.3574    -2.6828     1.2839 C.3     
  16 C16           -1.2801    -0.7479     0.0130 C.ar    
  17 C17           -2.2228    -0.5109     1.0127 C.ar    
  18 C18           -3.4106    -1.2116     1.0184 C.ar    
  19 C19           -3.6680    -2.1523     0.0304 C.ar    
  20 C20           -2.7316    -2.3907    -0.9664 C.ar    
  21 C21           -1.5443    -1.6893    -0.9811 C.ar    
  22 O22           -4.8391    -2.8417     0.0394 O.3     
  23 C23           -5.0390    -3.7945    -1.0067 C.3     
  24 H24           -0.9523     1.9292    -0.0092 H       
  25 H25            1.1616     3.1792    -0.0196 H       
  26 H26            4.0730    -0.9773     0.8894 H       
  27 H27            4.0667    -0.9881    -0.8992 H       
  28 H28            7.4586     4.1997    -0.0466 H       
  29 H29            6.0778     5.1568    -0.0476 H       
  30 H30            1.2691    -3.7620     1.1583 H       
  31 H31            2.3291    -2.4458     1.7171 H       
  32 H32            0.5680    -2.3284     1.9467 H       
  33 H33           -2.0228     0.2203     1.7820 H       
  34 H34           -4.1411    -1.0285     1.7924 H       
  35 H35           -2.9348    -3.1234    -1.7333 H       
  36 H36           -0.8162    -1.8752    -1.7568 H       
  37 H37           -4.2542    -4.5498    -0.9651 H       
  38 H38           -6.0105    -4.2728    -0.8818 H       
  39 H39           -5.0048    -3.2878    -1.9711 H       
@<TRIPOS>BOND
   1    1    2 ar
   2    1    6 ar
   3    1   24 1
   4    2    3 ar
   5    2   16 1
   6    3    4 ar
   7    3   14 1
   8    4    5 ar
   9    4    7 1
  10    5    6 ar
  11    5    9 1
  12    6   25 1
  13    7    8 1
  14    7   26 1
  15    7   27 1
  16    8    9 2
  17    8   10 1
  18    9   12 1
  19   10   11 1
  20   11   12 2
  21   11   13 1
  22   13   28 1
  23   13   29 1
  24   14   15 1
  25   15   30 1
  26   15   31 1
  27   15   32 1
  28   16   17 ar
  29   16   21 ar
  30   17   18 ar
  31   17   33 1
  32   18   19 ar
  33   18   34 1
  34   19   20 ar
  35   19   22 1
  36   20   21 ar
  37   20   35 1
  38   21   36 1
  39   22   23 1
  40   23   37 1
  41   23   38 1
  42   23   39 1

#	End of record

