#	Name: ASD01914137
#	Creating user name:	WinNT
#	Creation time:	15. 06. 2019 20:02

#	Modifying user name:	WinNT
#	Modification time:	15. 06. 2019 20:02

#	Program:	/corina/corina34_cracker 3.40 0067  02.08.2006

@<TRIPOS>MOLECULE
ASD01914137
  46   49    0    0    0
SMALL
NO_CHARGES


@<TRIPOS>ATOM
   1 C1             0.9504     1.6855     0.2329 C.ar    
   2 C2             0.8037     0.2133     0.2094 C.2     
   3 N3             1.7769    -0.6748     0.1236 N.2     
   4 C4             1.1731    -1.8731     0.1380 C.2     
   5 N5            -0.1077    -1.6674     0.2296 N.2     
   6 O6            -0.3439    -0.4787     0.2772 O.3     
   7 C7             1.8556    -3.2145     0.0611 C.3     
   8 C8             1.5312    -4.0256     1.3177 C.3     
   9 C9             2.2503    -5.3750     1.2557 C.3     
  10 C10            1.7560    -6.1569     0.0346 C.3     
  11 N11            1.9316    -5.3241    -1.1630 N.am    
  12 C12            1.3569    -3.9719    -1.1736 C.3     
  13 C13            0.2749    -6.4984     0.2093 C.3     
  14 C14            2.6069    -5.7915    -2.2316 C.2     
  15 C15            2.6649    -4.9950    -3.4758 C.ar    
  16 C16            1.5240    -4.3408    -3.9428 C.ar    
  17 C17            1.5842    -3.5985    -5.1044 C.ar    
  18 C18            2.7720    -3.5015    -5.8063 C.ar    
  19 C19            3.9081    -4.1484    -5.3492 C.ar    
  20 C20            3.8623    -4.8895    -4.1852 C.ar    
  21 O21            3.1684    -6.8680    -2.1724 O.2     
  22 N22            2.1609     2.2278     0.1634 N.ar    
  23 C23            2.3340     3.5342     0.1810 C.ar    
  24 C24            1.2491     4.3945     0.2737 C.ar    
  25 C25           -0.0308     3.8682     0.3482 C.ar    
  26 C26           -0.1830     2.4914     0.3219 C.ar    
  27 F27            3.5837     4.0424     0.1081 F       
  28 Cl28           5.3941    -4.0216    -6.2377 Cl      
  29 H29            2.9337    -3.0706    -0.0108 H       
  30 H30            1.8630    -3.4774     2.1994 H       
  31 H31            0.4552    -4.1898     1.3761 H       
  32 H32            3.3247    -5.2112     1.1723 H       
  33 H33            2.0376    -5.9426     2.1616 H       
  34 H34            2.3348    -7.0746    -0.0705 H       
  35 H35            0.2691    -4.0370    -1.1477 H       
  36 H36            1.6722    -3.4479    -2.0758 H       
  37 H37           -0.3010    -5.5782     0.3077 H       
  38 H38           -0.0748    -7.0546    -0.6605 H       
  39 H39            0.1452    -7.1056     1.1051 H       
  40 H40            0.5955    -4.4158    -3.3962 H       
  41 H41            0.7016    -3.0923    -5.4665 H       
  42 H42            2.8137    -2.9192    -6.7149 H       
  43 H43            4.7487    -5.3933    -3.8291 H       
  44 H44            1.4008     5.4637     0.2881 H       
  45 H45           -0.8909     4.5172     0.4214 H       
  46 H46           -1.1664     2.0484     0.3778 H       
@<TRIPOS>BOND
   1    1    2 1
   2    1   22 ar
   3    1   26 ar
   4    2    3 2
   5    2    6 1
   6    3    4 1
   7    4    5 2
   8    4    7 1
   9    5    6 1
  10    7    8 1
  11    7   12 1
  12    7   29 1
  13    8    9 1
  14    8   30 1
  15    8   31 1
  16    9   10 1
  17    9   32 1
  18    9   33 1
  19   10   11 1
  20   10   13 1
  21   10   34 1
  22   11   12 1
  23   11   14 am
  24   12   35 1
  25   12   36 1
  26   13   37 1
  27   13   38 1
  28   13   39 1
  29   14   15 1
  30   14   21 2
  31   15   16 ar
  32   15   20 ar
  33   16   17 ar
  34   16   40 1
  35   17   18 ar
  36   17   41 1
  37   18   19 ar
  38   18   42 1
  39   19   20 ar
  40   19   28 1
  41   20   43 1
  42   22   23 ar
  43   23   24 ar
  44   23   27 1
  45   24   25 ar
  46   24   44 1
  47   25   26 ar
  48   25   45 1
  49   26   46 1

#	End of record

