#	Name: ASD01010020
#	Creating user name:	WinNT
#	Creation time:	15. 06. 2019 18:56

#	Modifying user name:	WinNT
#	Modification time:	15. 06. 2019 18:56

#	Program:	/corina/corina34_cracker 3.40 0067  02.08.2006

@<TRIPOS>MOLECULE
ASD01010020
  20   20    0    0    0
SMALL
NO_CHARGES


@<TRIPOS>ATOM
   1 C1            -0.0179     1.4698     0.0101 C.2     
   2 C2             0.0021    -0.0041     0.0020 C.ar    
   3 C3             1.2235    -0.6928    -0.0133 C.ar    
   4 O4             2.3931    -0.0059    -0.0208 O.3     
   5 C5             1.2301    -2.0795    -0.0204 C.ar    
   6 C6             0.0386    -2.7775    -0.0123 C.ar    
   7 C7            -1.1701    -2.1010     0.0025 C.ar    
   8 C8            -1.1958    -0.7233     0.0154 C.ar    
   9 O9             1.0260     2.0916     0.0035 O.2     
  10 O10           -1.1939     2.1276     0.0193 O.3     
  11 S11           -2.6817    -3.0064     0.0115 S.o2    
  12 O12           -3.6730    -2.1376    -0.5192 O.2     
  13 O13           -2.3888    -4.2818    -0.5425 O.2     
  14 O14           -3.0548    -3.2457     1.4675 O.3     
  15 H15            2.7406     0.1886     0.8603 H       
  16 H16            2.1683    -2.6142    -0.0326 H       
  17 H17            0.0492    -3.8575    -0.0178 H       
  18 H18           -2.1405    -0.2001     0.0315 H       
  19 H19           -1.1564     3.0939     0.0244 H       
  20 H20           -3.8775    -3.7398     1.5866 H       
@<TRIPOS>BOND
   1    1    2 1
   2    1    9 2
   3    1   10 1
   4    2    3 ar
   5    2    8 ar
   6    3    4 1
   7    3    5 ar
   8    4   15 1
   9    5    6 ar
  10    5   16 1
  11    6    7 ar
  12    6   17 1
  13    7    8 ar
  14    7   11 1
  15    8   18 1
  16   10   19 1
  17   11   12 2
  18   11   13 2
  19   11   14 1
  20   14   20 1

#	End of record

