#	Name: ASD01420155
#	Creating user name:	WinNT
#	Creation time:	15. 06. 2019 19:20

#	Modifying user name:	WinNT
#	Modification time:	15. 06. 2019 19:20

#	Program:	/corina/corina34_cracker 3.40 0067  02.08.2006

@<TRIPOS>MOLECULE
ASD01420155
  43   45    0    0    0
SMALL
NO_CHARGES


@<TRIPOS>ATOM
   1 C1             1.9338     0.3832     1.0208 C.ar    
   2 C2             1.0739    -0.5313     0.4498 C.ar    
   3 C3             0.3951    -0.2293    -0.7240 C.ar    
   4 C4             0.5745     0.9945    -1.3346 C.ar    
   5 C5             2.1286     1.6209     0.4230 C.ar    
   6 O6             2.8871     2.6906     0.7410 O.3     
   7 C7             1.4420     1.9277    -0.7654 C.ar    
   8 C8             1.8633     3.2832    -1.1273 C.2     
   9 C9             2.7355     3.6743    -0.1674 C.2     
  10 C10            1.4164     4.0813    -2.3249 C.3     
  11 C11            3.4188     4.9838    -0.1234 C.ar    
  12 C12            2.6920     6.1596    -0.3204 C.ar    
  13 C13            3.3330     7.3791    -0.2780 C.ar    
  14 C14            4.6998     7.4393    -0.0398 C.ar    
  15 C15            5.4263     6.2722     0.1567 C.ar    
  16 C16            4.7919     5.0490     0.1211 C.ar    
  17 O17            5.3281     8.6433     0.0008 O.3     
  18 F18           -0.4432    -1.1375    -1.2696 F       
  19 C19            6.7351     8.6329     0.2502 C.3     
  20 C20            7.2621    10.0692     0.2593 C.3     
  21 N21            6.6655    10.8027     1.3835 N.3     
  22 C22            7.2876    10.4128     2.6559 C.3     
  23 C23            6.7592    12.2537     1.1745 C.3     
  24 H24            2.4526     0.1380     1.9358 H       
  25 H25            0.9268    -1.4924     0.9200 H       
  26 H26            0.0472     1.2288    -2.2476 H       
  27 H27            0.4892     4.6032    -2.0883 H       
  28 H28            2.1861     4.8079    -2.5851 H       
  29 H29            1.2507     3.4101    -3.1676 H       
  30 H30            1.6291     6.1136    -0.5060 H       
  31 H31            2.7716     8.2890    -0.4306 H       
  32 H32            6.4892     6.3233     0.3413 H       
  33 H33            5.3568     4.1420     0.2781 H       
  34 H34            6.9292     8.1685     1.2171 H       
  35 H35            7.2387     8.0659    -0.5328 H       
  36 H36            8.3467    10.0576     0.3677 H       
  37 H37            6.9958    10.5598    -0.6769 H       
  38 H38            8.3544    10.6336     2.6214 H       
  39 H39            6.8273    10.9707     3.4714 H       
  40 H40            7.1427     9.3449     2.8191 H       
  41 H41            6.1605    12.5354     0.3082 H       
  42 H42            6.3870    12.7728     2.0577 H       
  43 H43            7.7995    12.5295     1.0024 H       
@<TRIPOS>BOND
   1    1    2 ar
   2    1    5 ar
   3    1   24 1
   4    2    3 ar
   5    2   25 1
   6    3    4 ar
   7    3   18 1
   8    4    7 ar
   9    4   26 1
  10    5    7 ar
  11    5    6 1
  12    6    9 1
  13    7    8 1
  14    8    9 2
  15    8   10 1
  16    9   11 1
  17   10   27 1
  18   10   28 1
  19   10   29 1
  20   11   12 ar
  21   11   16 ar
  22   12   13 ar
  23   12   30 1
  24   13   14 ar
  25   13   31 1
  26   14   15 ar
  27   14   17 1
  28   15   16 ar
  29   15   32 1
  30   16   33 1
  31   17   19 1
  32   19   20 1
  33   19   34 1
  34   19   35 1
  35   20   21 1
  36   20   36 1
  37   20   37 1
  38   21   22 1
  39   21   23 1
  40   22   38 1
  41   22   39 1
  42   22   40 1
  43   23   41 1
  44   23   42 1
  45   23   43 1

#	End of record

