#	Name: ASD01900263
#	Creating user name:	WinNT
#	Creation time:	15. 06. 2019 19:51

#	Modifying user name:	WinNT
#	Modification time:	15. 06. 2019 19:51

#	Program:	/corina/corina34_cracker 3.40 0067  02.08.2006

@<TRIPOS>MOLECULE
ASD01900263
  39   41    0    0    0
SMALL
NO_CHARGES


@<TRIPOS>ATOM
   1 C1            -0.0169     1.3919     0.0097 C.ar    
   2 C2             0.0021    -0.0041     0.0020 C.ar    
   3 C3             1.2260    -0.6607    -0.0132 C.ar    
   4 C4             2.3834     0.1001    -0.0201 C.ar    
   5 C5             2.2887     1.4831    -0.0118 C.ar    
   6 N6             1.1181     2.0812     0.0026 N.ar    
   7 C7            -1.3113     2.1087     0.0197 C.2     
   8 O8            -2.3531     1.4821     0.0212 O.2     
   9 N9            -1.3354     3.4562     0.0271 N.am    
  10 F10           -1.1525    -0.7056     0.0097 F       
  11 N11           -4.0832     5.7339     0.0520 N.am    
  12 C12           -2.7393     5.4796     0.0447 C.2     
  13 C13           -2.5657     4.1375     0.0366 C.2     
  14 C14           -3.8493     3.5477     0.0390 C.2     
  15 C15           -4.7540     4.5473     0.0484 C.2     
  16 S16           -4.7804     7.2359     0.0694 S.o2    
  17 O17           -6.0478     7.0269     0.6770 O.2     
  18 O18           -3.8038     8.0685     0.6795 O.2     
  19 C19           -4.9771     7.6639    -1.6824 C.3     
  20 C20           -5.6096     9.0268    -1.7985 C.ar    
  21 C21           -4.8132    10.1572    -1.8506 C.ar    
  22 C22           -5.3945    11.4078    -1.9577 C.ar    
  23 C23           -6.7706    11.5277    -2.0126 C.ar    
  24 C24           -7.5656    10.3983    -1.9600 C.ar    
  25 C25           -6.9850     9.1476    -1.8587 C.ar    
  26 Cl26          -3.0852    10.0059    -1.7811 Cl      
  27 H27            1.2741    -1.7396    -0.0191 H       
  28 H28            3.3509    -0.3798    -0.0316 H       
  29 H29            3.1900     2.0780    -0.0168 H       
  30 H30           -0.5042     3.9561     0.0259 H       
  31 H31           -1.9537     6.2207     0.0448 H       
  32 H32           -4.0662     2.4897     0.0341 H       
  33 H33           -5.8274     4.4281     0.0521 H       
  34 H34           -4.0002     7.6744    -2.1658 H       
  35 H35           -5.6147     6.9249    -2.1676 H       
  36 H36           -4.7734    12.2905    -1.9980 H       
  37 H37           -7.2246    12.5041    -2.0962 H       
  38 H38           -8.6407    10.4925    -2.0022 H       
  39 H39           -7.6065     8.2651    -1.8222 H       
@<TRIPOS>BOND
   1    1    2 ar
   2    1    6 ar
   3    1    7 1
   4    2    3 ar
   5    2   10 1
   6    3    4 ar
   7    3   27 1
   8    4    5 ar
   9    4   28 1
  10    5    6 ar
  11    5   29 1
  12    7    8 2
  13    7    9 am
  14    9   13 1
  15    9   30 1
  16   11   12 1
  17   11   15 1
  18   11   16 am
  19   12   13 2
  20   12   31 1
  21   13   14 1
  22   14   15 2
  23   14   32 1
  24   15   33 1
  25   16   17 2
  26   16   18 2
  27   16   19 1
  28   19   20 1
  29   19   34 1
  30   19   35 1
  31   20   21 ar
  32   20   25 ar
  33   21   22 ar
  34   21   26 1
  35   22   23 ar
  36   22   36 1
  37   23   24 ar
  38   23   37 1
  39   24   25 ar
  40   24   38 1
  41   25   39 1

#	End of record

