#	Name: ASD03731894
#	Creating user name:	WinNT
#	Creation time:	15. 06. 2019 20:46

#	Modifying user name:	WinNT
#	Modification time:	15. 06. 2019 20:46

#	Program:	/corina/corina34_cracker 3.40 0067  02.08.2006

@<TRIPOS>MOLECULE
ASD03731894
  30   31    0    0    0
SMALL
NO_CHARGES


@<TRIPOS>ATOM
   1 C1            -2.2197    -2.5859     4.8606 C.2     
   2 C2            -1.6209    -2.9927     3.5777 C.ar    
   3 C3            -0.2959    -3.4447     3.5327 C.ar    
   4 C4             0.2598    -3.8250     2.3281 C.ar    
   5 C5            -0.4930    -3.7597     1.1628 C.ar    
   6 C6            -1.8100    -3.3110     1.2036 C.ar    
   7 C7            -2.3753    -2.9343     2.4014 C.ar    
   8 O8            -1.5641    -2.6421     5.8822 O.2     
   9 O9            -3.4930    -2.1460     4.9004 O.3     
  10 F10            0.4367    -3.5079     4.6661 F       
  11 O11            0.0574    -4.1342    -0.0197 O.3     
  12 C12            1.3078    -4.6676    -0.0012 C.ar    
  13 C13            1.4762    -6.0352     0.1618 C.ar    
  14 C14            2.7472    -6.5772     0.1801 C.ar    
  15 C15            3.8551    -5.7530     0.0353 C.ar    
  16 C16            3.6859    -4.3866    -0.1275 C.ar    
  17 C17            2.4148    -3.8455    -0.1510 C.ar    
  18 O18            5.1061    -6.2859     0.0537 O.3     
  19 C19            6.1998    -5.3793    -0.1007 C.3     
  20 F20            6.1763    -4.4394     0.9354 F       
  21 F21            7.4042    -6.0899    -0.0584 F       
  22 F22            6.0898    -4.7209    -1.3301 F       
  23 Cl23           2.9587    -8.2881     0.3845 Cl      
  24 Cl24          -2.7441    -3.2324    -0.2576 Cl      
  25 H25            1.2814    -4.1735     2.2915 H       
  26 H26           -3.3987    -2.5907     2.4319 H       
  27 H27           -3.8423    -1.8903     5.7652 H       
  28 H28            0.6142    -6.6759     0.2746 H       
  29 H29            4.5478    -3.7455    -0.2397 H       
  30 H30            2.2833    -2.7815    -0.2820 H       
@<TRIPOS>BOND
   1    1    2 1
   2    1    8 2
   3    1    9 1
   4    2    3 ar
   5    2    7 ar
   6    3    4 ar
   7    3   10 1
   8    4    5 ar
   9    4   25 1
  10    5    6 ar
  11    5   11 1
  12    6    7 ar
  13    6   24 1
  14    7   26 1
  15    9   27 1
  16   11   12 1
  17   12   13 ar
  18   12   17 ar
  19   13   14 ar
  20   13   28 1
  21   14   15 ar
  22   14   23 1
  23   15   16 ar
  24   15   18 1
  25   16   17 ar
  26   16   29 1
  27   17   30 1
  28   18   19 1
  29   19   20 1
  30   19   21 1
  31   19   22 1

#	End of record

