#	Name: ASD01883825
#	Creating user name:	WinNT
#	Creation time:	15. 06. 2019 19:47

#	Modifying user name:	WinNT
#	Modification time:	15. 06. 2019 19:47

#	Program:	/corina/corina34_cracker 3.40 0067  02.08.2006

@<TRIPOS>MOLECULE
ASD01883825
  38   39    0    0    0
SMALL
NO_CHARGES


@<TRIPOS>ATOM
   1 N1            -0.0162     1.3417     0.0094 N.am    
   2 C2             0.0021    -0.0041     0.0020 C.2     
   3 C3            -1.2165    -0.7274     0.0102 C.2     
   4 C4            -2.4254    -0.0118     0.0261 C.2     
   5 C5            -2.3785     1.3952     0.0332 C.2     
   6 C6            -1.1848     2.0318     0.0299 C.2     
   7 O7             1.0656    -0.6000    -0.0121 O.2     
   8 C8            -1.2157    -2.1594     0.0021 C.1     
   9 N9            -1.2151    -3.2954    -0.0044 N.1     
  10 C10            1.2511     2.0767     0.0013 C.3     
  11 C11            1.6785     2.3403    -1.4440 C.3     
  12 C12            3.0020     3.1078    -1.4525 C.3     
  13 C13            4.1048     2.2295    -0.8581 C.3     
  14 N14           -3.6299    -0.6722     0.0341 N.ar    
  15 C15            3.3664     3.4801    -2.8911 C.3     
  16 C16           -4.4238    -0.5607     1.0926 C.ar    
  17 C17           -5.6393    -1.2112     1.1325 C.ar    
  18 C18           -6.0288    -1.9880     0.0501 C.ar    
  19 C19           -5.1757    -2.0830    -1.0407 C.ar    
  20 C20           -3.9759    -1.4031    -1.0192 C.ar    
  21 H21           -3.2951     1.9662     0.0453 H       
  22 H22           -1.1613     3.1115     0.0354 H       
  23 H23            1.1239     3.0261     0.5214 H       
  24 H24            2.0167     1.4863     0.5046 H       
  25 H25            1.8057     1.3909    -1.9642 H       
  26 H26            0.9129     2.9306    -1.9474 H       
  27 H27            2.8997     4.0151    -0.8572 H       
  28 H28            5.0477     2.7763    -0.8641 H       
  29 H29            3.8452     1.9642     0.1668 H       
  30 H30            4.2071     1.3221    -1.4534 H       
  31 H31            2.5808     4.1059    -3.3145 H       
  32 H32            4.3093     4.0269    -2.8971 H       
  33 H33            3.4688     2.5728    -3.4864 H       
  34 H34           -4.1143     0.0454     1.9312 H       
  35 H35           -6.2807    -1.1174     1.9964 H       
  36 H36           -6.9755    -2.5078     0.0567 H       
  37 H37           -5.4499    -2.6798    -1.8980 H       
  38 H38           -3.3072    -1.4725    -1.8644 H       
@<TRIPOS>BOND
   1    1    2 am
   2    1   10 1
   3    1    6 1
   4    2    3 1
   5    2    7 2
   6    3    4 2
   7    3    8 1
   8    4    5 1
   9    4   14 1
  10    5    6 2
  11    5   21 1
  12    6   22 1
  13    8    9 3
  14   10   11 1
  15   10   23 1
  16   10   24 1
  17   11   12 1
  18   11   25 1
  19   11   26 1
  20   12   13 1
  21   12   15 1
  22   12   27 1
  23   13   28 1
  24   13   29 1
  25   13   30 1
  26   14   16 ar
  27   14   20 ar
  28   15   31 1
  29   15   32 1
  30   15   33 1
  31   16   17 ar
  32   16   34 1
  33   17   18 ar
  34   17   35 1
  35   18   19 ar
  36   18   36 1
  37   19   20 ar
  38   19   37 1
  39   20   38 1

#	End of record

