#	Name: ASD03090593
#	Creating user name:	WinNT
#	Creation time:	15. 06. 2019 20:29

#	Modifying user name:	WinNT
#	Modification time:	15. 06. 2019 20:29

#	Program:	/corina/corina34_cracker 3.40 0067  02.08.2006

@<TRIPOS>MOLECULE
ASD03090593
  27   28    0    0    0
SMALL
NO_CHARGES


@<TRIPOS>ATOM
   1 N1            -0.0162     1.3436     0.0094 N.am    
   2 C2             0.0561     0.0126     0.2090 C.2     
   3 O3             1.1400    -0.5294     0.3071 O.2     
   4 N4            -1.0731    -0.7175     0.3000 N.am    
   5 O5            -1.6163    -4.0611     0.7897 O.3     
   6 N6            -1.9999    -2.9279     0.6144 N.2     
   7 C7            -0.9982    -2.0949     0.5066 C.2     
   8 C8             0.1816    -2.8739     0.6420 C.2     
   9 C9            -0.2778    -4.1331     0.8222 C.2     
  10 C10            0.5527    -5.3748     1.0209 C.3     
  11 C11            1.1516     2.1166     0.0123 C.ar    
  12 C12            2.3302     1.5973    -0.5068 C.ar    
  13 C13            3.4813     2.3620    -0.5034 C.ar    
  14 C14            3.4592     3.6462     0.0178 C.ar    
  15 C15            2.2850     4.1645     0.5360 C.ar    
  16 C16            1.1310     3.4049     0.5290 C.ar    
  17 F17            4.5852     4.3926     0.0205 F       
  18 Cl18           4.9555     1.7139    -1.1516 Cl      
  19 H19           -0.8767     1.7655    -0.1402 H       
  20 H20           -1.9378    -0.2851     0.2218 H       
  21 H21            1.2077    -2.5385     0.6090 H       
  22 H22           -0.1045    -6.2365     1.1382 H       
  23 H23            1.1963    -5.5240     0.1539 H       
  24 H24            1.1669    -5.2620     1.9142 H       
  25 H25            2.3473     0.5966    -0.9126 H       
  26 H26            2.2699     5.1651     0.9420 H       
  27 H27            0.2140     3.8118     0.9290 H       
@<TRIPOS>BOND
   1    1    2 am
   2    1   11 1
   3    1   19 1
   4    2    3 2
   5    2    4 am
   6    4    7 1
   7    4   20 1
   8    5    6 1
   9    5    9 1
  10    6    7 2
  11    7    8 1
  12    8    9 2
  13    8   21 1
  14    9   10 1
  15   10   22 1
  16   10   23 1
  17   10   24 1
  18   11   12 ar
  19   11   16 ar
  20   12   13 ar
  21   12   25 1
  22   13   14 ar
  23   13   18 1
  24   14   15 ar
  25   14   17 1
  26   15   16 ar
  27   15   26 1
  28   16   27 1

#	End of record

