#	Name: ASD09200048
#	Creating user name:	WinNT
#	Creation time:	15. 06. 2019 21:21

#	Modifying user name:	WinNT
#	Modification time:	15. 06. 2019 21:21

#	Program:	/corina/corina34_cracker 3.40 0067  02.08.2006

@<TRIPOS>MOLECULE
ASD09200048
  50   52    0    0    0
SMALL
NO_CHARGES


@<TRIPOS>ATOM
   1 C1            -0.1786     1.0563    -0.7018 C.ar    
   2 C2            -0.0054    -0.0167     0.1552 C.ar    
   3 C3            -1.0359    -0.4168     0.9893 C.ar    
   4 C4            -2.2419     0.2530     0.9708 C.ar    
   5 C5            -2.4227     1.3350     0.1101 C.ar    
   6 C6            -1.3798     1.7377    -0.7246 C.ar    
   7 C7            -3.7162     2.0581     0.0861 C.ar    
   8 C8            -4.9281     1.3522    -0.0500 C.ar    
   9 N9            -6.0646     2.0405    -0.0668 N.ar    
  10 C10           -6.0280     3.3630     0.0440 C.ar    
  11 N11           -4.8749     4.0069     0.1711 N.ar    
  12 N12           -3.7514     3.3798     0.1978 N.ar    
  13 N13           -7.2109     4.0811     0.0261 N.3     
  14 C14           -6.9547     5.5207     0.1608 C.3     
  15 C15           -8.2847     6.2677     0.2833 C.3     
  16 C16           -9.1338     5.9957    -0.9616 C.3     
  17 C17           -9.3454     4.4861    -1.1056 C.3     
  18 C18           -7.9845     3.7907    -1.1878 C.3     
  19 N19          -10.4353     6.6628    -0.8235 N.3     
  20 C20          -11.0257     6.9425    -2.1392 C.3     
  21 C21          -12.5470     7.0372    -2.0058 C.3     
  22 C22          -10.4772     8.2672    -2.6732 C.3     
  23 C23            0.9472     1.4856    -1.6069 C.3     
  24 Cl24           1.5092    -0.8644     0.1842 Cl      
  25 Cl25          -1.5959     3.0841    -1.7989 Cl      
  26 N26           -4.9346    -0.0265    -0.1639 N.pl3   
  27 H27           -0.8954    -1.2551     1.6554 H       
  28 H28           -3.0447    -0.0605     1.6216 H       
  29 H29           -6.3536     5.7008     1.0521 H       
  30 H30           -6.4172     5.8777    -0.7178 H       
  31 H31           -8.8165     5.9211     1.1694 H       
  32 H32           -8.0948     7.3377     0.3675 H       
  33 H33           -8.6196     6.3773    -1.8437 H       
  34 H34           -9.8938     4.1114    -0.2413 H       
  35 H35           -9.9132     4.2832    -2.0136 H       
  36 H36           -7.4423     4.1558    -2.0600 H       
  37 H37           -8.1315     2.7143    -1.2760 H       
  38 H38          -11.0634     6.1157    -0.2541 H       
  39 H39          -10.7709     6.1388    -2.8300 H       
  40 H40          -12.8018     7.8408    -1.3149 H       
  41 H41          -12.9851     7.2447    -2.9820 H       
  42 H42          -12.9378     6.0934    -1.6253 H       
  43 H43           -9.3934     8.1998    -2.7682 H       
  44 H44          -10.9153     8.4747    -3.6495 H       
  45 H45          -10.7320     9.0709    -1.9823 H       
  46 H46            0.8756     0.9513    -2.5543 H       
  47 H47            0.8785     2.5582    -1.7885 H       
  48 H48            1.9018     1.2578    -1.1325 H       
  49 H49           -4.0980    -0.5100    -0.2497 H       
  50 H50           -5.7756    -0.5097    -0.1580 H       
@<TRIPOS>BOND
   1    1    2 ar
   2    1   23 1
   3    1    6 ar
   4    2    3 ar
   5    2   24 1
   6    3    4 ar
   7    3   27 1
   8    4    5 ar
   9    4   28 1
  10    5    6 ar
  11    5    7 1
  12    6   25 1
  13    7    8 ar
  14    7   12 ar
  15    8    9 ar
  16    8   26 1
  17    9   10 ar
  18   10   11 ar
  19   10   13 1
  20   11   12 ar
  21   13   14 1
  22   13   18 1
  23   14   15 1
  24   14   29 1
  25   14   30 1
  26   15   16 1
  27   15   31 1
  28   15   32 1
  29   16   17 1
  30   16   19 1
  31   16   33 1
  32   17   18 1
  33   17   34 1
  34   17   35 1
  35   18   36 1
  36   18   37 1
  37   19   20 1
  38   19   38 1
  39   20   21 1
  40   20   22 1
  41   20   39 1
  42   21   40 1
  43   21   41 1
  44   21   42 1
  45   22   43 1
  46   22   44 1
  47   22   45 1
  48   23   46 1
  49   23   47 1
  50   23   48 1
  51   26   49 1
  52   26   50 1

#	End of record

