#	Name: ASD06660028
#	Creating user name:	WinNT
#	Creation time:	15. 06. 2019 21:07

#	Modifying user name:	WinNT
#	Modification time:	15. 06. 2019 21:07

#	Program:	/corina/corina34_cracker 3.40 0067  02.08.2006

@<TRIPOS>MOLECULE
ASD06660028
  70   73    0    0    0
SMALL
NO_CHARGES


@<TRIPOS>ATOM
   1 C1            -1.4552     1.6365     0.2962 C.2     
   2 C2            -1.2006     0.3247    -0.4005 C.3     
   3 C3            -1.9516     0.3009    -1.7333 C.3     
   4 O4            -0.5317     2.3695     0.5602 O.2     
   5 O5            -2.7085     1.9930     0.6186 O.3     
   6 C6            -1.8110    -1.0600    -2.3650 C.ar    
   7 C7            -2.6849    -2.0745    -2.0195 C.ar    
   8 C8            -2.5589    -3.3230    -2.5964 C.ar    
   9 C9            -1.5528    -3.5590    -3.5247 C.ar    
  10 C10           -0.6766    -2.5376    -3.8695 C.ar    
  11 C11           -0.8119    -1.2900    -3.2929 C.ar    
  12 N12           -1.4222    -4.8205    -4.1098 N.3     
  13 C13           -2.7426    -5.4327    -4.3459 C.3     
  14 C14           -2.8319    -5.7607    -5.8512 C.3     
  15 C15           -1.3432    -5.8378    -6.2810 C.3     
  16 C16           -0.7057    -4.7345    -5.4002 C.3     
  17 C17           -3.5288    -7.1048    -6.0716 C.3     
  18 N18           -3.7059    -7.3334    -7.5077 N.pl3   
  19 C19           -4.3200    -8.4971    -7.9557 C.ar    
  20 C20           -4.7644    -9.4407    -7.0348 C.ar    
  21 C21           -5.3737   -10.5940    -7.4944 C.ar    
  22 C22           -5.5190   -10.7660    -8.8649 C.ar    
  23 C23           -5.0547    -9.7886    -9.7218 C.ar    
  24 N24           -4.4819    -8.6953    -9.2548 N.ar    
  25 C25            1.0603    -0.1660     0.3641 C.2     
  26 C26            2.4913    -0.4206     0.0963 C.ar    
  27 C27            2.9500    -1.7279    -0.0779 C.ar    
  28 C28            4.2860    -1.9592    -0.3279 C.ar    
  29 C29            5.1728    -0.8977    -0.4058 C.ar    
  30 C30            4.7237     0.4010    -0.2339 C.ar    
  31 C31            3.3886     0.6453     0.0109 C.ar    
  32 O32            0.6272    -0.2625     1.4958 O.2     
  33 N33            0.2356     0.1731    -0.6465 N.am    
  34 C34            2.9005     2.0595     0.1916 C.3     
  35 C35            1.9867    -2.8837     0.0076 C.3     
  36 C36            1.3147    -3.0892    -1.3514 C.3     
  37 Cl37           6.8538    -1.1968    -0.7198 Cl      
  38 H38           -1.5500    -0.4944     0.2281 H       
  39 H39           -3.0065     0.5137    -1.5598 H       
  40 H40           -1.5335     1.0556    -2.3994 H       
  41 H41           -2.8220     2.8435     1.0646 H       
  42 H42           -3.4667    -1.8905    -1.2974 H       
  43 H43           -3.2415    -4.1149    -2.3259 H       
  44 H44            0.1066    -2.7178    -4.5909 H       
  45 H45           -0.1340    -0.4941    -3.5640 H       
  46 H46           -2.8371    -6.3475    -3.7608 H       
  47 H47           -3.5308    -4.7316    -4.0718 H       
  48 H48           -3.3476    -4.9652    -6.3890 H       
  49 H49           -0.9201    -6.8153    -6.0496 H       
  50 H50           -1.2301    -5.6059    -7.3401 H       
  51 H51           -0.8552    -3.7541    -5.8526 H       
  52 H52            0.3572    -4.9295    -5.2578 H       
  53 H53           -2.9195    -7.9037    -5.6489 H       
  54 H54           -4.5030    -7.0934    -5.5827 H       
  55 H55           -3.3945    -6.6727    -8.1460 H       
  56 H56           -4.6349    -9.2750    -5.9755 H       
  57 H57           -5.7283   -11.3443    -6.8032 H       
  58 H58           -5.9901   -11.6555    -9.2562 H       
  59 H59           -5.1656    -9.9183   -10.7883 H       
  60 H60            4.6420    -2.9698    -0.4628 H       
  61 H61            5.4198     1.2245    -0.2955 H       
  62 H62            0.5930     0.3168    -1.5368 H       
  63 H63            2.9597     2.3325     1.2452 H       
  64 H64            3.5223     2.7362    -0.3946 H       
  65 H65            1.8664     2.1328    -0.1452 H       
  66 H66            2.5281    -3.7880     0.2856 H       
  67 H67            1.2275    -2.6691     0.7597 H       
  68 H68            0.8558    -2.1548    -1.6748 H       
  69 H69            2.0611    -3.3995    -2.0827 H       
  70 H70            0.5484    -3.8595    -1.2651 H       
@<TRIPOS>BOND
   1    1    2 1
   2    1    4 2
   3    1    5 1
   4    2    3 1
   5    2   33 1
   6    2   38 1
   7    3    6 1
   8    3   39 1
   9    3   40 1
  10    5   41 1
  11    6    7 ar
  12    6   11 ar
  13    7    8 ar
  14    7   42 1
  15    8    9 ar
  16    8   43 1
  17    9   10 ar
  18    9   12 1
  19   10   11 ar
  20   10   44 1
  21   11   45 1
  22   12   13 1
  23   12   16 1
  24   13   14 1
  25   13   46 1
  26   13   47 1
  27   14   15 1
  28   14   17 1
  29   14   48 1
  30   15   16 1
  31   15   49 1
  32   15   50 1
  33   16   51 1
  34   16   52 1
  35   17   18 1
  36   17   53 1
  37   17   54 1
  38   18   19 1
  39   18   55 1
  40   19   20 ar
  41   19   24 ar
  42   20   21 ar
  43   20   56 1
  44   21   22 ar
  45   21   57 1
  46   22   23 ar
  47   22   58 1
  48   23   24 ar
  49   23   59 1
  50   25   26 1
  51   25   32 2
  52   25   33 am
  53   26   27 ar
  54   26   31 ar
  55   27   28 ar
  56   27   35 1
  57   28   29 ar
  58   28   60 1
  59   29   30 ar
  60   29   37 1
  61   30   31 ar
  62   30   61 1
  63   31   34 1
  64   33   62 1
  65   34   63 1
  66   34   64 1
  67   34   65 1
  68   35   36 1
  69   35   66 1
  70   35   67 1
  71   36   68 1
  72   36   69 1
  73   36   70 1

#	End of record

