#	Name: ASD05380102
#	Creating user name:	WinNT
#	Creation time:	15. 06. 2019 20:59

#	Modifying user name:	WinNT
#	Modification time:	15. 06. 2019 20:59

#	Program:	/corina/corina34_cracker 3.40 0067  02.08.2006

@<TRIPOS>MOLECULE
ASD05380102
  46   50    0    0    0
SMALL
NO_CHARGES


@<TRIPOS>ATOM
   1 C1             0.0118     1.3371     0.1832 C.ar    
   2 C2            -0.0486    -0.0467    -0.0961 C.ar    
   3 C3             1.2458     1.9630     0.3462 C.ar    
   4 C4             2.4026     1.2229     0.2328 C.ar    
   5 C5             2.3469    -0.1370    -0.0416 C.ar    
   6 C6             1.1376    -0.7747    -0.2062 C.ar    
   7 N7            -1.2612    -0.6346    -0.2503 N.2     
   8 C8            -2.3642     0.0429    -0.1474 C.2     
   9 N9            -2.4005     1.3762     0.1185 N.am    
  10 C10           -1.2549     2.0741     0.2989 C.2     
  11 C11           -3.6360     2.0327     0.2122 C.ar    
  12 C12           -4.2524     2.1845     1.4488 C.ar    
  13 C13           -6.0766     3.3292     0.3974 C.ar    
  14 C14           -3.6706    -0.6852    -0.3325 C.3     
  15 N15           -3.5129    -1.7176    -1.3599 N.pl3   
  16 C16           -4.6141    -2.1575    -2.0735 C.ar    
  17 N17           -5.8216    -1.6541    -1.8393 N.ar    
  18 O18           -1.2725     3.2677     0.5374 O.2     
  19 C19           -4.4805    -3.1427    -3.0664 C.ar    
  20 C20           -5.6348    -3.5490    -3.7573 C.ar    
  21 N21           -6.8014    -2.9919    -3.4497 N.ar    
  22 C22           -6.8779    -2.0678    -2.5152 C.ar    
  23 N23           -3.4435    -3.8561    -3.5673 N.2     
  24 C24           -3.8771    -4.6548    -4.4988 C.2     
  25 N25           -5.2229    -4.5028    -4.6535 N.pl3   
  26 C26           -5.4714     2.8327     1.5371 C.ar    
  27 C27           -5.4640     3.1852    -0.8338 C.ar    
  28 C28           -4.0818    -1.3388     0.9884 C.3     
  29 F29           -3.6620     1.6993     2.5629 F       
  30 C30           -4.2449     2.5383    -0.9305 C.ar    
  31 F31           -3.6469     2.3984    -2.1338 F       
  32 H32            1.2954     3.0206     0.5594 H       
  33 H33            3.3609     1.7049     0.3582 H       
  34 H34            3.2635    -0.7017    -0.1275 H       
  35 H35            1.1068    -1.8331    -0.4191 H       
  36 H36           -7.0282     3.8348     0.4696 H       
  37 H37           -4.4398     0.0218    -0.6429 H       
  38 H38           -2.6368    -2.0928    -1.5401 H       
  39 H39           -7.8407    -1.6322    -2.2926 H       
  40 H40           -3.2615    -5.3375    -5.0657 H       
  41 H41           -5.7862    -4.9816    -5.2815 H       
  42 H42           -5.9511     2.9508     2.4975 H       
  43 H43           -5.9400     3.5741    -1.7218 H       
  44 H44           -4.1068    -0.5844     1.7747 H       
  45 H45           -5.0706    -1.7846     0.8808 H       
  46 H46           -3.3607    -2.1131     1.2505 H       
@<TRIPOS>BOND
   1    1    2 ar
   2    1    3 ar
   3    1   10 1
   4    2    7 1
   5    2    6 ar
   6    3    4 ar
   7    3   32 1
   8    4    5 ar
   9    4   33 1
  10    5    6 ar
  11    5   34 1
  12    6   35 1
  13    7    8 2
  14    8    9 1
  15    8   14 1
  16    9   10 am
  17    9   11 1
  18   10   18 2
  19   11   12 ar
  20   11   30 ar
  21   12   29 1
  22   12   26 ar
  23   13   26 ar
  24   13   27 ar
  25   13   36 1
  26   14   15 1
  27   14   28 1
  28   14   37 1
  29   15   16 1
  30   15   38 1
  31   16   17 ar
  32   16   19 ar
  33   17   22 ar
  34   19   20 ar
  35   19   23 1
  36   20   21 ar
  37   20   25 1
  38   21   22 ar
  39   22   39 1
  40   23   24 2
  41   24   25 1
  42   24   40 1
  43   25   41 1
  44   26   42 1
  45   27   30 ar
  46   27   43 1
  47   28   44 1
  48   28   45 1
  49   28   46 1
  50   30   31 1

#	End of record

