#	Name: ASD02440078
#	Creating user name:	WinNT
#	Creation time:	15. 06. 2019 20:21

#	Modifying user name:	WinNT
#	Modification time:	15. 06. 2019 20:21

#	Program:	/corina/corina34_cracker 3.40 0067  02.08.2006

@<TRIPOS>MOLECULE
ASD02440078
  65   69    0    0    0
SMALL
NO_CHARGES


@<TRIPOS>ATOM
   1 N1             0.0420     1.4826     0.6534 N.am    
   2 C2             0.0471     0.1254     0.8221 C.2     
   3 S3             1.7181    -0.4118     0.5786 S.3     
   4 C4             2.3501     1.2146     0.2579 C.2     
   5 C5             1.1801     2.0917     0.3658 C.2     
   6 N6            -0.9870    -0.6333     1.1091 N.2     
   7 C7            -1.2015     2.2463     0.7830 C.3     
   8 C8            -1.3768     2.6815     2.2150 C.ar    
   9 O9             1.2512     3.2956     0.2017 O.2     
  10 C10            3.6300     1.5678    -0.0238 C.2     
  11 C11            4.7046     0.5715     0.0714 C.ar    
  12 C12            5.9062     0.7655    -0.6211 C.ar    
  13 C13            6.9103    -0.1719    -0.5282 C.ar    
  14 C14            6.7328    -1.3095     0.2506 C.ar    
  15 C15            5.5419    -1.5074     0.9398 C.ar    
  16 C16            4.5337    -0.5733     0.8595 C.ar    
  17 C17           -2.2146     2.2566     4.4179 C.ar    
  18 C18           -2.0501     1.8642     3.1057 C.ar    
  19 C19           -0.8589     3.8940     2.6347 C.ar    
  20 C20           -1.0157     4.2985     3.9441 C.ar    
  21 C21           -1.6991     3.4813     4.8468 C.ar    
  22 C22           -1.8718     3.9084     6.2504 C.2     
  23 O23           -2.4634     3.1936     7.0343 O.2     
  24 O24           -1.3731     5.0905     6.6609 O.3     
  25 O25            7.7262    -2.2309     0.3382 O.3     
  26 C26            7.4782    -3.3765     1.1557 C.3     
  27 C27            8.7017    -4.2949     1.1314 C.3     
  28 C28            8.4401    -5.5030     1.9935 C.ar    
  29 C29            7.8681    -6.6344     1.4426 C.ar    
  30 C30            7.6281    -7.7426     2.2333 C.ar    
  31 C31            7.9607    -7.7194     3.5749 C.ar    
  32 C32            8.5335    -6.5883     4.1256 C.ar    
  33 C33            8.7775    -5.4817     3.3339 C.ar    
  34 C34           -0.8262    -1.9850     1.2481 C.ar    
  35 C35           -1.4226    -2.6563     2.3180 C.ar    
  36 C36           -1.2562    -4.0189     2.4519 C.ar    
  37 C37           -0.5002    -4.7209     1.5297 C.ar    
  38 C38            0.0936    -4.0624     0.4673 C.ar    
  39 C39           -0.0695    -2.7010     0.3175 C.ar    
  40 H40           -1.1571     3.1247     0.1391 H       
  41 H41           -2.0442     1.6213     0.4874 H       
  42 H42            3.8581     2.5817    -0.3179 H       
  43 H43            6.0449     1.6486    -1.2270 H       
  44 H44            7.8374    -0.0233    -1.0619 H       
  45 H45            5.4092    -2.3933     1.5432 H       
  46 H46            3.6089    -0.7281     1.3954 H       
  47 H47           -2.7410     1.6181     5.1118 H       
  48 H48           -2.4481     0.9170     2.7727 H       
  49 H49           -0.3303     4.5250     1.9355 H       
  50 H50           -0.6107     5.2450     4.2704 H       
  51 H51           -1.5111     5.3269     7.5884 H       
  52 H52            7.2838    -3.0571     2.1795 H       
  53 H53            6.6117    -3.9155     0.7726 H       
  54 H54            8.8960    -4.6143     0.1076 H       
  55 H55            9.5682    -3.7559     1.5145 H       
  56 H56            7.6083    -6.6525     0.3944 H       
  57 H57            7.1806    -8.6263     1.8031 H       
  58 H58            7.7725    -8.5850     4.1929 H       
  59 H59            8.7930    -6.5701     5.1738 H       
  60 H60            9.2284    -4.5993     3.7633 H       
  61 H61           -2.0124    -2.1095     3.0389 H       
  62 H62           -1.7168    -4.5392     3.2787 H       
  63 H63           -0.3726    -5.7876     1.6399 H       
  64 H64            0.6826    -4.6164    -0.2485 H       
  65 H65            0.3945    -2.1883    -0.5121 H       
@<TRIPOS>BOND
   1    1    2 1
   2    1    5 am
   3    1    7 1
   4    2    3 1
   5    2    6 2
   6    3    4 1
   7    4    5 1
   8    4   10 2
   9    5    9 2
  10    6   34 1
  11    7    8 1
  12    7   40 1
  13    7   41 1
  14    8   19 ar
  15    8   18 ar
  16   10   11 1
  17   10   42 1
  18   11   12 ar
  19   11   16 ar
  20   12   13 ar
  21   12   43 1
  22   13   14 ar
  23   13   44 1
  24   14   15 ar
  25   14   25 1
  26   15   16 ar
  27   15   45 1
  28   16   46 1
  29   17   18 ar
  30   17   21 ar
  31   17   47 1
  32   18   48 1
  33   19   20 ar
  34   19   49 1
  35   20   21 ar
  36   20   50 1
  37   21   22 1
  38   22   23 2
  39   22   24 1
  40   24   51 1
  41   25   26 1
  42   26   27 1
  43   26   52 1
  44   26   53 1
  45   27   28 1
  46   27   54 1
  47   27   55 1
  48   28   29 ar
  49   28   33 ar
  50   29   30 ar
  51   29   56 1
  52   30   31 ar
  53   30   57 1
  54   31   32 ar
  55   31   58 1
  56   32   33 ar
  57   32   59 1
  58   33   60 1
  59   34   35 ar
  60   34   39 ar
  61   35   36 ar
  62   35   61 1
  63   36   37 ar
  64   36   62 1
  65   37   38 ar
  66   37   63 1
  67   38   39 ar
  68   38   64 1
  69   39   65 1

#	End of record

