#	Name: ASD01918205
#	Creating user name:	WinNT
#	Creation time:	15. 06. 2019 20:11

#	Modifying user name:	WinNT
#	Modification time:	15. 06. 2019 20:11

#	Program:	/corina/corina34_cracker 3.40 0067  02.08.2006

@<TRIPOS>MOLECULE
ASD01918205
  40   43    0    0    0
SMALL
NO_CHARGES


@<TRIPOS>ATOM
   1 C1             0.0470     1.3150    -0.0371 C.ar    
   2 C2             0.1982    -0.0746    -0.2766 C.ar    
   3 C3             1.4815    -0.6566    -0.1402 C.ar    
   4 N4             2.5256     0.1016     0.2097 N.ar    
   5 C5             2.4008     1.3875     0.4348 C.ar    
   6 C6             1.1771     2.0372     0.3221 C.ar    
   7 C7            -1.2718     1.9751    -0.1716 C.ar    
   8 C8            -2.2612     1.7646     0.7889 C.ar    
   9 C9            -3.4877     2.3825     0.6588 C.ar    
  10 C10           -3.7377     3.2100    -0.4230 C.ar    
  11 C11           -2.7591     3.4225    -1.3794 C.ar    
  12 C12           -1.5271     2.8143    -1.2563 C.ar    
  13 C13           -0.8921    -0.8743    -0.6425 C.ar    
  14 C14           -0.7078    -2.2065    -0.8642 C.ar    
  15 C15            0.5515    -2.7849    -0.7312 C.ar    
  16 C16            1.6346    -2.0359    -0.3775 C.ar    
  17 S17            1.0607     3.7675     0.6338 S.o2    
  18 C18            0.0671     3.9723     2.0744 C.ar    
  19 O19            2.3681     4.2011     0.9831 O.2     
  20 O20            0.3209     4.3209    -0.4459 O.2     
  21 C21           -1.2790     4.2616     1.9496 C.ar    
  22 C22            0.6329     3.8379     3.3285 C.ar    
  23 C23           -0.1455     3.9978     4.4592 C.ar    
  24 C24           -1.4926     4.2932     4.3355 C.ar    
  25 C25           -2.0593     4.4224     3.0788 C.ar    
  26 F26           -2.2547     4.4493     5.4400 F       
  27 Cl27          -5.2838     3.9835    -0.5809 Cl      
  28 F28            2.8489    -2.6150    -0.2539 F       
  29 H29            3.2737     1.9581     0.7154 H       
  30 H30           -2.0675     1.1188     1.6326 H       
  31 H31           -4.2545     2.2202     1.4019 H       
  32 H32           -2.9595     4.0686    -2.2213 H       
  33 H33           -0.7632     2.9840    -2.0007 H       
  34 H34           -1.8741    -0.4375    -0.7482 H       
  35 H35           -1.5497    -2.8214    -1.1462 H       
  36 H36            0.6725    -3.8428    -0.9114 H       
  37 H37           -1.7208     4.3623     0.9693 H       
  38 H38            1.6837     3.6075     3.4248 H       
  39 H39            0.2966     3.8921     5.4388 H       
  40 H40           -3.1108     4.6487     2.9810 H       
@<TRIPOS>BOND
   1    1    2 ar
   2    1    6 ar
   3    1    7 1
   4    2    3 ar
   5    2   13 ar
   6    3    4 ar
   7    3   16 ar
   8    4    5 ar
   9    5    6 ar
  10    5   29 1
  11    6   17 1
  12    7    8 ar
  13    7   12 ar
  14    8    9 ar
  15    8   30 1
  16    9   10 ar
  17    9   31 1
  18   10   11 ar
  19   10   27 1
  20   11   12 ar
  21   11   32 1
  22   12   33 1
  23   13   14 ar
  24   13   34 1
  25   14   15 ar
  26   14   35 1
  27   15   16 ar
  28   15   36 1
  29   16   28 1
  30   17   18 1
  31   17   19 2
  32   17   20 2
  33   18   22 ar
  34   18   21 ar
  35   21   25 ar
  36   21   37 1
  37   22   23 ar
  38   22   38 1
  39   23   24 ar
  40   23   39 1
  41   24   25 ar
  42   24   26 1
  43   25   40 1

#	End of record

