#	Name: ASD03330578
#	Creating user name:	WinNT
#	Creation time:	15. 06. 2019 20:37

#	Modifying user name:	WinNT
#	Modification time:	15. 06. 2019 20:37

#	Program:	/corina/corina34_cracker 3.40 0067  02.08.2006

@<TRIPOS>MOLECULE
ASD03330578
  63   65    0    0    0
SMALL
NO_CHARGES


@<TRIPOS>ATOM
   1 C1            -0.0599     2.0017     1.7834 C.2     
   2 N2            -0.1482     0.7101     2.1986 N.pl3   
   3 C3             1.2168     2.1969     1.3513 C.2     
   4 N4             1.8820     1.0291     1.4899 N.2     
   5 C5             1.0690     0.1296     1.9924 C.2     
   6 C6             1.4145    -1.2783     2.2855 C.ar    
   7 C7             1.7731     3.4564     0.8264 C.2     
   8 O8             1.0706     4.4462     0.7498 O.2     
   9 C9             3.6136     4.7636    -0.0906 C.3     
  10 N10            3.0605     3.5114     0.4313 N.am    
  11 C11            3.3033     4.8748    -1.5846 C.3     
  12 C12            1.7926     4.7651    -1.8013 C.3     
  13 C13            3.7970     6.2246    -2.1090 C.3     
  14 C14            4.0098     3.7458    -2.3377 C.3     
  15 C15            5.1065     4.7775     0.1147 C.2     
  16 N16            5.7936     5.9300    -0.0122 N.am    
  17 O17            5.6897     3.7515     0.3942 O.2     
  18 C18            7.2531     5.9304     0.1142 C.3     
  19 C19           -1.3409     0.0821     2.7737 C.3     
  20 C20           -2.5565     0.4244     1.9066 C.3     
  21 C21           -3.1662     1.7432     2.3709 C.3     
  22 N22           -2.1327     2.6593     2.8571 N.3     
  23 C23           -1.1821     3.0071     1.7905 C.3     
  24 C24           -2.7319     3.8661     3.4424 C.3     
  25 C25            2.4188    -3.3600     1.6207 C.ar    
  26 C26            2.0607    -3.9160     2.8349 C.ar    
  27 C27            1.3771    -3.1630     3.7735 C.ar    
  28 C28            1.0524    -1.8493     3.5061 C.ar    
  29 C29            2.0999    -2.0444     1.3393 C.ar    
  30 C30            2.4113    -5.3505     3.1353 C.3     
  31 F31            2.4495    -1.5015     0.1526 F       
  32 F32            3.6690    -5.4052     3.7455 F       
  33 F33            1.4516    -5.8949     3.9955 F       
  34 F34            2.4388    -6.0833     1.9439 F       
  35 H35            3.1665     5.6061     0.4371 H       
  36 H36            3.6208     2.7220     0.4924 H       
  37 H37            1.2893     5.5694    -1.2648 H       
  38 H38            1.5715     4.8443    -2.8656 H       
  39 H39            1.4409     3.8034    -1.4277 H       
  40 H40            4.8413     6.3632    -1.8292 H       
  41 H41            3.7056     6.2480    -3.1950 H       
  42 H42            3.1957     7.0244    -1.6765 H       
  43 H43            3.6581     2.7841    -1.9641 H       
  44 H44            3.7887     3.8250    -3.4021 H       
  45 H45            5.0860     3.8239    -2.1833 H       
  46 H46            5.3216     6.7592    -0.1873 H       
  47 H47            7.6289     6.9451    -0.0174 H       
  48 H48            7.5323     5.5649     1.1024 H       
  49 H49            7.6840     5.2816    -0.6483 H       
  50 H50           -1.2059    -0.9991     2.8013 H       
  51 H51           -1.4979     0.4565     3.7853 H       
  52 H52           -2.2453     0.5154     0.8660 H       
  53 H53           -3.2989    -0.3689     1.9940 H       
  54 H54           -3.6919     2.2075     1.5365 H       
  55 H55           -3.8760     1.5459     3.1742 H       
  56 H56           -0.7781     4.0029     1.9729 H       
  57 H57           -1.6926     2.9904     0.8276 H       
  58 H58           -3.3716     3.5850     4.2790 H       
  59 H59           -1.9423     4.5292     3.7955 H       
  60 H60           -3.3267     4.3795     2.6868 H       
  61 H61            2.9524    -3.9529     0.8927 H       
  62 H62            1.1006    -3.6040     4.7198 H       
  63 H63            0.5192    -1.2636     4.2403 H       
@<TRIPOS>BOND
   1    1    2 1
   2    1    3 2
   3    1   23 1
   4    2   19 1
   5    2    5 1
   6    3    4 1
   7    3    7 1
   8    4    5 2
   9    5    6 1
  10    6   29 ar
  11    6   28 ar
  12    7    8 2
  13    7   10 am
  14    9   10 1
  15    9   11 1
  16    9   15 1
  17    9   35 1
  18   10   36 1
  19   11   12 1
  20   11   13 1
  21   11   14 1
  22   12   37 1
  23   12   38 1
  24   12   39 1
  25   13   40 1
  26   13   41 1
  27   13   42 1
  28   14   43 1
  29   14   44 1
  30   14   45 1
  31   15   16 am
  32   15   17 2
  33   16   18 1
  34   16   46 1
  35   18   47 1
  36   18   48 1
  37   18   49 1
  38   19   20 1
  39   19   50 1
  40   19   51 1
  41   20   21 1
  42   20   52 1
  43   20   53 1
  44   21   22 1
  45   21   54 1
  46   21   55 1
  47   22   23 1
  48   22   24 1
  49   23   56 1
  50   23   57 1
  51   24   58 1
  52   24   59 1
  53   24   60 1
  54   25   26 ar
  55   25   29 ar
  56   25   61 1
  57   26   27 ar
  58   26   30 1
  59   27   28 ar
  60   27   62 1
  61   28   63 1
  62   29   31 1
  63   30   32 1
  64   30   33 1
  65   30   34 1

#	End of record

