#	Name: ASD09116269
#	Creating user name:	WinNT
#	Creation time:	15. 06. 2019 21:21

#	Modifying user name:	WinNT
#	Modification time:	15. 06. 2019 21:21

#	Program:	/corina/corina34_cracker 3.40 0067  02.08.2006

@<TRIPOS>MOLECULE
ASD09116269
  68   74    0    0    0
SMALL
NO_CHARGES


@<TRIPOS>ATOM
   1 N1             0.5488     0.3821     1.9598 N.pl3   
   2 N2             0.7729    -0.9851     2.1884 N.2     
   3 C3             1.7534     0.9218     1.6585 C.2     
   4 N4             2.6499    -0.0410     1.6989 N.2     
   5 C5             2.0563    -1.1961     2.0198 C.2     
   6 N6             1.9983     2.2494     1.3606 N.pl3   
   7 C7             3.3135     2.6952     1.1790 C.ar    
   8 C8             3.5734     3.7637     0.3317 C.ar    
   9 C9             4.8705     4.2043     0.1519 C.ar    
  10 C10            5.9146     3.5793     0.8186 C.ar    
  11 C11            5.6553     2.5089     1.6681 C.ar    
  12 C12            4.3571     2.0718     1.8513 C.ar    
  13 C13           -0.6747     1.0512     2.0245 C.ar    
  14 N14           -0.7062     2.3511     2.2776 N.ar    
  15 N15           -1.8058     3.0122     2.3572 N.ar    
  16 C16           -2.9808     2.4268     2.1905 C.ar    
  17 C17           -3.0447     1.0614     1.8983 C.ar    
  18 C18           -1.8657     0.3510     1.8165 C.ar    
  19 C19           -4.2512     3.1748     2.3352 C.ar    
  20 C20           -5.2576     2.6450     3.1443 C.ar    
  21 C21           -5.0067     1.3626     3.8894 C.3     
  22 C22           -5.1069     0.1526     2.9645 C.3     
  23 C23           -4.3762     0.4144     1.6502 C.3     
  24 C24           -4.4513     4.3835     1.6777 C.ar    
  25 C25           -5.6562     5.0453     1.8150 C.ar    
  26 C26           -6.6586     4.5065     2.6011 C.ar    
  27 C27           -6.4602     3.3077     3.2640 C.ar    
  28 N28            2.6988    -2.4265     2.1540 N.pl3   
  29 F29            6.6715     1.8996     2.3172 F       
  30 N30            7.2300     4.0260     0.6357 N.3     
  31 C31            7.6311     3.9230    -0.7798 C.3     
  32 C32            8.9965     3.4128    -0.2980 C.3     
  33 C33            8.1983     2.9532     0.9301 C.3     
  34 N34            9.5464     2.3142    -1.1035 N.3     
  35 C35            9.9293     2.7847    -2.4474 C.3     
  36 C36           11.4223     2.4467    -2.6420 C.3     
  37 C37           11.6561     1.2983    -1.6254 C.3     
  38 C38           10.7370     1.7255    -0.4540 C.3     
  39 H39            1.2593     2.8721     1.2773 H       
  40 H40            2.7612     4.2507    -0.1876 H       
  41 H41            5.0718     5.0351    -0.5080 H       
  42 H42            4.1549     1.2407     2.5107 H       
  43 H43           -1.8635    -0.7085     1.6074 H       
  44 H44           -4.0095     1.3944     4.3282 H       
  45 H45           -5.7430     1.2637     4.6869 H       
  46 H46           -4.6621    -0.7126     3.4562 H       
  47 H47           -6.1567    -0.0541     2.7565 H       
  48 H48           -4.9834     1.0712     1.0273 H       
  49 H49           -4.2238    -0.5314     1.1303 H       
  50 H50           -3.6686     4.8031     1.0631 H       
  51 H51           -5.8156     5.9853     1.3078 H       
  52 H52           -7.6015     5.0241     2.6982 H       
  53 H53           -7.2473     2.8922     3.8759 H       
  54 H54            3.6559    -2.4920     2.0104 H       
  55 H55            2.1887    -3.2167     2.3909 H       
  56 H56            7.0627     3.1801    -1.3393 H       
  57 H57            7.6821     4.8860    -1.2879 H       
  58 H58            9.7198     4.2014    -0.0907 H       
  59 H59            8.7298     3.0943     1.8711 H       
  60 H60            7.7812     1.9515     0.8269 H       
  61 H61            9.3320     2.2744    -3.2030 H       
  62 H62            9.7805     3.8621    -2.5194 H       
  63 H63           11.6106     2.1047    -3.6597 H       
  64 H64           12.0468     3.3071    -2.4017 H       
  65 H65           11.3413     0.3403    -2.0394 H       
  66 H66           12.6989     1.2620    -1.3103 H       
  67 H67           11.2360     2.4683     0.1684 H       
  68 H68           10.4540     0.8580     0.1422 H       
@<TRIPOS>BOND
   1    1    2 1
   2    1    3 1
   3    1   13 1
   4    2    5 2
   5    3    4 2
   6    3    6 1
   7    4    5 1
   8    5   28 1
   9    6    7 1
  10    6   39 1
  11    7    8 ar
  12    7   12 ar
  13    8    9 ar
  14    8   40 1
  15    9   10 ar
  16    9   41 1
  17   10   11 ar
  18   10   30 1
  19   11   12 ar
  20   11   29 1
  21   12   42 1
  22   13   14 ar
  23   13   18 ar
  24   14   15 ar
  25   15   16 ar
  26   16   17 ar
  27   16   19 1
  28   17   18 ar
  29   17   23 1
  30   18   43 1
  31   19   20 ar
  32   19   24 ar
  33   20   21 1
  34   20   27 ar
  35   21   22 1
  36   21   44 1
  37   21   45 1
  38   22   23 1
  39   22   46 1
  40   22   47 1
  41   23   48 1
  42   23   49 1
  43   24   25 ar
  44   24   50 1
  45   25   26 ar
  46   25   51 1
  47   26   27 ar
  48   26   52 1
  49   27   53 1
  50   28   54 1
  51   28   55 1
  52   30   31 1
  53   30   33 1
  54   31   32 1
  55   31   56 1
  56   31   57 1
  57   32   33 1
  58   32   34 1
  59   32   58 1
  60   33   59 1
  61   33   60 1
  62   34   35 1
  63   34   38 1
  64   35   36 1
  65   35   61 1
  66   35   62 1
  67   36   37 1
  68   36   63 1
  69   36   64 1
  70   37   38 1
  71   37   65 1
  72   37   66 1
  73   38   67 1
  74   38   68 1

#	End of record

