#	Name: ASD01884615
#	Creating user name:	WinNT
#	Creation time:	15. 06. 2019 19:48

#	Modifying user name:	WinNT
#	Modification time:	15. 06. 2019 19:48

#	Program:	/corina/corina34_cracker 3.40 0067  02.08.2006

@<TRIPOS>MOLECULE
ASD01884615
  43   45    0    0    0
SMALL
NO_CHARGES


@<TRIPOS>ATOM
   1 C1            -0.0239     1.3354     0.5097 C.2     
   2 C2            -0.0021    -0.0245     0.4410 C.2     
   3 C3             1.2315    -0.6841     0.2514 C.2     
   4 C4             2.3789     0.0466     0.1402 C.2     
   5 N5             2.3433     1.4007     0.2104 N.am    
   6 C6             1.1796     2.0527     0.3907 C.2     
   7 O7             1.1690     3.2717     0.4507 O.2     
   8 C8             3.5880     2.1638     0.0889 C.3     
   9 C9             1.2807    -2.1652     0.1738 C.ar    
  10 C10            3.8355     2.4937    -1.3606 C.ar    
  11 C11            3.3357     3.6653    -1.8970 C.ar    
  12 C12            3.5610     3.9699    -3.2266 C.ar    
  13 C13            4.2880     3.1016    -4.0217 C.ar    
  14 C14            4.7899     1.9262    -3.4834 C.ar    
  15 C15            4.5671     1.6267    -2.1510 C.ar    
  16 F16            4.5082     3.3984    -5.3212 F       
  17 C17            0.9369    -2.9340     1.2844 C.ar    
  18 C18            0.9832    -4.3100     1.2102 C.ar    
  19 C19            1.3729    -4.9306     0.0291 C.ar    
  20 C20            1.7166    -4.1658    -1.0794 C.ar    
  21 C21            1.6652    -2.7895    -1.0115 C.ar    
  22 F22            5.4997     1.0767    -4.2578 F       
  23 N23            1.4196    -6.3245    -0.0437 N.am    
  24 S24            0.0157    -7.1951    -0.1590 S.o2    
  25 O25            0.4467    -8.5473    -0.2300 O.2     
  26 O26           -0.7732    -6.7338     0.9292 O.2     
  27 C27           -0.7111    -6.6750    -1.7376 C.3     
  28 H28           -0.9581     1.8587     0.6499 H       
  29 H29           -0.9171    -0.5913     0.5307 H       
  30 H30            3.3230    -0.4575    -0.0045 H       
  31 H31            3.5058     3.0869     0.6627 H       
  32 H32            4.4173     1.5698     0.4730 H       
  33 H33            2.7682     4.3434    -1.2769 H       
  34 H34            3.1693     4.8854    -3.6448 H       
  35 H35            4.9577     0.7118    -1.7305 H       
  36 H36            0.6347    -2.4522     2.2026 H       
  37 H37            0.7169    -4.9061     2.0706 H       
  38 H38            2.0198    -4.6499    -1.9960 H       
  39 H39            1.9320    -2.1957    -1.8732 H       
  40 H40            2.2744    -6.7827    -0.0267 H       
  41 H41            0.0139    -6.8236    -2.5379 H       
  42 H42           -1.6027    -7.2685    -1.9402 H       
  43 H43           -0.9812    -5.6204    -1.6833 H       
@<TRIPOS>BOND
   1    1    2 2
   2    1    6 1
   3    1   28 1
   4    2    3 1
   5    2   29 1
   6    3    4 2
   7    3    9 1
   8    4    5 1
   9    4   30 1
  10    5    6 am
  11    5    8 1
  12    6    7 2
  13    8   10 1
  14    8   31 1
  15    8   32 1
  16    9   17 ar
  17    9   21 ar
  18   10   11 ar
  19   10   15 ar
  20   11   12 ar
  21   11   33 1
  22   12   13 ar
  23   12   34 1
  24   13   14 ar
  25   13   16 1
  26   14   15 ar
  27   14   22 1
  28   15   35 1
  29   17   18 ar
  30   17   36 1
  31   18   19 ar
  32   18   37 1
  33   19   20 ar
  34   19   23 1
  35   20   21 ar
  36   20   38 1
  37   21   39 1
  38   23   24 am
  39   23   40 1
  40   24   25 2
  41   24   26 2
  42   24   27 1
  43   27   41 1
  44   27   42 1
  45   27   43 1

#	End of record

