#	Name: ASD05430026
#	Creating user name:	WinNT
#	Creation time:	15. 06. 2019 20:59

#	Modifying user name:	WinNT
#	Modification time:	15. 06. 2019 20:59

#	Program:	/corina/corina34_cracker 3.40 0067  02.08.2006

@<TRIPOS>MOLECULE
ASD05430026
  63   68    0    0    0
SMALL
NO_CHARGES


@<TRIPOS>ATOM
   1 C1             0.0553     1.1854     0.3897 C.ar    
   2 C2             0.0200    -0.0134    -0.3217 C.ar    
   3 C3             1.1706    -0.4972    -0.9313 C.ar    
   4 C4             2.3522     0.2050    -0.8356 C.ar    
   5 C5             2.3950     1.4081    -0.1237 C.ar    
   6 C6             1.2369     1.8953     0.4895 C.ar    
   7 C7             4.8635    -0.0029     0.2167 C.3     
   8 C8             4.8270     1.5012     0.0670 C.2     
   9 C9             3.6566     2.1597    -0.0203 C.2     
  10 C10            6.2028    -0.4414     0.8009 C.3     
  11 C11            6.8738     0.6001     1.6947 C.3     
  12 N12            7.0928     1.8219     0.9206 N.pl3   
  13 C13            6.1093     2.2255     0.0199 C.2     
  14 N14           -1.1789    -0.7321    -0.4215 N.pl3   
  15 C15           -2.0017    -1.0762     0.6030 C.2     
  16 C16           -1.7459    -1.2155    -1.5722 C.2     
  17 C17           -2.8845    -1.8391    -1.2140 C.2     
  18 N18           -3.0159    -1.7389     0.1171 N.2     
  19 C19           -3.8471    -2.5266    -2.1477 C.3     
  20 C20           -0.9652     2.8927     1.6929 C.3     
  21 O21           -1.0741     1.6588     0.9804 O.3     
  22 C22            8.2969     2.6374     1.0732 C.3     
  23 C23            8.6854     3.1876    -0.3034 C.3     
  24 O24            7.5719     3.8461    -0.8983 O.3     
  25 N25            6.3321     3.1806    -0.8225 N.2     
  26 C26            8.0203     3.7795     2.0168 C.ar    
  27 C27            8.9768     4.1604     2.9393 C.ar    
  28 C28            8.7245     5.2079     3.8047 C.ar    
  29 C29            7.5130     5.8759     3.7476 C.ar    
  30 C30            6.5557     5.4934     2.8232 C.ar    
  31 C31            6.8124     4.4491     1.9553 C.ar    
  32 F32            7.2650     6.8997     4.5934 F       
  33 C33            6.1589    -1.8415     1.4342 C.3     
  34 N34            7.4658    -2.0691     0.7779 N.3     
  35 C35            7.1540    -1.0451    -0.2443 C.3     
  36 H36            1.1389    -1.4261    -1.4814 H       
  37 H37            3.2454    -0.1739    -1.3100 H       
  38 H38            1.2655     2.8241     1.0399 H       
  39 H39            4.0589    -0.3194     0.8805 H       
  40 H40            4.7264    -0.4665    -0.7602 H       
  41 H41            3.6429     3.2396    -0.0145 H       
  42 H42            6.2301     0.8187     2.5468 H       
  43 H43            7.8307     0.2156     2.0478 H       
  44 H44           -1.8432    -0.8412     1.6452 H       
  45 H45           -1.3549    -1.1150    -2.5739 H       
  46 H46           -3.5612    -3.5725    -2.2588 H       
  47 H47           -4.8555    -2.4671    -1.7384 H       
  48 H48           -3.8208    -2.0374    -3.1214 H       
  49 H49           -1.9355     3.1558     2.1141 H       
  50 H50           -0.2372     2.7849     2.4970 H       
  51 H51           -0.6398     3.6784     1.0112 H       
  52 H52            9.1082     2.0244     1.4659 H       
  53 H53            9.5064     3.8957    -0.1912 H       
  54 H54            9.0042     2.3657    -0.9444 H       
  55 H55            9.9216     3.6390     2.9839 H       
  56 H56            9.4718     5.5051     4.5256 H       
  57 H57            5.6104     6.0138     2.7778 H       
  58 H58            6.0659     4.1506     1.2342 H       
  59 H59            6.2096    -1.8330     2.5229 H       
  60 H60            5.3581    -2.4729     1.0492 H       
  61 H61            8.2252    -1.7689     1.3706 H       
  62 H62            6.6461    -1.4421    -1.1232 H       
  63 H63            7.9980    -0.4020    -0.4935 H       
@<TRIPOS>BOND
   1    1    2 ar
   2    1    6 ar
   3    1   21 1
   4    2    3 ar
   5    2   14 1
   6    3    4 ar
   7    3   36 1
   8    4    5 ar
   9    4   37 1
  10    5    6 ar
  11    5    9 1
  12    6   38 1
  13    7    8 1
  14    7   10 1
  15    7   39 1
  16    7   40 1
  17    8    9 2
  18    8   13 1
  19    9   41 1
  20   10   11 1
  21   10   33 1
  22   10   35 1
  23   11   12 1
  24   11   42 1
  25   11   43 1
  26   12   13 1
  27   12   22 1
  28   13   25 2
  29   14   15 1
  30   14   16 1
  31   15   18 2
  32   15   44 1
  33   16   17 2
  34   16   45 1
  35   17   18 1
  36   17   19 1
  37   19   46 1
  38   19   47 1
  39   19   48 1
  40   20   21 1
  41   20   49 1
  42   20   50 1
  43   20   51 1
  44   22   23 1
  45   22   26 1
  46   22   52 1
  47   23   24 1
  48   23   53 1
  49   23   54 1
  50   24   25 1
  51   26   27 ar
  52   26   31 ar
  53   27   28 ar
  54   27   55 1
  55   28   29 ar
  56   28   56 1
  57   29   30 ar
  58   29   32 1
  59   30   31 ar
  60   30   57 1
  61   31   58 1
  62   33   34 1
  63   33   59 1
  64   33   60 1
  65   34   35 1
  66   34   61 1
  67   35   62 1
  68   35   63 1

#	End of record

