#	Name: ASD01148059
#	Creating user name:	WinNT
#	Creation time:	15. 06. 2019 19:01

#	Modifying user name:	WinNT
#	Modification time:	15. 06. 2019 19:01

#	Program:	/corina/corina34_cracker 3.40 0067  02.08.2006

@<TRIPOS>MOLECULE
ASD01148059
  46   46    0    0    0
SMALL
NO_CHARGES


@<TRIPOS>ATOM
   1 C1            -0.0184     1.5028     0.0103 C.2     
   2 C2             0.0021    -0.0041     0.0020 C.3     
   3 C3            -0.7002    -0.5305     1.2552 C.3     
   4 O4             1.0236     2.1234     0.0037 O.2     
   5 N5            -1.1946     2.1607     0.0195 N.am    
   6 O6            -0.0945     0.0411     2.4164 O.3     
   7 C7            -0.6794    -0.3874     3.6478 C.3     
   8 F8            -2.0322    -0.0316     3.6703 F       
   9 F9            -0.5606    -1.7767     3.7618 F       
  10 C10           -1.2145     3.6256     0.0275 C.3     
  11 C11           -2.6419     4.1085     0.0369 C.ar    
  12 C12           -3.2904     4.3234     1.2380 C.ar    
  13 C13           -4.6022     4.7672     1.2463 C.ar    
  14 C14           -5.2623     4.9951     0.0510 C.ar    
  15 C15           -4.6115     4.7795    -1.1493 C.ar    
  16 C16           -3.3004     4.3419    -1.1563 C.ar    
  17 N17            1.3897    -0.4735    -0.0138 N.am    
  18 C18            1.6843    -1.6889    -0.5164 C.2     
  19 O19            2.9596    -2.1204    -0.5309 O.3     
  20 O20            0.7989    -2.3952    -0.9565 O.2     
  21 F21           -5.2374     4.9771     2.4200 F       
  22 C22            3.2029    -3.4393    -1.0871 C.3     
  23 C23            2.7417    -3.4709    -2.5456 C.3     
  24 C24            4.6987    -3.7538    -1.0183 C.3     
  25 C25            2.4249    -4.4832    -0.2835 C.3     
  26 H26           -0.5153    -0.3696    -0.8850 H       
  27 H27           -1.7547    -0.2563     1.2231 H       
  28 H28           -0.6082    -1.6159     1.2944 H       
  29 H29           -2.0280     1.6644     0.0207 H       
  30 H30           -0.1640     0.0909     4.4807 H       
  31 H31           -0.7014     3.9910     0.9171 H       
  32 H32           -0.7098     4.0007    -0.8628 H       
  33 H33           -2.7746     4.1449     2.1699 H       
  34 H34           -6.2854     5.3409     0.0562 H       
  35 H35           -5.1263     4.9572    -2.0819 H       
  36 H36           -2.7912     4.1783    -2.0946 H       
  37 H37            2.0965     0.0903     0.3376 H       
  38 H38            3.2960    -2.7272    -3.1181 H       
  39 H39            2.9244    -4.4610    -2.9631 H       
  40 H40            1.6761    -3.2468    -2.5946 H       
  41 H41            5.0273    -3.7313     0.0207 H       
  42 H42            4.8814    -4.7439    -1.4359 H       
  43 H43            5.2530    -3.0101    -1.5909 H       
  44 H44            1.3593    -4.2592    -0.3324 H       
  45 H45            2.6076    -5.4734    -0.7010 H       
  46 H46            2.7535    -4.4608     0.7556 H       
@<TRIPOS>BOND
   1    1    2 1
   2    1    4 2
   3    1    5 am
   4    2    3 1
   5    2   17 1
   6    2   26 1
   7    3    6 1
   8    3   27 1
   9    3   28 1
  10    5   10 1
  11    5   29 1
  12    6    7 1
  13    7    8 1
  14    7    9 1
  15    7   30 1
  16   10   11 1
  17   10   31 1
  18   10   32 1
  19   11   12 ar
  20   11   16 ar
  21   12   13 ar
  22   12   33 1
  23   13   14 ar
  24   13   21 1
  25   14   15 ar
  26   14   34 1
  27   15   16 ar
  28   15   35 1
  29   16   36 1
  30   17   18 am
  31   17   37 1
  32   18   19 1
  33   18   20 2
  34   19   22 1
  35   22   23 1
  36   22   24 1
  37   22   25 1
  38   23   38 1
  39   23   39 1
  40   23   40 1
  41   24   41 1
  42   24   42 1
  43   24   43 1
  44   25   44 1
  45   25   45 1
  46   25   46 1

#	End of record

