#	Name: ASD01884623
#	Creating user name:	WinNT
#	Creation time:	15. 06. 2019 19:48

#	Modifying user name:	WinNT
#	Modification time:	15. 06. 2019 19:48

#	Program:	/corina/corina34_cracker 3.40 0067  02.08.2006

@<TRIPOS>MOLECULE
ASD01884623
  37   39    0    0    0
SMALL
NO_CHARGES


@<TRIPOS>ATOM
   1 C1            -0.0164     1.3576     0.0095 C.2     
   2 C2             0.0021    -0.0041     0.0020 C.2     
   3 C3             1.2441    -0.6751    -0.0134 C.2     
   4 C4             2.4026     0.0466    -0.0206 C.2     
   5 N5             2.3700     1.4026    -0.0126 N.am    
   6 C6             1.1985     2.0653     0.0017 C.2     
   7 O7             1.1909     3.2857     0.0088 O.2     
   8 C8             3.6265     2.1559    -0.0196 C.3     
   9 C9             1.2898    -2.1580    -0.0214 C.ar    
  10 C10            4.0446     2.4223    -1.4427 C.ar    
  11 C11            3.4606     3.4568    -2.1536 C.ar    
  12 C12            3.8453     3.7009    -3.4611 C.ar    
  13 C13            4.8124     2.9110    -4.0554 C.ar    
  14 C14            5.3951     1.8774    -3.3433 C.ar    
  15 C15            5.0152     1.6373    -2.0364 C.ar    
  16 Cl16           5.2951     3.2158    -5.6948 Cl      
  17 F17            2.5155     4.2275    -1.5721 F       
  18 C18            1.6341    -2.8532     1.1345 C.ar    
  19 C19            1.6749    -4.2334     1.1225 C.ar    
  20 C20            1.3748    -4.9299    -0.0346 C.ar    
  21 C21            1.0321    -4.2509    -1.1886 C.ar    
  22 C22            0.9814    -2.8648    -1.1897 C.ar    
  23 N23            0.6355    -2.1772    -2.3540 N.pl3   
  24 H24           -0.9563     1.8894     0.0169 H       
  25 H25           -0.9217    -0.5635     0.0082 H       
  26 H26            3.3531    -0.4662    -0.0325 H       
  27 H27            3.4852     3.1031     0.5010 H       
  28 H28            4.4003     1.5765     0.4840 H       
  29 H29            3.3900     4.5075    -4.0166 H       
  30 H30            6.1504     1.2607    -3.8077 H       
  31 H31            5.4705     0.8304    -1.4815 H       
  32 H32            1.8694    -2.3134     2.0399 H       
  33 H33            1.9425    -4.7714     2.0199 H       
  34 H34            1.4089    -6.0094    -0.0362 H       
  35 H35            0.7995    -4.8001    -2.0890 H       
  36 H36            0.4300    -2.6687    -3.1646 H       
  37 H37            0.6007    -1.2079    -2.3525 H       
@<TRIPOS>BOND
   1    1    2 2
   2    1    6 1
   3    1   24 1
   4    2    3 1
   5    2   25 1
   6    3    4 2
   7    3    9 1
   8    4    5 1
   9    4   26 1
  10    5    6 am
  11    5    8 1
  12    6    7 2
  13    8   10 1
  14    8   27 1
  15    8   28 1
  16    9   18 ar
  17    9   22 ar
  18   10   11 ar
  19   10   15 ar
  20   11   12 ar
  21   11   17 1
  22   12   13 ar
  23   12   29 1
  24   13   14 ar
  25   13   16 1
  26   14   15 ar
  27   14   30 1
  28   15   31 1
  29   18   19 ar
  30   18   32 1
  31   19   20 ar
  32   19   33 1
  33   20   21 ar
  34   20   34 1
  35   21   22 ar
  36   21   35 1
  37   22   23 1
  38   23   36 1
  39   23   37 1

#	End of record

