#	Name: ASD02160012
#	Creating user name:	WinNT
#	Creation time:	15. 06. 2019 20:18

#	Modifying user name:	WinNT
#	Modification time:	15. 06. 2019 20:18

#	Program:	/corina/corina34_cracker 3.40 0067  02.08.2006

@<TRIPOS>MOLECULE
ASD02160012
  58   60    0    0    0
SMALL
NO_CHARGES


@<TRIPOS>ATOM
   1 C1             0.2677     2.1493     0.0318 C.3     
   2 C2             0.6054     0.6926     0.1763 C.2     
   3 C3             1.8141     0.2158    -0.1685 C.2     
   4 N4             2.7827     1.0492    -0.6574 N.pl3   
   5 C5             2.6862     2.4017    -0.4747 C.2     
   6 C6             1.5142     2.9697    -0.1429 C.2     
   7 C7             2.1058    -1.2546    -0.0141 C.3     
   8 C8             3.9092     3.2652    -0.6469 C.3     
   9 C9             1.4532     4.3697     0.0465 C.2     
  10 O10            2.4549     5.0466    -0.0917 O.2     
  11 O11            0.2840     4.9551     0.3804 O.3     
  12 C12            0.2953     6.3733     0.5559 C.3     
  13 C13           -1.0880     6.8451     0.9233 C.ar    
  14 C14           -0.6215     2.3356    -1.1706 C.ar    
  15 C15           -0.3690    -0.1962     0.6865 C.2     
  16 O16           -1.0627    -0.9919    -0.1542 O.3     
  17 O17           -0.5821    -0.2434     1.8837 O.2     
  18 C18           -1.9895     7.2038    -0.0612 C.ar    
  19 C19           -1.4743     6.9194     2.2526 C.ar    
  20 C20           -2.7568     7.3592     2.5435 C.ar    
  21 C21           -3.6012     7.7063     1.5062 C.ar    
  22 N22           -3.2014     7.6179     0.2525 N.ar    
  23 C23           -2.2525     2.6780    -3.3765 C.ar    
  24 C24           -0.9390     2.2800    -3.5431 C.ar    
  25 C25           -0.1235     2.1091    -2.4403 C.ar    
  26 C26           -1.9363     2.7275    -1.0037 C.ar    
  27 C27           -2.7521     2.8984    -2.1068 C.ar    
  28 C28           -2.0314    -1.8650     0.4300 C.3     
  29 N29           -2.4713     2.9636     0.3561 N.pl3   
  30 O30           -2.1764     2.2096     1.2660 O.2     
  31 O31           -3.2065     3.9120     0.5651 O.2     
  32 C32           -3.3837    -1.1526     0.4998 C.3     
  33 C33           -2.1631    -3.1264    -0.4258 C.3     
  34 H34           -0.2610     2.4854     0.9238 H       
  35 H35            3.5415     0.6795    -1.1355 H       
  36 H36            1.7498    -1.7901    -0.8942 H       
  37 H37            3.1806    -1.4027     0.0912 H       
  38 H38            1.5981    -1.6347     0.8725 H       
  39 H39            4.7612     2.6395    -0.9129 H       
  40 H40            3.7317     3.9929    -1.4387 H       
  41 H41            4.1194     3.7876     0.2864 H       
  42 H42            0.9920     6.6353     1.3522 H       
  43 H43            0.6079     6.8518    -0.3723 H       
  44 H44           -1.6978     7.1444    -1.0994 H       
  45 H45           -0.7927     6.6411     3.0427 H       
  46 H46           -3.0916     7.4293     3.5679 H       
  47 H47           -4.6016     8.0498     1.7245 H       
  48 H48           -2.8897     2.8115    -4.2382 H       
  49 H49           -0.5486     2.1077    -4.5352 H       
  50 H50            0.9028     1.7990    -2.5705 H       
  51 H51           -3.7781     3.2093    -1.9767 H       
  52 H52           -1.7132    -2.1398     1.4357 H       
  53 H53           -3.7019    -0.8778    -0.5058 H       
  54 H54           -4.1226    -1.8186     0.9455 H       
  55 H55           -3.2899    -0.2540     1.1095 H       
  56 H56           -1.1997    -3.6339    -0.4755 H       
  57 H57           -2.9020    -3.7923     0.0198 H       
  58 H58           -2.4813    -2.8515    -1.4315 H       
@<TRIPOS>BOND
   1    1    2 1
   2    1    6 1
   3    1   14 1
   4    1   34 1
   5    2    3 2
   6    2   15 1
   7    3    4 1
   8    3    7 1
   9    4    5 1
  10    4   35 1
  11    5    6 2
  12    5    8 1
  13    6    9 1
  14    7   36 1
  15    7   37 1
  16    7   38 1
  17    8   39 1
  18    8   40 1
  19    8   41 1
  20    9   10 2
  21    9   11 1
  22   11   12 1
  23   12   13 1
  24   12   42 1
  25   12   43 1
  26   13   19 ar
  27   13   18 ar
  28   14   26 ar
  29   14   25 ar
  30   15   16 1
  31   15   17 2
  32   16   28 1
  33   18   22 ar
  34   18   44 1
  35   19   20 ar
  36   19   45 1
  37   20   21 ar
  38   20   46 1
  39   21   22 ar
  40   21   47 1
  41   23   24 ar
  42   23   27 ar
  43   23   48 1
  44   24   25 ar
  45   24   49 1
  46   25   50 1
  47   26   27 ar
  48   26   29 1
  49   27   51 1
  50   28   32 1
  51   28   33 1
  52   28   52 1
  53   29   30 2
  54   29   31 2
  55   32   53 1
  56   32   54 1
  57   32   55 1
  58   33   56 1
  59   33   57 1
  60   33   58 1

#	End of record

