#	Name: ASD06170317
#	Creating user name:	WinNT
#	Creation time:	15. 06. 2019 21:05

#	Modifying user name:	WinNT
#	Modification time:	15. 06. 2019 21:05

#	Program:	/corina/corina34_cracker 3.40 0067  02.08.2006

@<TRIPOS>MOLECULE
ASD06170317
  67   71    0    0    0
SMALL
NO_CHARGES


@<TRIPOS>ATOM
   1 N1             0.1279     1.3870     0.6629 N.am    
   2 N2             0.1434     0.0029     0.8588 N.pl3   
   3 C3             1.3686    -0.4853     0.5862 C.2     
   4 C4             2.1837     0.5629     0.2062 C.2     
   5 C5             1.3556     1.7780     0.2624 C.2     
   6 C6             3.5981     0.4810    -0.1777 C.2     
   7 O7             4.1664    -0.5951    -0.1808 O.2     
   8 N8             4.2673     1.5976    -0.5268 N.am    
   9 C9            -1.0029    -0.7977     1.2962 C.3     
  10 C10            1.7808    -1.9318     0.6800 C.3     
  11 C11            5.6518     1.5490    -0.7312 C.ar    
  12 C12            6.2508     0.3687    -1.1501 C.ar    
  13 C13            7.6166     0.3203    -1.3518 C.ar    
  14 C14            8.3905     1.4501    -1.1356 C.ar    
  15 C15            7.7925     2.6325    -0.7163 C.ar    
  16 C16            6.4252     2.6832    -0.5203 C.ar    
  17 O17            9.7351     1.4013    -1.3336 O.3     
  18 N18           12.1617     1.3782     2.0011 N.ar    
  19 C19           12.7362     1.2387     0.8004 C.ar    
  20 C20           11.9387     1.2414    -0.3699 C.ar    
  21 C21           10.5391     1.3923    -0.2423 C.ar    
  22 C22           10.0148     1.5311     1.0310 C.ar    
  23 C23           10.8633     1.5194     2.1305 C.ar    
  24 O24            1.7086     2.9125    -0.0006 O.2     
  25 C25           -0.9777     2.2259     0.8458 C.ar    
  26 C26           -1.7858     2.0770     1.9652 C.ar    
  27 C27           12.5431     1.0961    -1.6272 C.ar    
  28 C28           13.8934     0.9530    -1.7171 C.ar    
  29 C29           14.6902     0.9490    -0.5686 C.ar    
  30 C30           14.1270     1.0891     0.6796 C.ar    
  31 C31           16.5606     0.6621    -2.0070 C.3     
  32 O32           16.0358     0.8042    -0.6855 O.3     
  33 C33           -1.6906    -1.4130     0.0759 C.3     
  34 C34           -2.8761     2.9057     2.1437 C.ar    
  35 C35           -3.1640     3.8842     1.2071 C.ar    
  36 C36           -2.3595     4.0343     0.0901 C.ar    
  37 C37           -1.2646     3.2118    -0.0891 C.ar    
  38 O38           -2.1407    -0.3715    -0.7928 O.3     
  39 F39           -4.2316     4.6932     1.3831 F       
  40 F40            8.5467     3.7334    -0.5052 F       
  41 C41           -2.8878    -2.2491     0.5327 C.3     
  42 H42            3.7900     2.4348    -0.6365 H       
  43 H43           -0.6595    -1.5921     1.9588 H       
  44 H44           -1.7091    -0.1605     1.8285 H       
  45 H45            1.6056    -2.4224    -0.2774 H       
  46 H46            2.8398    -1.9923     0.9309 H       
  47 H47            1.1951    -2.4270     1.4545 H       
  48 H48            5.6488    -0.5121    -1.3180 H       
  49 H49            8.0818    -0.5983    -1.6776 H       
  50 H50            5.9592     3.6029    -0.1987 H       
  51 H51            8.9502     1.6490     1.1690 H       
  52 H52           10.4430     1.6289     3.1193 H       
  53 H53           -1.5620     1.3136     2.6955 H       
  54 H54           11.9381     1.0973    -2.5219 H       
  55 H55           14.3548     0.8410    -2.6871 H       
  56 H56           14.7514     1.0850     1.5608 H       
  57 H57           16.1290    -0.2220    -2.4763 H       
  58 H58           16.3088     1.5449    -2.5948 H       
  59 H59           17.6442     0.5551    -1.9581 H       
  60 H60           -0.9843    -2.0502    -0.4564 H       
  61 H61           -3.5049     2.7903     3.0141 H       
  62 H62           -2.5860     4.7978    -0.6394 H       
  63 H63           -0.6371     3.3294    -0.9603 H       
  64 H64           -2.7733     0.2353    -0.3846 H       
  65 H65           -3.5940    -1.6118     1.0649 H       
  66 H66           -3.3777    -2.6874    -0.3367 H       
  67 H67           -2.5445    -3.0435     1.1953 H       
@<TRIPOS>BOND
   1    1    2 1
   2    1    5 am
   3    1   25 1
   4    2    3 1
   5    2    9 1
   6    3    4 2
   7    3   10 1
   8    4    5 1
   9    4    6 1
  10    5   24 2
  11    6    7 2
  12    6    8 am
  13    8   11 1
  14    8   42 1
  15    9   33 1
  16    9   43 1
  17    9   44 1
  18   10   45 1
  19   10   46 1
  20   10   47 1
  21   11   12 ar
  22   11   16 ar
  23   12   13 ar
  24   12   48 1
  25   13   14 ar
  26   13   49 1
  27   14   15 ar
  28   14   17 1
  29   15   16 ar
  30   15   40 1
  31   16   50 1
  32   17   21 1
  33   18   19 ar
  34   18   23 ar
  35   19   20 ar
  36   19   30 ar
  37   20   21 ar
  38   20   27 ar
  39   21   22 ar
  40   22   23 ar
  41   22   51 1
  42   23   52 1
  43   25   26 ar
  44   25   37 ar
  45   26   34 ar
  46   26   53 1
  47   27   28 ar
  48   27   54 1
  49   28   29 ar
  50   28   55 1
  51   29   30 ar
  52   29   32 1
  53   30   56 1
  54   31   32 1
  55   31   57 1
  56   31   58 1
  57   31   59 1
  58   33   38 1
  59   33   41 1
  60   33   60 1
  61   34   35 ar
  62   34   61 1
  63   35   36 ar
  64   35   39 1
  65   36   37 ar
  66   36   62 1
  67   37   63 1
  68   38   64 1
  69   41   65 1
  70   41   66 1
  71   41   67 1

#	End of record

