#	Name: ASD00310319
#	Creating user name:	WinNT
#	Creation time:	15. 06. 2019 18:34

#	Modifying user name:	WinNT
#	Modification time:	15. 06. 2019 18:34

#	Program:	/corina/corina34_cracker 3.40 0067  02.08.2006

@<TRIPOS>MOLECULE
ASD00310319
  38   41    0    0    0
SMALL
NO_CHARGES


@<TRIPOS>ATOM
   1 C1            -0.0187     1.5258     0.0104 C.3     
   2 C2             0.0021    -0.0041     0.0020 C.3     
   3 C3             1.3165     0.7789    -0.0063 C.3     
   4 C4            -0.4420     2.2229    -1.2568 C.2     
   5 O5            -0.7486     1.5748    -2.2293 O.2     
   6 O6            -0.4783     3.5638    -1.3051 O.3     
   7 C7            -0.4176     2.2092     1.2929 C.ar    
   8 C8            -0.4531     3.5906     1.3554 C.ar    
   9 C9            -0.8182     4.2218     2.5272 C.ar    
  10 C10           -1.1514     3.4647     3.6487 C.ar    
  11 C11           -1.1139     2.0734     3.5801 C.ar    
  12 C12           -0.7525     1.4527     2.4015 C.ar    
  13 N13           -2.8548     5.8535     8.4456 N.pl3   
  14 C14           -3.9887     5.1693     8.6909 C.2     
  15 C15           -4.1948     4.2412     7.6927 C.2     
  16 C16           -3.0640     4.3888     6.7543 C.ar    
  17 C17           -2.7046     3.7533     5.5715 C.ar    
  18 C18           -1.5442     4.1376     4.9114 C.ar    
  19 C19           -0.7457     5.1588     5.4375 C.ar    
  20 C20           -1.1002     5.7890     6.6086 C.ar    
  21 C21           -2.2606     5.4132     7.2805 C.ar    
  22 C22           -5.2739     3.3287     7.5885 C.2     
  23 O23           -6.1414     3.3148     8.4378 O.2     
  24 Cl24           0.7030     5.6340     4.6076 Cl      
  25 H25           -0.2728    -0.5162     0.9241 H       
  26 H26           -0.2904    -0.5063    -0.9201 H       
  27 H27            1.8888     0.7918    -0.9339 H       
  28 H28            1.9064     0.7818     0.9103 H       
  29 H29           -0.7561     3.9657    -2.1396 H       
  30 H30           -0.1943     4.1763     0.4857 H       
  31 H31           -0.8452     5.3004     2.5751 H       
  32 H32           -1.3713     1.4819     4.4462 H       
  33 H33           -0.7271     0.3745     2.3460 H       
  34 H34           -2.5057     6.5619     9.0089 H       
  35 H35           -4.6374     5.3239     9.5404 H       
  36 H36           -3.3230     2.9647     5.1688 H       
  37 H37           -0.4772     6.5761     7.0072 H       
  38 H38           -5.3248     2.6455     6.7536 H       
@<TRIPOS>BOND
   1    1    2 1
   2    1    3 1
   3    1    4 1
   4    1    7 1
   5    2    3 1
   6    2   25 1
   7    2   26 1
   8    3   27 1
   9    3   28 1
  10    4    5 2
  11    4    6 1
  12    6   29 1
  13    7    8 ar
  14    7   12 ar
  15    8    9 ar
  16    8   30 1
  17    9   10 ar
  18    9   31 1
  19   10   11 ar
  20   10   18 1
  21   11   12 ar
  22   11   32 1
  23   12   33 1
  24   13   14 1
  25   13   21 1
  26   13   34 1
  27   14   15 2
  28   14   35 1
  29   15   16 1
  30   15   22 1
  31   16   17 ar
  32   16   21 ar
  33   17   18 ar
  34   17   36 1
  35   18   19 ar
  36   19   20 ar
  37   19   24 1
  38   20   21 ar
  39   20   37 1
  40   22   23 2
  41   22   38 1

#	End of record

