#	Name: ASD03091185
#	Creating user name:	WinNT
#	Creation time:	15. 06. 2019 20:30

#	Modifying user name:	WinNT
#	Modification time:	15. 06. 2019 20:30

#	Program:	/corina/corina34_cracker 3.40 0067  02.08.2006

@<TRIPOS>MOLECULE
ASD03091185
  55   56    0    0    0
SMALL
NO_CHARGES


@<TRIPOS>ATOM
   1 C1            -0.7447     0.3554     0.8166 C.ar    
   2 C2            -0.5579    -0.8575     0.1712 C.ar    
   3 C3             0.7273    -1.2755    -0.1180 C.ar    
   4 N4             1.7677    -0.5356     0.2126 N.ar    
   5 C5             1.6277     0.6226     0.8273 C.ar    
   6 C6             0.3732     1.1055     1.1483 C.ar    
   7 C7             5.4860    -2.2989    -3.8893 C.ar    
   8 N8             5.0066    -1.1778    -3.3870 N.ar    
   9 C9             4.6927    -0.1524    -4.1546 C.ar    
  10 C10            4.8572    -0.2189    -5.5252 C.ar    
  11 C11            5.3588    -1.3816    -6.0899 C.ar    
  12 C12            5.6775    -2.4385    -5.2509 C.ar    
  13 C13            4.8174    -1.0687    -1.9384 C.3     
  14 C14            3.3235    -0.9609    -1.6259 C.3     
  15 C15            3.1143    -1.0132    -0.1112 C.3     
  16 C16            0.9423    -2.5922    -0.8187 C.3     
  17 C17            0.8504    -2.3856    -2.3319 C.3     
  18 C18            2.3256    -3.1400    -0.4619 C.3     
  19 C19           -0.1308    -3.5879    -0.3738 C.3     
  20 C20            4.1478     1.1062    -3.5300 C.3     
  21 C21            2.6188     1.0774    -3.5754 C.3     
  22 C22            4.6132     1.1964    -2.0753 C.3     
  23 C23            4.6583     2.3225    -4.3052 C.3     
  24 H24           -1.7376     0.7095     1.0513 H       
  25 H25           -1.4059    -1.4680    -0.1017 H       
  26 H26            2.5035     1.2007     1.0825 H       
  27 H27            0.2650     2.0548     1.6517 H       
  28 H28            5.7360    -3.1158    -3.2286 H       
  29 H29            4.5979     0.6241    -6.1486 H       
  30 H30            5.4976    -1.4623    -7.1579 H       
  31 H31            6.0708    -3.3590    -5.6562 H       
  32 H32            5.2277    -1.9529    -1.4508 H       
  33 H33            5.3305    -0.1800    -1.5709 H       
  34 H34            2.9383    -0.0178    -2.0135 H       
  35 H35            2.7935    -1.7900    -2.0947 H       
  36 H36            3.8525    -0.3790     0.3797 H       
  37 H37            3.2290    -2.0400     0.2362 H       
  38 H38            1.6149    -1.6763    -2.6489 H       
  39 H39            1.0059    -3.3380    -2.8387 H       
  40 H40           -0.1351    -1.9954    -2.5861 H       
  41 H41            2.4835    -3.0557     0.6134 H       
  42 H42            2.3891    -4.1872    -0.7575 H       
  43 H43            3.0898    -2.5672    -0.9873 H       
  44 H44           -1.1089    -3.2411    -0.7073 H       
  45 H45            0.0766    -4.5648    -0.8104 H       
  46 H46           -0.1246    -3.6671     0.7133 H       
  47 H47            2.2551     0.2109    -3.0232 H       
  48 H48            2.2247     1.9877    -3.1237 H       
  49 H49            2.2872     1.0131    -4.6118 H       
  50 H50            5.6588     0.8958    -2.0090 H       
  51 H51            4.5071     2.2224    -1.7229 H       
  52 H52            4.0052     0.5354    -1.4577 H       
  53 H53            4.2529     2.3049    -5.3168 H       
  54 H54            4.3386     3.2347    -3.8015 H       
  55 H55            5.7470     2.2943    -4.3495 H       
@<TRIPOS>BOND
   1    1    2 ar
   2    1    6 ar
   3    1   24 1
   4    2    3 ar
   5    2   25 1
   6    3    4 ar
   7    3   16 1
   8    4    5 ar
   9    4   15 1
  10    5    6 ar
  11    5   26 1
  12    6   27 1
  13    7    8 ar
  14    7   12 ar
  15    7   28 1
  16    8    9 ar
  17    8   13 1
  18    9   10 ar
  19    9   20 1
  20   10   11 ar
  21   10   29 1
  22   11   12 ar
  23   11   30 1
  24   12   31 1
  25   13   14 1
  26   13   32 1
  27   13   33 1
  28   14   15 1
  29   14   34 1
  30   14   35 1
  31   15   36 1
  32   15   37 1
  33   16   17 1
  34   16   18 1
  35   16   19 1
  36   17   38 1
  37   17   39 1
  38   17   40 1
  39   18   41 1
  40   18   42 1
  41   18   43 1
  42   19   44 1
  43   19   45 1
  44   19   46 1
  45   20   21 1
  46   20   22 1
  47   20   23 1
  48   21   47 1
  49   21   48 1
  50   21   49 1
  51   22   50 1
  52   22   51 1
  53   22   52 1
  54   23   53 1
  55   23   54 1
  56   23   55 1

#	End of record

