#	Name: ASD01190087
#	Creating user name:	WinNT
#	Creation time:	15. 06. 2019 19:07

#	Modifying user name:	WinNT
#	Modification time:	15. 06. 2019 19:07

#	Program:	/corina/corina34_cracker 3.40 0067  02.08.2006

@<TRIPOS>MOLECULE
ASD01190087
  53   57    0    0    0
SMALL
NO_CHARGES


@<TRIPOS>ATOM
   1 C1            -0.0187     1.5258     0.0104 C.3     
   2 C2             0.0072     0.0365     0.3601 C.3     
   3 N3             5.2791     3.3902    -0.2473 N.pl3   
   4 N4             5.6920     2.7086    -1.3969 N.2     
   5 C5             4.7135     1.9869    -1.8652 C.2     
   6 C6             3.5595     2.1788    -0.9925 C.ar    
   7 C7             2.2525     1.6789    -0.9842 C.ar    
   8 C8             1.3890     2.0638     0.0001 C.ar    
   9 C9             1.7952     2.9476     0.9925 C.ar    
  10 C10            3.0659     3.4494     1.0052 C.ar    
  11 C11            3.9691     3.0744     0.0143 C.ar    
  12 C12            6.0762     4.2518     0.5174 C.ar    
  13 C13            7.4309     3.9898     0.6744 C.ar    
  14 C14            8.2148     4.8404     1.4287 C.ar    
  15 C15            7.6509     5.9541     2.0284 C.ar    
  16 C16            6.3002     6.2171     1.8732 C.ar    
  17 C17            5.5138     5.3722     1.1149 C.ar    
  18 F18            8.4195     6.7847     2.7664 F       
  19 F19            0.5816    -0.1359     1.6240 F       
  20 F20           -1.2996    -0.4630     0.3697 F       
  21 F21            0.7631    -0.6534    -0.5938 F       
  22 N22           -1.5999     1.2913    -3.3066 N.pl3   
  23 C23           -1.1145     0.7440    -2.1500 C.2     
  24 C24           -0.6375     1.7115    -1.3511 C.2     
  25 C25           -0.8333     2.9822    -2.0533 C.ar    
  26 C26           -0.5484     4.3143    -1.7465 C.ar    
  27 C27           -0.8636     5.2987    -2.6398 C.ar    
  28 C28           -1.4657     4.9851    -3.8517 C.ar    
  29 C29           -1.7555     3.6769    -4.1745 C.ar    
  30 C30           -1.4428     2.6590    -3.2791 C.ar    
  31 Br31          -1.8923     6.3667    -5.0704 Br      
  32 C32           -2.1925     0.5342    -4.4120 C.3     
  33 C33           -1.1371     0.2510    -5.4497 C.2     
  34 C34           -0.9077    -0.9810    -5.8313 C.2     
  35 O35           -0.7908     2.2304     0.9847 O.3     
  36 H36            4.7498     1.3588    -2.7430 H       
  37 H37            1.9289     0.9923    -1.7525 H       
  38 H38            1.0979     3.2416     1.7630 H       
  39 H39            3.3689     4.1358     1.7820 H       
  40 H40            7.8710     3.1213     0.2071 H       
  41 H41            9.2684     4.6368     1.5513 H       
  42 H42            5.8622     7.0859     2.3420 H       
  43 H43            4.4615     5.5803     0.9901 H       
  44 H44           -1.1152    -0.3101    -1.9148 H       
  45 H45           -0.0808     4.5656    -0.8060 H       
  46 H46           -0.6433     6.3288    -2.4017 H       
  47 H47           -2.2240     3.4428    -5.1190 H       
  48 H48           -2.5926    -0.4068    -4.0345 H       
  49 H49           -2.9968     1.1168    -4.8613 H       
  50 H50           -0.5698     1.0638    -5.8787 H       
  51 H51           -0.1513    -1.1839    -6.5750 H       
  52 H52           -1.4749    -1.7937    -5.4023 H       
  53 H53           -0.8504     3.1824     0.8258 H       
@<TRIPOS>BOND
   1    1    2 1
   2    1    8 1
   3    1   24 1
   4    1   35 1
   5    2   19 1
   6    2   20 1
   7    2   21 1
   8    3    4 1
   9    3   11 1
  10    3   12 1
  11    4    5 2
  12    5    6 1
  13    5   36 1
  14    6    7 ar
  15    6   11 ar
  16    7    8 ar
  17    7   37 1
  18    8    9 ar
  19    9   10 ar
  20    9   38 1
  21   10   11 ar
  22   10   39 1
  23   12   13 ar
  24   12   17 ar
  25   13   14 ar
  26   13   40 1
  27   14   15 ar
  28   14   41 1
  29   15   16 ar
  30   15   18 1
  31   16   17 ar
  32   16   42 1
  33   17   43 1
  34   22   23 1
  35   22   30 1
  36   22   32 1
  37   23   24 2
  38   23   44 1
  39   24   25 1
  40   25   26 ar
  41   25   30 ar
  42   26   27 ar
  43   26   45 1
  44   27   28 ar
  45   27   46 1
  46   28   29 ar
  47   28   31 1
  48   29   30 ar
  49   29   47 1
  50   32   33 1
  51   32   48 1
  52   32   49 1
  53   33   34 2
  54   33   50 1
  55   34   51 1
  56   34   52 1
  57   35   53 1

#	End of record

