#	Name: ASD01190066
#	Creating user name:	WinNT
#	Creation time:	15. 06. 2019 19:07

#	Modifying user name:	WinNT
#	Modification time:	15. 06. 2019 19:07

#	Program:	/corina/corina34_cracker 3.40 0067  02.08.2006

@<TRIPOS>MOLECULE
ASD01190066
  45   48    0    0    0
SMALL
NO_CHARGES


@<TRIPOS>ATOM
   1 C1            -0.0168     1.3909     0.0097 C.ar    
   2 C2             0.0021    -0.0041     0.0020 C.ar    
   3 C3             1.2141    -0.6767    -0.0132 C.ar    
   4 C4             2.3999     0.0351    -0.0207 C.ar    
   5 C5             2.3812     1.4170    -0.0126 C.ar    
   6 C6             1.1765     2.0963     0.0021 C.ar    
   7 N7            -1.2376     2.0765     0.0192 N.pl3   
   8 N8            -1.1996    -0.7226     0.0101 N.pl3   
   9 C9            -1.2551     3.5414     0.0272 C.3     
  10 C10           -1.1422     4.0606    -1.4075 C.3     
  11 N11           -5.9330     5.5362     2.4244 N.pl3   
  12 N12           -5.3708     6.5930     3.1481 N.2     
  13 C13           -4.0837     6.6363     2.9503 C.2     
  14 C14           -3.7349     5.5502     2.0398 C.ar    
  15 C15           -2.5358     5.1023     1.4744 C.ar    
  16 C16           -2.5458     4.0250     0.6364 C.ar    
  17 C17           -3.7349     3.3703     0.3394 C.ar    
  18 C18           -4.9181     3.7893     0.8788 C.ar    
  19 C19           -4.9389     4.8851     1.7373 C.ar    
  20 C20           -7.2913     5.1937     2.4082 C.ar    
  21 C21           -8.0604     5.3453     3.5545 C.ar    
  22 C22           -9.3992     5.0071     3.5364 C.ar    
  23 C23           -9.9749     4.5169     2.3762 C.ar    
  24 C24           -9.2097     4.3649     1.2320 C.ar    
  25 C25           -7.8719     4.7074     1.2442 C.ar    
  26 F26          -11.2847     4.1861     2.3607 F       
  27 F27           -2.2206     3.5856    -2.1616 F       
  28 F28           -1.1588     5.4595    -1.3998 F       
  29 F29            0.0560     3.6116    -1.9731 F       
  30 H30            1.2323    -1.7565    -0.0188 H       
  31 H31            3.3433    -0.4905    -0.0325 H       
  32 H32            3.3100     1.9681    -0.0182 H       
  33 H33            1.1654     3.1762     0.0076 H       
  34 H34           -2.0718     1.5815     0.0204 H       
  35 H35           -2.0469    -0.2505     0.0210 H       
  36 H36           -1.1849    -1.6925     0.0047 H       
  37 H37           -0.4148     3.9115     0.6147 H       
  38 H38           -3.3972     7.3491     3.3828 H       
  39 H39           -1.6076     5.6063     1.6997 H       
  40 H40           -3.7236     2.5200    -0.3264 H       
  41 H41           -5.8353     3.2718     0.6395 H       
  42 H42           -7.6117     5.7272     4.4596 H       
  43 H43           -9.9975     5.1245     4.4278 H       
  44 H44           -9.6605     3.9822     0.3283 H       
  45 H45           -7.2767     4.5933     0.3503 H       
@<TRIPOS>BOND
   1    1    2 ar
   2    1    6 ar
   3    1    7 1
   4    2    3 ar
   5    2    8 1
   6    3    4 ar
   7    3   30 1
   8    4    5 ar
   9    4   31 1
  10    5    6 ar
  11    5   32 1
  12    6   33 1
  13    7    9 1
  14    7   34 1
  15    8   35 1
  16    8   36 1
  17    9   10 1
  18    9   16 1
  19    9   37 1
  20   10   27 1
  21   10   28 1
  22   10   29 1
  23   11   12 1
  24   11   19 1
  25   11   20 1
  26   12   13 2
  27   13   14 1
  28   13   38 1
  29   14   15 ar
  30   14   19 ar
  31   15   16 ar
  32   15   39 1
  33   16   17 ar
  34   17   18 ar
  35   17   40 1
  36   18   19 ar
  37   18   41 1
  38   20   21 ar
  39   20   25 ar
  40   21   22 ar
  41   21   42 1
  42   22   23 ar
  43   22   43 1
  44   23   24 ar
  45   23   26 1
  46   24   25 ar
  47   24   44 1
  48   25   45 1

#	End of record

