#	Name: ASD09740057
#	Creating user name:	WinNT
#	Creation time:	15. 06. 2019 21:22

#	Modifying user name:	WinNT
#	Modification time:	15. 06. 2019 21:22

#	Program:	/corina/corina34_cracker 3.40 0067  02.08.2006

@<TRIPOS>MOLECULE
ASD09740057
  43   45    0    0    0
SMALL
NO_CHARGES


@<TRIPOS>ATOM
   1 N1            -0.0144     1.2085     0.0087 N.2     
   2 O2             0.0021    -0.0041     0.0020 O.3     
   3 C3             1.2056     1.6802    -0.0004 C.2     
   4 N4             2.0459     0.6248    -0.0141 N.2     
   5 C5             1.2702    -0.4439    -0.0125 C.2     
   6 C6             1.7131    -1.8527    -0.0238 C.ar    
   7 C7             1.5942     3.1136     0.0036 C.ar    
   8 C8             0.7696    -2.8831    -0.0204 C.ar    
   9 C9             3.0753    -2.1577    -0.0438 C.ar    
  10 C10            3.4873    -3.4736    -0.0549 C.ar    
  11 C11            2.5506    -4.4971    -0.0467 C.ar    
  12 C12            1.1889    -4.1995    -0.0315 C.ar    
  13 C13            0.6253     4.1194     0.0187 C.ar    
  14 C14            1.0300     5.4395     0.0219 C.ar    
  15 N15            2.3104     5.7548     0.0108 N.ar    
  16 C16            3.2564     4.8357    -0.0037 C.ar    
  17 C17            2.9390     3.4924    -0.0019 C.ar    
  18 C18           -0.8404     3.7691     0.0310 C.3     
  19 O19            0.2731    -5.2049    -0.0230 O.3     
  20 C20           -1.9781    -6.0836     0.0001 C.3     
  21 C21           -1.1049    -4.8272    -0.0076 C.3     
  22 O22            2.9614    -5.7921    -0.0585 O.3     
  23 C23            4.6386    -7.5317    -0.0902 C.3     
  24 C24            4.3711    -6.0253    -0.0793 C.3     
  25 H25           -0.2851    -2.6511    -0.0087 H       
  26 H26            3.8066    -1.3629    -0.0510 H       
  27 H27            4.5414    -3.7081    -0.0704 H       
  28 H28            0.2881     6.2242     0.0332 H       
  29 H29            4.2931     5.1382    -0.0124 H       
  30 H30            3.7187     2.7452    -0.0138 H       
  31 H31           -1.1838     3.6787     1.0615 H       
  32 H32           -1.4056     4.5531    -0.4729 H       
  33 H33           -0.9919     2.8219    -0.4868 H       
  34 H34           -1.7731    -6.6739    -0.8930 H       
  35 H35           -1.7539    -6.6764     0.8869 H       
  36 H36           -3.0292    -5.7954     0.0118 H       
  37 H37           -1.3099    -4.2368     0.8854 H       
  38 H38           -1.3291    -4.2344    -0.8944 H       
  39 H39            4.1839    -7.9751    -0.9760 H       
  40 H40            5.7139    -7.7097    -0.1061 H       
  41 H41            4.2087    -7.9836     0.8038 H       
  42 H42            4.8010    -5.5735    -0.9733 H       
  43 H43            4.8258    -5.5819     0.8065 H       
@<TRIPOS>BOND
   1    1    2 1
   2    1    3 2
   3    2    5 1
   4    3    4 1
   5    3    7 1
   6    4    5 2
   7    5    6 1
   8    6    8 ar
   9    6    9 ar
  10    7   13 ar
  11    7   17 ar
  12    8   12 ar
  13    8   25 1
  14    9   10 ar
  15    9   26 1
  16   10   11 ar
  17   10   27 1
  18   11   12 ar
  19   11   22 1
  20   12   19 1
  21   13   14 ar
  22   13   18 1
  23   14   15 ar
  24   14   28 1
  25   15   16 ar
  26   16   17 ar
  27   16   29 1
  28   17   30 1
  29   18   31 1
  30   18   32 1
  31   18   33 1
  32   19   21 1
  33   20   21 1
  34   20   34 1
  35   20   35 1
  36   20   36 1
  37   21   37 1
  38   21   38 1
  39   22   24 1
  40   23   24 1
  41   23   39 1
  42   23   40 1
  43   23   41 1
  44   24   42 1
  45   24   43 1

#	End of record

