#	Name: ASD04590633
#	Creating user name:	WinNT
#	Creation time:	15. 06. 2019 20:51

#	Modifying user name:	WinNT
#	Modification time:	15. 06. 2019 20:51

#	Program:	/corina/corina34_cracker 3.40 0067  02.08.2006

@<TRIPOS>MOLECULE
ASD04590633
  69   74    0    0    0
SMALL
NO_CHARGES


@<TRIPOS>ATOM
   1 N1             0.0163     1.2535    -0.4005 N.ar    
   2 C2             0.0823    -0.0699    -0.4701 C.ar    
   3 N3             1.2302    -0.7250    -0.4080 N.ar    
   4 C4             2.3781    -0.0679    -0.2717 C.ar    
   5 C5             2.3418     1.3391    -0.1953 C.ar    
   6 C6             1.1108     1.9839    -0.2647 C.ar    
   7 N7             3.6866    -0.4734    -0.1817 N.pl3   
   8 C8             4.5240     0.6206    -0.0475 C.ar    
   9 C9             3.7337     1.7839    -0.0500 C.ar    
  10 C10            5.9004     0.7556     0.0790 C.ar    
  11 N11            6.4492     1.9478     0.1938 N.ar    
  12 C12            5.7354     3.0597     0.1950 C.ar    
  13 C13            4.3624     3.0222     0.0747 C.ar    
  14 N14           -1.0917    -0.7910    -0.6123 N.pl3   
  15 C15           -2.3221    -0.1352    -0.5724 C.ar    
  16 C16            4.1338    -1.8680    -0.2215 C.3     
  17 C17            3.6102    -2.6263     1.0157 C.3     
  18 C18            3.5432    -2.5759    -1.4534 C.3     
  19 C19            2.6814    -3.7398    -0.9219 C.3     
  20 C20            2.3125    -3.3115     0.5202 C.3     
  21 N21           -2.3573     1.1859    -0.5066 N.ar    
  22 C22           -3.4980     1.8481    -0.4670 C.ar    
  23 C23           -4.7100     1.1748    -0.4927 C.ar    
  24 C24           -4.7125    -0.2176    -0.5618 C.ar    
  25 C25           -3.4978    -0.8770    -0.6079 C.ar    
  26 N26           -5.9160     1.8844    -0.4494 N.3     
  27 C27           -6.7533     1.4313     0.6686 C.3     
  28 C28           -8.1171     2.1222     0.5990 C.3     
  29 C29           -5.6732     3.3309    -0.3787 C.3     
  30 C30           -7.0047     4.0785    -0.4796 C.3     
  31 C31           -7.9194     3.6390     0.6670 C.3     
  32 N32           -9.2203     4.3097     0.5419 N.3     
  33 C33          -10.1251     3.9104     1.6281 C.3     
  34 C34            6.7739    -0.4725     0.0855 C.3     
  35 C35           -9.0584     5.7692     0.5014 C.3     
  36 H36            1.0501     3.0607    -0.2094 H       
  37 H37            6.2349     4.0123     0.2924 H       
  38 H38            3.7849     3.9348     0.0761 H       
  39 H39           -1.0583    -1.7520    -0.7395 H       
  40 H40            5.2225    -1.9099    -0.2529 H       
  41 H41            4.3353    -3.3724     1.3409 H       
  42 H42            3.3890    -1.9300     1.8246 H       
  43 H43            2.9239    -1.8819    -2.0217 H       
  44 H44            4.3454    -2.9622    -2.0823 H       
  45 H45            1.7823    -3.8560    -1.5271 H       
  46 H46            3.2564    -4.6656    -0.9096 H       
  47 H47            2.0768    -4.1815     1.1331 H       
  48 H48            1.4817    -2.6060     0.5130 H       
  49 H49           -3.4875     2.9268    -0.4135 H       
  50 H50           -5.6414    -0.7682    -0.5832 H       
  51 H51           -3.4626    -1.9550    -0.6622 H       
  52 H52           -6.8895     0.3516     0.6061 H       
  53 H53           -6.2670     1.6818     1.6114 H       
  54 H54           -8.6099     1.8610    -0.3375 H       
  55 H55           -8.7328     1.7974     1.4378 H       
  56 H56           -5.1919     3.5725     0.5690 H       
  57 H57           -5.0249     3.6310    -1.2019 H       
  58 H58           -6.8256     5.1516    -0.4114 H       
  59 H59           -7.4800     3.8482    -1.4330 H       
  60 H60           -7.4619     3.9044     1.6201 H       
  61 H61           -9.6832     4.1810     2.5871 H       
  62 H62          -11.0808     4.4215     1.5113 H       
  63 H63          -10.2827     2.8325     1.5919 H       
  64 H64            6.9576    -0.7931    -0.9400 H       
  65 H65            7.7228    -0.2409     0.5692 H       
  66 H66            6.2730    -1.2717     0.6318 H       
  67 H67           -8.4405     6.0426    -0.3540 H       
  68 H68          -10.0367     6.2409     0.4084 H       
  69 H69           -8.5779     6.1071     1.4195 H       
@<TRIPOS>BOND
   1    1    2 ar
   2    1    6 ar
   3    2    3 ar
   4    2   14 1
   5    3    4 ar
   6    4    5 ar
   7    4    7 1
   8    5    6 ar
   9    5    9 1
  10    6   36 1
  11    7    8 1
  12    7   16 1
  13    8    9 ar
  14    8   10 ar
  15    9   13 ar
  16   10   11 ar
  17   10   34 1
  18   11   12 ar
  19   12   13 ar
  20   12   37 1
  21   13   38 1
  22   14   15 1
  23   14   39 1
  24   15   21 ar
  25   15   25 ar
  26   16   18 1
  27   16   17 1
  28   16   40 1
  29   17   20 1
  30   17   41 1
  31   17   42 1
  32   18   19 1
  33   18   43 1
  34   18   44 1
  35   19   20 1
  36   19   45 1
  37   19   46 1
  38   20   47 1
  39   20   48 1
  40   21   22 ar
  41   22   23 ar
  42   22   49 1
  43   23   24 ar
  44   23   26 1
  45   24   25 ar
  46   24   50 1
  47   25   51 1
  48   26   29 1
  49   26   27 1
  50   27   28 1
  51   27   52 1
  52   27   53 1
  53   28   31 1
  54   28   54 1
  55   28   55 1
  56   29   30 1
  57   29   56 1
  58   29   57 1
  59   30   31 1
  60   30   58 1
  61   30   59 1
  62   31   32 1
  63   31   60 1
  64   32   33 1
  65   32   35 1
  66   33   61 1
  67   33   62 1
  68   33   63 1
  69   34   64 1
  70   34   65 1
  71   34   66 1
  72   35   67 1
  73   35   68 1
  74   35   69 1

#	End of record

