#	Name: ASD01914316
#	Creating user name:	WinNT
#	Creation time:	15. 06. 2019 20:03

#	Modifying user name:	WinNT
#	Modification time:	15. 06. 2019 20:03

#	Program:	/corina/corina34_cracker 3.40 0067  02.08.2006

@<TRIPOS>MOLECULE
ASD01914316
  29   31    0    0    0
SMALL
NO_CHARGES


@<TRIPOS>ATOM
   1 N1            -0.0165     1.3626     0.0095 N.pl3   
   2 C2             0.0021    -0.0041     0.0020 C.2     
   3 C3             1.2814     1.7846    -0.0006 C.2     
   4 N4             2.0647     0.7308    -0.0137 N.2     
   5 C5             1.3087    -0.3820    -0.0125 C.2     
   6 C6             1.7306     3.1939     0.0022 C.ar    
   7 C7             3.0931     3.4949    -0.0091 C.ar    
   8 C8             3.5056     4.8115    -0.0063 C.ar    
   9 C9             2.5717     5.8321     0.0077 C.ar    
  10 C10            1.2194     5.5403     0.0194 C.ar    
  11 C11            0.7938     4.2279     0.0105 C.ar    
  12 C12            1.8122    -1.7778    -0.0240 C.ar    
  13 C13            3.1834    -2.0260    -0.0382 C.ar    
  14 C14            0.9153    -2.8443    -0.0150 C.ar    
  15 C15            1.3879    -4.1407    -0.0259 C.ar    
  16 C16            2.7519    -4.3827    -0.0453 C.ar    
  17 C17            3.6472    -3.3255    -0.0490 C.ar    
  18 F18            3.2103    -5.6535    -0.0554 F       
  19 H19           -0.8051     1.9274     0.0165 H       
  20 H20           -0.8568    -0.6589     0.0070 H       
  21 H21            3.8231     2.6991    -0.0197 H       
  22 H22            4.5599     5.0459    -0.0147 H       
  23 H23            2.8998     6.8611     0.0098 H       
  24 H24            0.4953     6.3416     0.0307 H       
  25 H25           -0.2622     4.0014     0.0197 H       
  26 H26            3.8820    -1.2024    -0.0411 H       
  27 H27           -0.1481    -2.6565     0.0008 H       
  28 H28            0.6935    -4.9678    -0.0189 H       
  29 H29            4.7096    -3.5187    -0.0641 H       
@<TRIPOS>BOND
   1    1    2 1
   2    1    3 1
   3    1   19 1
   4    2    5 2
   5    2   20 1
   6    3    4 2
   7    3    6 1
   8    4    5 1
   9    5   12 1
  10    6    7 ar
  11    6   11 ar
  12    7    8 ar
  13    7   21 1
  14    8    9 ar
  15    8   22 1
  16    9   10 ar
  17    9   23 1
  18   10   11 ar
  19   10   24 1
  20   11   25 1
  21   12   13 ar
  22   12   14 ar
  23   13   17 ar
  24   13   26 1
  25   14   15 ar
  26   14   27 1
  27   15   16 ar
  28   15   28 1
  29   16   17 ar
  30   16   18 1
  31   17   29 1

#	End of record

