#	Name: ASD08150495
#	Creating user name:	WinNT
#	Creation time:	15. 06. 2019 21:16

#	Modifying user name:	WinNT
#	Modification time:	15. 06. 2019 21:16

#	Program:	/corina/corina34_cracker 3.40 0067  02.08.2006

@<TRIPOS>MOLECULE
ASD08150495
  48   52    0    0    0
SMALL
NO_CHARGES


@<TRIPOS>ATOM
   1 N1             0.8885     2.9077    -1.6538 N.am    
   2 C2             1.1506     2.0961    -2.6966 C.2     
   3 C3             2.3048     1.2869    -2.7116 C.2     
   4 C4             3.1725     1.3151    -1.6682 C.2     
   5 C5             2.9000     2.1679    -0.5693 C.ar    
   6 C6             3.7676     2.2353     0.5377 C.ar    
   7 N7             3.5139     3.0227     1.5501 N.ar    
   8 C8             2.4248     3.8053     1.5951 C.ar    
   9 C9             1.4972     3.8022     0.5245 C.ar    
  10 C10            1.7424     2.9608    -0.5858 C.ar    
  11 C11            0.1630     5.4292     1.6882 C.ar    
  12 C12            1.0848     5.4267     2.7437 C.ar    
  13 C13            2.1909     4.6361     2.7030 C.ar    
  14 O14            0.3789     2.0606    -3.6398 O.2     
  15 C15           -0.2614     3.7058    -1.6653 C.ar    
  16 C16           -0.1827     5.0338    -2.0633 C.ar    
  17 C17           -1.3193     5.8185    -2.0741 C.ar    
  18 C18           -2.5345     5.2832    -1.6886 C.ar    
  19 C19           -2.6163     3.9609    -1.2916 C.ar    
  20 C20           -1.4847     3.1694    -1.2841 C.ar    
  21 C21           -3.7724     6.1426    -1.7006 C.3     
  22 C22            0.3651     4.6214     0.5817 C.ar    
  23 C23           -1.0366     6.3009     1.7572 C.2     
  24 C24           -1.0954     7.5499     2.3035 C.2     
  25 N25           -2.3598     7.9969     2.1639 N.pl3   
  26 N26           -3.1058     7.0048     1.5162 N.2     
  27 C27           -2.3197     5.9916     1.2651 C.2     
  28 C28           -2.8659     9.2964     2.6129 C.3     
  29 N29           -1.2363     7.2342    -2.4982 N.pl3   
  30 O30           -2.1375     7.7279    -3.1522 O.2     
  31 O31           -0.2669     7.9055    -2.1932 O.2     
  32 H32            2.4992     0.6421    -3.5560 H       
  33 H33            4.0577     0.6965    -1.6751 H       
  34 H34            4.6586     1.6252     0.5510 H       
  35 H35            0.9149     6.0613     3.6010 H       
  36 H36            2.8910     4.6469     3.5252 H       
  37 H37            0.7663     5.4527    -2.3639 H       
  38 H38           -3.5669     3.5457    -0.9911 H       
  39 H39           -1.5493     2.1368    -0.9744 H       
  40 H40           -4.2710     6.0480    -2.6653 H       
  41 H41           -4.4478     5.8178    -0.9091 H       
  42 H42           -3.4937     7.1834    -1.5361 H       
  43 H43           -0.3460     4.6242    -0.2312 H       
  44 H44           -0.2775     8.0836     2.7646 H       
  45 H45           -2.6057     5.0739     0.7728 H       
  46 H46           -2.7460    10.0286     1.8144 H       
  47 H47           -3.9218     9.2066     2.8680 H       
  48 H48           -2.3064     9.6207     3.4903 H       
@<TRIPOS>BOND
   1    1    2 am
   2    1   10 1
   3    1   15 1
   4    2    3 1
   5    2   14 2
   6    3    4 2
   7    3   32 1
   8    4    5 1
   9    4   33 1
  10    5    6 ar
  11    5   10 ar
  12    6    7 ar
  13    6   34 1
  14    7    8 ar
  15    8    9 ar
  16    8   13 ar
  17    9   10 ar
  18    9   22 ar
  19   11   12 ar
  20   11   23 1
  21   11   22 ar
  22   12   13 ar
  23   12   35 1
  24   13   36 1
  25   15   16 ar
  26   15   20 ar
  27   16   17 ar
  28   16   37 1
  29   17   18 ar
  30   17   29 1
  31   18   19 ar
  32   18   21 1
  33   19   20 ar
  34   19   38 1
  35   20   39 1
  36   21   40 1
  37   21   41 1
  38   21   42 1
  39   22   43 1
  40   23   24 2
  41   23   27 1
  42   24   25 1
  43   24   44 1
  44   25   26 1
  45   25   28 1
  46   26   27 2
  47   27   45 1
  48   28   46 1
  49   28   47 1
  50   28   48 1
  51   29   30 2
  52   29   31 2

#	End of record

