#	Name: ASD02030780
#	Creating user name:	WinNT
#	Creation time:	15. 06. 2019 20:16

#	Modifying user name:	WinNT
#	Modification time:	15. 06. 2019 20:16

#	Program:	/corina/corina34_cracker 3.40 0067  02.08.2006

@<TRIPOS>MOLECULE
ASD02030780
  38   41    0    0    0
SMALL
NO_CHARGES


@<TRIPOS>ATOM
   1 C1             0.2076     1.4970     0.0038 C.3     
   2 C2             0.1096    -0.0068    -0.0010 C.2     
   3 C3             0.0066    -0.6836    -1.1794 C.2     
   4 C4            -0.0834    -2.0876    -1.1650 C.2     
   5 N5            -0.1839    -2.7508    -2.3156 N.2     
   6 C6            -0.2707    -4.0714    -2.3439 C.2     
   7 C7            -0.3828    -4.7904    -3.6636 C.3     
   8 N8            -1.7866    -4.8291    -4.0809 N.pl3   
   9 N9            -2.7130    -5.8307    -3.7636 N.2     
  10 C10           -3.8589    -5.5178    -4.3136 C.2     
  11 Cl11          -5.3239    -6.4435    -4.2109 Cl      
  12 C12           -3.6990    -4.3076    -4.9983 C.2     
  13 C13           -2.4167    -3.9030    -4.8342 C.2     
  14 Cl14          -1.7094    -2.4554    -5.4804 Cl      
  15 C15           -0.2582    -4.7910    -1.1650 C.2     
  16 C16           -0.1528    -4.1010     0.0482 C.2     
  17 O17           -0.1390    -4.7078     1.1075 O.2     
  18 N18           -0.0662    -2.7537     0.0286 N.am    
  19 C19            0.0383    -2.0680     1.2006 C.2     
  20 C20            0.1295    -0.7191     1.2063 C.2     
  21 C21            0.0565    -2.8215     2.5056 C.3     
  22 H22           -0.8314    -3.4174     2.7168 H       
  23 C23            0.7639    -2.1630     3.6917 C.3     
  24 C24            1.4028    -3.3638     2.9895 C.3     
  25 H25            2.2754    -3.1756     2.3640 H       
  26 C26            1.3998    -4.6501     3.7051 C.1     
  27 N27            1.3975    -5.6429     4.2573 N.1     
  28 H28            1.2552     1.7931    -0.0512 H       
  29 H29           -0.3292     1.8989    -0.8555 H       
  30 H30           -0.2324     1.8868     0.9218 H       
  31 H31           -0.0061    -0.1467    -2.1164 H       
  32 H32            0.2053    -4.2639    -4.4153 H       
  33 H33           -0.0075    -5.8081    -3.5560 H       
  34 H34           -4.4636    -3.7866    -5.5553 H       
  35 H35           -0.3290    -5.8686    -1.1790 H       
  36 H36            0.2154    -0.1889     2.1433 H       
  37 H37            1.2162    -1.1848     3.5282 H       
  38 H38            0.3416    -2.3261     4.6833 H       
@<TRIPOS>BOND
   1    1    2 1
   2    1   28 1
   3    1   29 1
   4    1   30 1
   5    2   20 1
   6    2    3 2
   7    3    4 1
   8    3   31 1
   9    4   18 1
  10    4    5 2
  11    5    6 1
  12    6    7 1
  13    6   15 2
  14    7    8 1
  15    7   32 1
  16    7   33 1
  17    8   13 1
  18    8    9 1
  19    9   10 2
  20   10   11 1
  21   10   12 1
  22   12   13 2
  23   12   34 1
  24   13   14 1
  25   15   16 1
  26   15   35 1
  27   16   17 2
  28   16   18 am
  29   18   19 1
  30   19   20 2
  31   19   21 1
  32   20   36 1
  33   21   22 1
  34   21   24 1
  35   21   23 1
  36   23   24 1
  37   23   37 1
  38   23   38 1
  39   24   25 1
  40   24   26 1
  41   26   27 3

#	End of record

