#	Name: ASD01410870
#	Creating user name:	WinNT
#	Creation time:	15. 06. 2019 19:18

#	Modifying user name:	WinNT
#	Modification time:	15. 06. 2019 19:18

#	Program:	/corina/corina34_cracker 3.40 0067  02.08.2006

@<TRIPOS>MOLECULE
ASD01410870
 101  107    0    0    0
SMALL
NO_CHARGES


@<TRIPOS>ATOM
   1 N1             1.9745     1.8941    -2.0997 N.3     
   2 C2             1.5903    -1.8175    -1.4907 C.3     
   3 C3             1.4048    -0.4833    -2.2474 C.3     
   4 N4             2.4575    -0.5253    -3.2797 N.am    
   5 C5             2.5115    -1.9118    -3.7619 C.3     
   6 C6             1.9754    -2.8018    -2.6219 C.3     
   7 O7             2.6433    -1.7128    -0.5304 O.3     
   8 C8             1.6462    -2.0657    -4.9860 C.2     
   9 O9             1.0375    -1.1117    -5.4222 O.2     
  10 N10            1.5487    -3.2635    -5.5961 N.am    
  11 C11            1.6506     0.6970    -1.3160 C.3     
  12 C12            3.2510     1.7580    -2.8100 C.3     
  13 C13            3.2338     0.5045    -3.6508 C.2     
  14 O14            3.9151     0.4286    -4.6513 O.2     
  15 C15            3.4630     2.9743    -3.7136 C.3     
  16 C16            2.3231     3.0589    -4.7307 C.3     
  17 C17            0.6406    -3.4348    -6.7329 C.3     
  18 C18           -0.8271    -3.3000    -6.4185 C.2     
  19 N19           -1.2339    -3.1800    -5.1392 N.am    
  20 O20           -1.6421    -3.2995    -7.3166 O.2     
  21 S21           -2.8510    -3.1653    -4.7825 S.o2    
  22 C22           -3.4330    -4.8181    -5.2515 C.3     
  23 C23            1.1186    -2.9402    -8.0997 C.3     
  24 C24            1.0422    -4.4419    -7.8124 C.3     
  25 C25           -4.9349    -5.0926    -5.1524 C.3     
  26 C26           -4.2747    -4.9360    -6.5238 C.3     
  27 O27           -2.8972    -3.0021    -3.3717 O.2     
  28 O28           -3.3926    -2.1805    -5.6520 O.2     
  29 C29            0.0856    -2.3562    -9.0285 C.2     
  30 C30            0.2016    -1.1186    -9.4420 C.2     
  31 C31            2.6210    -2.5877     0.5055 C.ar    
  32 C32            3.6034    -2.5348     1.5217 C.ar    
  33 C33            1.6427    -3.5428     0.5986 C.ar    
  34 C34            1.6416    -4.4349     1.6793 C.ar    
  35 N35            2.5676    -4.3801     2.6220 N.ar    
  36 C36            3.5435    -3.4673     2.5868 C.ar    
  37 C37            0.5810    -5.4603     1.7680 C.2     
  38 S38           -0.7235    -5.6849     0.6053 S.3     
  39 C39            4.5218    -3.4196     3.5941 C.ar    
  40 C40            5.5155    -2.4695     3.5326 C.ar    
  41 C41            5.5620    -1.5509     2.4794 C.ar    
  42 C42            4.6290    -1.5788     1.4890 C.ar    
  43 C43            4.4831    -4.4030     4.7355 C.3     
  44 O44            6.4615    -2.4231     4.5063 O.3     
  45 C45            7.4666    -1.4144     4.3868 C.3     
  46 N46            0.4638    -6.3466     2.7153 N.2     
  47 C47           -0.5435    -7.1813     2.6307 C.2     
  48 C48           -1.3428    -7.0256     1.5674 C.2     
  49 C49           -0.7854    -8.2513     3.6640 C.3     
  50 C50           -1.7872    -7.7410     4.7018 C.3     
  51 C51           -1.3483    -9.5003     2.9828 C.3     
  52 C52            3.4820     4.2452    -2.8620 C.3     
  53 C53            2.5990     4.1997    -5.7122 C.3     
  54 H54            1.2274     2.1208    -2.7389 H       
  55 H55            0.6603    -2.1215    -1.0104 H       
  56 H56            0.4158    -0.4286    -2.7024 H       
  57 H57            3.5404    -2.1853    -3.9956 H       
  58 H58            2.7509    -3.4870    -2.2798 H       
  59 H59            1.0987    -3.3571    -2.9554 H       
  60 H60            2.0798    -4.0122    -5.2826 H       
  61 H61            2.4813     0.4652    -0.6494 H       
  62 H62            0.7546     0.8836    -0.7240 H       
  63 H63            4.0640     1.6983    -2.0865 H       
  64 H64            4.4125     2.8751    -4.2395 H       
  65 H65            2.2532     2.1183    -5.2772 H       
  66 H66            1.3844     3.2469    -4.2096 H       
  67 H67           -0.5795    -3.1023    -4.4274 H       
  68 H68           -2.7549    -5.6390    -5.0185 H       
  69 H69            2.1086    -2.4875    -8.1530 H       
  70 H70            1.9822    -4.9768    -7.6771 H       
  71 H71            0.2449    -5.0068    -8.2955 H       
  72 H72           -5.2449    -6.0943    -4.8545 H       
  73 H73           -5.5733    -4.2801    -4.8054 H       
  74 H74           -4.4787    -4.0204    -7.0789 H       
  75 H75           -4.1504    -5.8346    -7.1280 H       
  76 H76           -0.7504    -2.9579    -9.3534 H       
  77 H77            1.0375    -0.5168    -9.1172 H       
  78 H78           -0.5387    -0.7000   -10.1077 H       
  79 H79            0.8750    -3.6076    -0.1583 H       
  80 H80            6.3496    -0.8126     2.4498 H       
  81 H81            4.6762    -0.8637     0.6811 H       
  82 H82            5.0604    -5.2890     4.4715 H       
  83 H83            4.9107    -3.9427     5.6262 H       
  84 H84            3.4500    -4.6884     4.9342 H       
  85 H85            8.1571    -1.4882     5.2269 H       
  86 H86            8.0129    -1.5545     3.4541 H       
  87 H87            6.9964    -0.4310     4.3882 H       
  88 H88           -2.2152    -7.6197     1.3384 H       
  89 H89            0.1545    -8.4989     4.1574 H       
  90 H90           -2.7270    -7.4933     4.2084 H       
  91 H91           -1.9621    -8.5149     5.4491 H       
  92 H92           -1.3861    -6.8512     5.1871 H       
  93 H93           -1.5232   -10.2741     3.7302 H       
  94 H94           -2.2882    -9.2526     2.4894 H       
  95 H95           -0.6346    -9.8638     2.2435 H       
  96 H96            2.4986     4.3996    -2.4178 H       
  97 H97            4.2255     4.1420    -2.0717 H       
  98 H98            3.7352     5.0995    -3.4898 H       
  99 H99            1.7869     4.2599    -6.4368 H       
 100 H100           2.6688     5.1402    -5.1657 H       
 101 H101           3.5377     4.0116    -6.2333 H       
@<TRIPOS>BOND
   1    1   11 1
   2    1   12 1
   3    1   54 1
   4    2    3 1
   5    2    7 1
   6    2    6 1
   7    2   55 1
   8    3    4 1
   9    3   11 1
  10    3   56 1
  11    4    5 1
  12    4   13 am
  13    5    6 1
  14    5    8 1
  15    5   57 1
  16    6   58 1
  17    6   59 1
  18    7   31 1
  19    8    9 2
  20    8   10 am
  21   10   17 1
  22   10   60 1
  23   11   61 1
  24   11   62 1
  25   12   13 1
  26   12   15 1
  27   12   63 1
  28   13   14 2
  29   15   16 1
  30   15   52 1
  31   15   64 1
  32   16   53 1
  33   16   65 1
  34   16   66 1
  35   17   18 1
  36   17   23 1
  37   17   24 1
  38   18   19 am
  39   18   20 2
  40   19   21 am
  41   19   67 1
  42   21   22 1
  43   21   27 2
  44   21   28 2
  45   22   25 1
  46   22   26 1
  47   22   68 1
  48   23   24 1
  49   23   29 1
  50   23   69 1
  51   24   70 1
  52   24   71 1
  53   25   26 1
  54   25   72 1
  55   25   73 1
  56   26   74 1
  57   26   75 1
  58   29   30 2
  59   29   76 1
  60   30   77 1
  61   30   78 1
  62   31   32 ar
  63   31   33 ar
  64   32   36 ar
  65   32   42 ar
  66   33   34 ar
  67   33   79 1
  68   34   35 ar
  69   34   37 1
  70   35   36 ar
  71   36   39 ar
  72   37   46 2
  73   37   38 1
  74   38   48 1
  75   39   40 ar
  76   39   43 1
  77   40   41 ar
  78   40   44 1
  79   41   42 ar
  80   41   80 1
  81   42   81 1
  82   43   82 1
  83   43   83 1
  84   43   84 1
  85   44   45 1
  86   45   85 1
  87   45   86 1
  88   45   87 1
  89   46   47 1
  90   47   48 2
  91   47   49 1
  92   48   88 1
  93   49   50 1
  94   49   51 1
  95   49   89 1
  96   50   90 1
  97   50   91 1
  98   50   92 1
  99   51   93 1
 100   51   94 1
 101   51   95 1
 102   52   96 1
 103   52   97 1
 104   52   98 1
 105   53   99 1
 106   53  100 1
 107   53  101 1

#	End of record

