#	Name: ASD01811130
#	Creating user name:	WinNT
#	Creation time:	15. 06. 2019 19:26

#	Modifying user name:	WinNT
#	Modification time:	15. 06. 2019 19:26

#	Program:	/corina/corina34_cracker 3.40 0067  02.08.2006

@<TRIPOS>MOLECULE
ASD01811130
  53   57    0    0    0
SMALL
NO_CHARGES


@<TRIPOS>ATOM
   1 C1             6.9731     1.7356     0.1973 C.2     
   2 C2             7.0900     0.3391     0.1894 C.2     
   3 C3             5.9648    -0.4285     0.1133 C.2     
   4 C4             4.7075     0.1942     0.0441 C.2     
   5 N5             4.6227     1.5600     0.0532 N.am    
   6 C6             5.7541     2.3169     0.1299 C.2     
   7 C7             3.5496    -0.5924    -0.0343 C.2     
   8 C8             2.3233     0.0025    -0.1024 C.2     
   9 C9             2.2398     1.4072    -0.0922 C.2     
  10 C10            3.4224     2.1707    -0.0130 C.2     
  11 O11            3.3594     3.3885    -0.0032 O.2     
  12 C12            0.9360     2.0702    -0.1647 C.2     
  13 O13            0.8627     3.4172    -0.1546 O.3     
  14 O14           -0.0809     1.4063    -0.2341 O.2     
  15 C15            3.6593    -2.0954    -0.0439 C.3     
  16 N16            3.6580    -2.5776    -1.4315 N.3     
  17 C17            4.8420    -2.0934    -2.1592 C.3     
  18 C18            4.9844    -2.9037    -3.4480 C.3     
  19 C19            3.6733    -2.9233    -4.1910 C.ar    
  20 C20            2.4874    -2.5857    -3.5750 C.ar    
  21 C21            2.4332    -2.1713    -2.1279 C.3     
  22 C22            3.6759    -3.2933    -5.5275 C.ar    
  23 C23            2.4967    -3.3268    -6.2442 C.ar    
  24 C24            1.3065    -2.9905    -5.6262 C.ar    
  25 C25            1.3028    -2.6221    -4.2962 C.ar    
  26 C26            1.2455    -2.8224    -1.4674 C.ar    
  27 C27           -0.0199    -2.2864    -1.6346 C.ar    
  28 C28           -1.1104    -2.8859    -1.0270 C.ar    
  29 C29           -0.9345    -4.0181    -0.2547 C.ar    
  30 C30            0.3299    -4.5525    -0.0885 C.ar    
  31 C31            1.4183    -3.9584    -0.6991 C.ar    
  32 F32           -0.1907    -1.1791    -2.3895 F       
  33 H33            7.8593     2.3495     0.2618 H       
  34 H34            8.0634    -0.1258     0.2428 H       
  35 H35            6.0401    -1.5059     0.1059 H       
  36 H36            5.6758     3.3941     0.1364 H       
  37 H37            1.4275    -0.5977    -0.1636 H       
  38 H38           -0.0198     3.8092    -0.2042 H       
  39 H39            4.5868    -2.3951     0.4440 H       
  40 H40            2.8122    -2.5249     0.4908 H       
  41 H41            4.7164    -1.0382    -2.4021 H       
  42 H42            5.7308    -2.2269    -1.5426 H       
  43 H43            5.7504    -2.4508    -4.0774 H       
  44 H44            5.2767    -3.9248    -3.2029 H       
  45 H45            2.3265    -1.0882    -2.0671 H       
  46 H46            4.6055    -3.5563    -6.0103 H       
  47 H47            2.5038    -3.6146    -7.2852 H       
  48 H48            0.3815    -3.0161    -6.1831 H       
  49 H49            0.3726    -2.3598    -3.8143 H       
  50 H50           -2.0980    -2.4684    -1.1564 H       
  51 H51           -1.7847    -4.4855     0.2195 H       
  52 H52            0.4665    -5.4373     0.5156 H       
  53 H53            2.4054    -4.3767    -0.5686 H       
@<TRIPOS>BOND
   1    1    2 1
   2    1    6 2
   3    1   33 1
   4    2    3 2
   5    2   34 1
   6    3    4 1
   7    3   35 1
   8    4    5 1
   9    4    7 2
  10    5    6 1
  11    5   10 am
  12    6   36 1
  13    7    8 1
  14    7   15 1
  15    8    9 2
  16    8   37 1
  17    9   10 1
  18    9   12 1
  19   10   11 2
  20   12   13 1
  21   12   14 2
  22   13   38 1
  23   15   16 1
  24   15   39 1
  25   15   40 1
  26   16   17 1
  27   16   21 1
  28   17   18 1
  29   17   41 1
  30   17   42 1
  31   18   19 1
  32   18   43 1
  33   18   44 1
  34   19   20 ar
  35   19   22 ar
  36   20   21 1
  37   20   25 ar
  38   21   26 1
  39   21   45 1
  40   22   23 ar
  41   22   46 1
  42   23   24 ar
  43   23   47 1
  44   24   25 ar
  45   24   48 1
  46   25   49 1
  47   26   27 ar
  48   26   31 ar
  49   27   28 ar
  50   27   32 1
  51   28   29 ar
  52   28   50 1
  53   29   30 ar
  54   29   51 1
  55   30   31 ar
  56   30   52 1
  57   31   53 1

#	End of record

