#	Name: ASD02508363
#	Creating user name:	WinNT
#	Creation time:	15. 06. 2019 20:24

#	Modifying user name:	WinNT
#	Modification time:	15. 06. 2019 20:24

#	Program:	/corina/corina34_cracker 3.40 0067  02.08.2006

@<TRIPOS>MOLECULE
ASD02508363
  39   41    0    0    0
SMALL
NO_CHARGES


@<TRIPOS>ATOM
   1 C1             0.6250     1.5302     0.6612 C.2     
   2 C2             0.4673     0.1289     0.6617 C.2     
   3 C3             1.6094    -0.4076     0.1885 C.2     
   4 N4             2.4704     0.6128    -0.1056 N.pl3   
   5 C5             1.8578     1.7992     0.1877 C.2     
   6 C6             3.7590     0.4676    -0.6193 C.ar    
   7 C7             4.5472     1.5877    -0.8803 C.ar    
   8 N8             4.2560    -0.7400    -0.8620 N.ar    
   9 C9             5.4743    -0.8818    -1.3473 C.ar    
  10 N10            6.2432     0.1575    -1.6092 N.ar    
  11 C11            5.8180     1.3927    -1.3886 C.ar    
  12 S12            1.9368    -2.1269    -0.0150 S.o2    
  13 O13            1.6577    -2.4303    -1.3749 O.2     
  14 O14            3.1983    -2.3699     0.5924 O.2     
  15 N15            0.8174    -2.9491     0.8868 N.am    
  16 C16            0.7733    -2.7763     2.2721 C.ar    
  17 C17           -0.4441    -2.5737     2.9100 C.ar    
  18 C18            1.9459    -2.8121     3.0157 C.ar    
  19 C19            1.8987    -2.6408     4.3854 C.ar    
  20 C20            0.6860    -2.4341     5.0165 C.ar    
  21 C21           -0.4841    -2.4031     4.2797 C.ar    
  22 C22           -1.8036    -2.1775     4.9718 C.3     
  23 Cl23           6.0824    -2.4795    -1.6490 Cl      
  24 C24           -2.1003    -0.6776     5.0280 C.3     
  25 H25           -0.1097     2.2556     0.9780 H       
  26 H26           -0.4087    -0.4151     0.9829 H       
  27 H27            2.2873     2.7820     0.0615 H       
  28 H28            4.1741     2.5832    -0.6904 H       
  29 H29            6.4550     2.2371    -1.6066 H       
  30 H30            0.1924    -3.5508     0.4530 H       
  31 H31           -1.3582    -2.5493     2.3353 H       
  32 H32            2.8934    -2.9742     2.5234 H       
  33 H33            2.8101    -2.6686     4.9642 H       
  34 H34            0.6518    -2.3011     6.0877 H       
  35 H35           -2.5950    -2.6840     4.4193 H       
  36 H36           -1.7553    -2.5766     5.9850 H       
  37 H37           -1.3089    -0.1712     5.5806 H       
  38 H38           -2.1486    -0.2786     4.0148 H       
  39 H39           -3.0547    -0.5145     5.5287 H       
@<TRIPOS>BOND
   1    1    2 1
   2    1    5 2
   3    1   25 1
   4    2    3 2
   5    2   26 1
   6    3    4 1
   7    3   12 1
   8    4    5 1
   9    4    6 1
  10    5   27 1
  11    6    7 ar
  12    6    8 ar
  13    7   11 ar
  14    7   28 1
  15    8    9 ar
  16    9   10 ar
  17    9   23 1
  18   10   11 ar
  19   11   29 1
  20   12   13 2
  21   12   14 2
  22   12   15 am
  23   15   16 1
  24   15   30 1
  25   16   17 ar
  26   16   18 ar
  27   17   21 ar
  28   17   31 1
  29   18   19 ar
  30   18   32 1
  31   19   20 ar
  32   19   33 1
  33   20   21 ar
  34   20   34 1
  35   21   22 1
  36   22   24 1
  37   22   35 1
  38   22   36 1
  39   24   37 1
  40   24   38 1
  41   24   39 1

#	End of record

