#	Name: ASD01882121
#	Creating user name:	WinNT
#	Creation time:	15. 06. 2019 19:43

#	Modifying user name:	WinNT
#	Modification time:	15. 06. 2019 19:43

#	Program:	/corina/corina34_cracker 3.40 0067  02.08.2006

@<TRIPOS>MOLECULE
ASD01882121
  49   53    0    0    0
SMALL
NO_CHARGES


@<TRIPOS>ATOM
   1 C1            -0.8227    -0.0434     1.1330 C.2     
   2 C2             0.0021    -0.0041     0.0020 C.2     
   3 C3            -0.4086     0.7428    -1.1178 C.2     
   4 C4            -1.5752     1.4147    -1.1144 C.2     
   5 N5            -2.4098     1.4052    -0.0352 N.pl3   
   6 C6            -2.0867     0.6968     1.0931 C.2     
   7 C7            -3.6247     1.9991     0.2031 C.2     
   8 C8            -4.0007     1.6488     1.4496 C.2     
   9 N9            -3.0568     0.8582     1.9744 N.2     
  10 N10            1.2030    -0.6889    -0.0141 N.pl3   
  11 C11           -4.3933     2.8781    -0.7497 C.3     
  12 C12            1.2297    -2.1543     0.0880 C.3     
  13 C13            2.0281    -2.7158    -1.0933 C.3     
  14 C14            3.4050    -2.0551    -1.1322 C.3     
  15 C15            3.2647    -0.5450    -1.3118 C.3     
  16 C16            2.4752     0.0353    -0.1396 C.3     
  17 O17            4.1169    -2.3389     0.0829 O.3     
  18 C18            4.8487    -3.5484    -0.1918 C.3     
  19 C19            5.1081    -3.5483    -1.6805 C.ar    
  20 C20            4.2302    -2.6394    -2.2516 C.ar    
  21 C21            5.9943    -4.2453    -2.4753 C.ar    
  22 C22            6.0078    -4.0356    -3.8422 C.ar    
  23 C23            5.1336    -3.1284    -4.4116 C.ar    
  24 C24            4.2449    -2.4297    -3.6152 C.ar    
  25 C25           -4.0752     4.3461    -0.4587 C.3     
  26 F26           -2.7037     4.5675    -0.6233 F       
  27 F27           -4.7888     5.1620    -1.3432 F       
  28 F28           -4.4424     4.6510     0.8563 F       
  29 C29           -0.4442    -0.7912     2.2941 C.1     
  30 N30           -0.1439    -1.3843     3.2152 N.1     
  31 H31            0.2223     0.7778    -1.9937 H       
  32 H32           -1.8585     1.9779    -1.9913 H       
  33 H33           -4.9130     1.9527     1.9413 H       
  34 H34           -4.1073     2.6405    -1.7743 H       
  35 H35           -5.4619     2.7055    -0.6215 H       
  36 H36            1.7066    -2.4469     1.0235 H       
  37 H37            0.2112    -2.5415     0.0578 H       
  38 H38            2.1448    -3.7930    -0.9744 H       
  39 H39            1.4981    -2.5072    -2.0226 H       
  40 H40            4.2544    -0.0894    -1.3465 H       
  41 H41            2.7355    -0.3369    -2.2417 H       
  42 H42            2.2794     1.0925    -0.3186 H       
  43 H43            3.0480    -0.0818     0.7803 H       
  44 H44            5.7923    -3.5485     0.3538 H       
  45 H45            4.2538    -4.4185     0.0856 H       
  46 H46            6.6772    -4.9539    -2.0305 H       
  47 H47            6.7017    -4.5806    -4.4650 H       
  48 H48            5.1454    -2.9647    -5.4790 H       
  49 H49            3.5621    -1.7211    -4.0604 H       
@<TRIPOS>BOND
   1    1    2 2
   2    1   29 1
   3    1    6 1
   4    2    3 1
   5    2   10 1
   6    3    4 2
   7    3   31 1
   8    4    5 1
   9    4   32 1
  10    5    6 1
  11    5    7 1
  12    6    9 2
  13    7    8 2
  14    7   11 1
  15    8    9 1
  16    8   33 1
  17   10   12 1
  18   10   16 1
  19   11   25 1
  20   11   34 1
  21   11   35 1
  22   12   13 1
  23   12   36 1
  24   12   37 1
  25   13   14 1
  26   13   38 1
  27   13   39 1
  28   14   15 1
  29   14   17 1
  30   14   20 1
  31   15   16 1
  32   15   40 1
  33   15   41 1
  34   16   42 1
  35   16   43 1
  36   17   18 1
  37   18   19 1
  38   18   44 1
  39   18   45 1
  40   19   20 ar
  41   19   21 ar
  42   20   24 ar
  43   21   22 ar
  44   21   46 1
  45   22   23 ar
  46   22   47 1
  47   23   24 ar
  48   23   48 1
  49   24   49 1
  50   25   26 1
  51   25   27 1
  52   25   28 1
  53   29   30 3

#	End of record

