#	Name: ASD01910827
#	Creating user name:	WinNT
#	Creation time:	15. 06. 2019 19:56

#	Modifying user name:	WinNT
#	Modification time:	15. 06. 2019 19:56

#	Program:	/corina/corina34_cracker 3.40 0067  02.08.2006

@<TRIPOS>MOLECULE
ASD01910827
  37   39    0    0    0
SMALL
NO_CHARGES


@<TRIPOS>ATOM
   1 N1            -0.0036     1.3812     0.2120 N.2     
   2 N2             0.0016    -0.0034     0.0011 N.pl3   
   3 C3             1.2357     1.8189     0.1322 C.2     
   4 C4             2.0746     0.7239    -0.1331 C.2     
   5 C5             1.2922    -0.3913    -0.2101 C.2     
   6 C6             1.7587    -1.7700    -0.4740 C.ar    
   7 C7             1.6717     3.2285     0.2947 C.ar    
   8 C8             0.7332     4.2242     0.5572 C.ar    
   9 C9             1.1428     5.5332     0.7076 C.ar    
  10 C10            2.4851     5.8581     0.5974 C.ar    
  11 C11            3.4216     4.8711     0.3365 C.ar    
  12 C12            3.0213     3.5586     0.1909 C.ar    
  13 C13           -1.1719    -0.8804     0.0069 C.3     
  14 C14           -1.6609    -1.0745    -1.4053 C.2     
  15 O15           -2.7330    -1.8461    -1.6442 O.3     
  16 O16           -1.0880    -0.5356    -2.3225 O.2     
  17 C17           -3.1476    -1.9881    -3.0285 C.3     
  18 F18            2.8818     7.1412     0.7445 F       
  19 C19            3.1009    -1.9999    -0.7756 C.ar    
  20 N20            0.8970    -2.7788    -0.4165 N.ar    
  21 C21            3.5231    -3.2945    -1.0202 C.ar    
  22 C22            2.5879    -4.3206    -0.9554 C.ar    
  23 C23            1.2715    -4.0208    -0.6447 C.ar    
  24 F24            2.9600    -5.5984    -1.1878 F       
  25 H25            3.1472     0.7585    -0.2547 H       
  26 H26           -0.3134     3.9718     0.6425 H       
  27 H27            0.4160     6.3057     0.9110 H       
  28 H28            4.4670     5.1287     0.2511 H       
  29 H29            3.7520     2.7897    -0.0121 H       
  30 H30           -0.9016    -1.8462     0.4338 H       
  31 H31           -1.9616    -0.4267     0.6057 H       
  32 H32           -3.3956    -1.0079    -3.4358 H       
  33 H33           -2.3356    -2.4274    -3.6078 H       
  34 H34           -4.0230    -2.6354    -3.0810 H       
  35 H35            3.8009    -1.1786    -0.8179 H       
  36 H36            4.5561    -3.5030    -1.2565 H       
  37 H37            0.5419    -4.8154    -0.5931 H       
@<TRIPOS>BOND
   1    1    2 1
   2    1    3 2
   3    2   13 1
   4    2    5 1
   5    3    4 1
   6    3    7 1
   7    4    5 2
   8    4   25 1
   9    5    6 1
  10    6   19 ar
  11    6   20 ar
  12    7    8 ar
  13    7   12 ar
  14    8    9 ar
  15    8   26 1
  16    9   10 ar
  17    9   27 1
  18   10   11 ar
  19   10   18 1
  20   11   12 ar
  21   11   28 1
  22   12   29 1
  23   13   14 1
  24   13   30 1
  25   13   31 1
  26   14   15 1
  27   14   16 2
  28   15   17 1
  29   17   32 1
  30   17   33 1
  31   17   34 1
  32   19   21 ar
  33   19   35 1
  34   20   23 ar
  35   21   22 ar
  36   21   36 1
  37   22   23 ar
  38   22   24 1
  39   23   37 1

#	End of record

