#	Name: ASD03240646
#	Creating user name:	WinNT
#	Creation time:	15. 06. 2019 20:35

#	Modifying user name:	WinNT
#	Modification time:	15. 06. 2019 20:35

#	Program:	/corina/corina34_cracker 3.40 0067  02.08.2006

@<TRIPOS>MOLECULE
ASD03240646
  64   70    0    0    0
SMALL
NO_CHARGES


@<TRIPOS>ATOM
   1 C1            -0.0166     1.3755     0.0096 C.ar    
   2 C2             0.0021    -0.0041     0.0020 C.ar    
   3 N3             1.1422    -0.6683    -0.0054 N.ar    
   4 C4             2.3145    -0.0481    -0.0053 C.ar    
   5 C5             2.3702     1.3442    -0.0124 C.ar    
   6 C6             1.1861     2.0698     0.0018 C.ar    
   7 N7             3.4820    -0.8058     0.0230 N.pl3   
   8 C8             4.3590    -0.7189     1.1008 C.ar    
   9 C9             4.9948     0.4897     1.4045 C.ar    
  10 C10            4.7634     1.6838     0.5623 C.2     
  11 N11            3.5939     2.0276    -0.0512 N.pl3   
  12 C12            4.6049    -1.8382     1.8846 C.ar    
  13 C13            5.4644    -1.7524     2.9632 C.ar    
  14 C14            6.0848    -0.5541     3.2719 C.ar    
  15 C15            5.8554     0.5665     2.4992 C.ar    
  16 N16            5.6749     2.5946     0.2852 N.2     
  17 C17            5.1450     3.5398    -0.5061 C.2     
  18 C18            3.8229     3.2040    -0.7376 C.2     
  19 C19            2.8505     3.9536    -1.5560 C.ar    
  20 C20            2.7515     5.3418    -1.4323 C.ar    
  21 C21            2.0284     3.2794    -2.4624 C.ar    
  22 C22            1.1222     3.9867    -3.2244 C.ar    
  23 C23            1.0263     5.3609    -3.0931 C.ar    
  24 C24            1.8406     6.0360    -2.2008 C.ar    
  25 C25            5.8495     4.7301    -1.0368 C.ar    
  26 C26            0.0339     6.1267    -3.9296 C.3     
  27 C27            6.8190     5.3705    -0.2650 C.ar    
  28 N28           -1.0250     5.2722    -4.4832 N.3     
  29 C29           -0.4952     7.3991    -3.2469 C.3     
  30 C30           -0.3985     8.0820    -4.6214 C.3     
  31 C31            0.6885     7.0514    -4.9694 C.3     
  32 C32            7.4731     6.4779    -0.7624 C.ar    
  33 C33            7.1677     6.9555    -2.0297 C.ar    
  34 C34            6.2033     6.3206    -2.8007 C.ar    
  35 C35            5.5490     5.2096    -2.3118 C.ar    
  36 O36            7.8139     8.0474    -2.5166 O.3     
  37 C37            7.4508     8.4853    -3.8275 C.3     
  38 H38           -0.9556     1.9091     0.0170 H       
  39 H39           -0.9306    -0.5486     0.0025 H       
  40 H40            1.2002     3.1497     0.0061 H       
  41 H41            3.6865    -1.4005    -0.7156 H       
  42 H42            4.1238    -2.7766     1.6513 H       
  43 H43            5.6531    -2.6259     3.5696 H       
  44 H44            6.7506    -0.4957     4.1202 H       
  45 H45            6.3403     1.5005     2.7424 H       
  46 H46            3.3864     5.8699    -0.7363 H       
  47 H47            2.1027     2.2070    -2.5665 H       
  48 H48            0.4861     3.4668    -3.9255 H       
  49 H49            1.7603     7.1086    -2.1035 H       
  50 H50            7.0568     4.9997     0.7210 H       
  51 H51           -0.6339     4.4634    -4.9424 H       
  52 H52           -1.6810     4.9993    -3.7668 H       
  53 H53           -1.5163     7.3040    -2.8775 H       
  54 H54            0.1877     7.8126    -2.5049 H       
  55 H55           -1.3024     7.9833    -5.2225 H       
  56 H56           -0.0298     9.1067    -4.5748 H       
  57 H57            1.6950     7.3700    -4.6982 H       
  58 H58            0.6230     6.6757    -5.9905 H       
  59 H59            8.2236     6.9744    -0.1652 H       
  60 H60            5.9679     6.6951    -3.7860 H       
  61 H61            4.7992     4.7160    -2.9122 H       
  62 H62            6.3911     8.7402    -3.8449 H       
  63 H63            8.0400     9.3628    -4.0936 H       
  64 H64            7.6442     7.6868    -4.5438 H       
@<TRIPOS>BOND
   1    1    2 ar
   2    1    6 ar
   3    1   38 1
   4    2    3 ar
   5    2   39 1
   6    3    4 ar
   7    4    5 ar
   8    4    7 1
   9    5    6 ar
  10    5   11 1
  11    6   40 1
  12    7    8 1
  13    7   41 1
  14    8    9 ar
  15    8   12 ar
  16    9   10 1
  17    9   15 ar
  18   10   11 1
  19   10   16 2
  20   11   18 1
  21   12   13 ar
  22   12   42 1
  23   13   14 ar
  24   13   43 1
  25   14   15 ar
  26   14   44 1
  27   15   45 1
  28   16   17 1
  29   17   18 2
  30   17   25 1
  31   18   19 1
  32   19   20 ar
  33   19   21 ar
  34   20   24 ar
  35   20   46 1
  36   21   22 ar
  37   21   47 1
  38   22   23 ar
  39   22   48 1
  40   23   24 ar
  41   23   26 1
  42   24   49 1
  43   25   27 ar
  44   25   35 ar
  45   26   29 1
  46   26   28 1
  47   26   31 1
  48   27   32 ar
  49   27   50 1
  50   28   51 1
  51   28   52 1
  52   29   30 1
  53   29   53 1
  54   29   54 1
  55   30   31 1
  56   30   55 1
  57   30   56 1
  58   31   57 1
  59   31   58 1
  60   32   33 ar
  61   32   59 1
  62   33   34 ar
  63   33   36 1
  64   34   35 ar
  65   34   60 1
  66   35   61 1
  67   36   37 1
  68   37   62 1
  69   37   63 1
  70   37   64 1

#	End of record

