#	Name: ASD01871017
#	Creating user name:	WinNT
#	Creation time:	15. 06. 2019 19:39

#	Modifying user name:	WinNT
#	Modification time:	15. 06. 2019 19:39

#	Program:	/corina/corina34_cracker 3.40 0067  02.08.2006

@<TRIPOS>MOLECULE
ASD01871017
  27   29    0    0    0
SMALL
NO_CHARGES


@<TRIPOS>ATOM
   1 C1            -0.0162     1.3406     0.0094 C.2     
   2 C2             0.0021    -0.0041     0.0020 C.2     
   3 S3            -1.6655    -0.5716     0.0160 S.3     
   4 C4            -2.2295     1.0417     0.0304 C.2     
   5 N5            -1.2337     1.8676     0.0296 N.2     
   6 O6            -3.5355     1.4046     0.0449 O.3     
   7 C7            -4.4686     0.4223     0.0489 C.ar    
   8 N8            -5.7506     0.7498     0.0631 N.ar    
   9 N9            -4.0757    -0.8412     0.0332 N.ar    
  10 C10           -4.9602    -1.8249     0.0365 C.ar    
  11 C11           -6.3117    -1.5182     0.0568 C.ar    
  12 C12           -6.6875    -0.1841     0.0674 C.ar    
  13 C13            1.2199     2.1646     0.0020 C.2     
  14 C14            1.2819     3.5712     0.0090 C.2     
  15 N15            2.5407     3.9230    -0.0011 N.2     
  16 N16            3.3261     2.7639    -0.0149 N.pl3   
  17 C17            2.5005     1.6958    -0.0068 C.2     
  18 C18            0.1018     4.5084     0.0253 C.3     
  19 H19            0.8844    -0.6268    -0.0106 H       
  20 H20           -4.6333    -2.8542     0.0233 H       
  21 H21           -7.0555    -2.3012     0.0600 H       
  22 H22           -7.7322     0.0895     0.0832 H       
  23 H23            4.2955     2.7336    -0.0243 H       
  24 H24            2.7999     0.6582    -0.0137 H       
  25 H25           -0.1728     4.7288     1.0568 H       
  26 H26            0.3659     5.4341    -0.4861 H       
  27 H27           -0.7411     4.0402    -0.4830 H       
@<TRIPOS>BOND
   1    1    2 2
   2    1   13 1
   3    1    5 1
   4    2    3 1
   5    2   19 1
   6    3    4 1
   7    4    5 2
   8    4    6 1
   9    6    7 1
  10    7    8 ar
  11    7    9 ar
  12    8   12 ar
  13    9   10 ar
  14   10   11 ar
  15   10   20 1
  16   11   12 ar
  17   11   21 1
  18   12   22 1
  19   13   14 1
  20   13   17 2
  21   14   15 2
  22   14   18 1
  23   15   16 1
  24   16   17 1
  25   16   23 1
  26   17   24 1
  27   18   25 1
  28   18   26 1
  29   18   27 1

#	End of record

