#	Name: ASD01917673
#	Creating user name:	WinNT
#	Creation time:	15. 06. 2019 20:09

#	Modifying user name:	WinNT
#	Modification time:	15. 06. 2019 20:09

#	Program:	/corina/corina34_cracker 3.40 0067  02.08.2006

@<TRIPOS>MOLECULE
ASD01917673
  42   45    0    0    0
SMALL
NO_CHARGES


@<TRIPOS>ATOM
   1 C1             0.7388     0.4494    -1.1702 C.3     
   2 N2             0.0021    -0.0041     0.0020 N.am    
   3 C3             0.4054     0.1758     1.2616 C.2     
   4 O4             1.5582     0.7945     1.5667 O.3     
   5 C5             2.1072     1.6741     0.5486 C.3     
   6 C6             2.1500     0.9344    -0.7844 C.3     
   7 O7            -0.2957    -0.2347     2.1651 O.2     
   8 C8            -1.2039    -0.6693    -0.2055 C.ar    
   9 N9            -1.2248    -1.9933    -0.2193 N.ar    
  10 C10           -2.3396    -2.6679    -0.4116 C.ar    
  11 C11           -3.5496    -2.0003    -0.6099 C.ar    
  12 C12           -3.5617    -0.5970    -0.6010 C.ar    
  13 C13           -2.3707     0.0673    -0.3898 C.ar    
  14 C14           -4.7600    -2.7362    -0.8197 C.1     
  15 C15           -5.7523    -3.3396    -0.9917 C.1     
  16 C16           -6.9627    -4.0756    -1.2015 C.ar    
  17 C17           -8.1699    -3.4000    -1.3992 C.ar    
  18 C18           -9.3315    -4.1155    -1.6011 C.ar    
  19 C19           -9.3036    -5.4990    -1.6082 C.ar    
  20 C20           -8.1120    -6.1749    -1.4125 C.ar    
  21 C21           -6.9414    -5.4728    -1.2152 C.ar    
  22 C22            2.9533    -0.3763    -0.6369 C.3     
  23 C23            2.4009    -1.2866    -1.7538 C.3     
  24 C24            0.9933    -0.7645    -2.0910 C.3     
  25 H25            2.5685     1.5696    -1.5651 H       
  26 H26            0.1895     1.2332    -1.6917 H       
  27 H27            1.4776     2.5588     0.4539 H       
  28 H28            3.1164     1.9731     0.8316 H       
  29 H29           -2.3173    -3.7477    -0.4163 H       
  30 H30           -4.4810    -0.0506    -0.7518 H       
  31 H31           -2.3426     1.1469    -0.3765 H       
  32 H32           -8.1932    -2.3203    -1.3937 H       
  33 H33          -10.2653    -3.5948    -1.7538 H       
  34 H34          -10.2163    -6.0541    -1.7667 H       
  35 H35           -8.0978    -7.2548    -1.4190 H       
  36 H36           -6.0121    -6.0015    -1.0627 H       
  37 H37            4.0168    -0.1908    -0.7870 H       
  38 H38            2.7774    -0.8234     0.3415 H       
  39 H39            3.0414    -1.2284    -2.6338 H       
  40 H40            2.3426    -2.3164    -1.4014 H       
  41 H41            0.2519    -1.5402    -1.8995 H       
  42 H42            0.9501    -0.4561    -3.1356 H       
@<TRIPOS>BOND
   1    1    2 1
   2    1    6 1
   3    1   26 1
   4    1   24 1
   5    2    3 am
   6    2    8 1
   7    3    4 1
   8    3    7 2
   9    4    5 1
  10    5    6 1
  11    5   27 1
  12    5   28 1
  13    6   22 1
  14    6   25 1
  15    8    9 ar
  16    8   13 ar
  17    9   10 ar
  18   10   11 ar
  19   10   29 1
  20   11   12 ar
  21   11   14 1
  22   12   13 ar
  23   12   30 1
  24   13   31 1
  25   14   15 3
  26   15   16 1
  27   16   17 ar
  28   16   21 ar
  29   17   18 ar
  30   17   32 1
  31   18   19 ar
  32   18   33 1
  33   19   20 ar
  34   19   34 1
  35   20   21 ar
  36   20   35 1
  37   21   36 1
  38   22   23 1
  39   22   37 1
  40   22   38 1
  41   23   24 1
  42   23   39 1
  43   23   40 1
  44   24   41 1
  45   24   42 1

#	End of record

