#	Name: ASD01152574
#	Creating user name:	WinNT
#	Creation time:	15. 06. 2019 19:06

#	Modifying user name:	WinNT
#	Modification time:	15. 06. 2019 19:06

#	Program:	/corina/corina34_cracker 3.40 0067  02.08.2006

@<TRIPOS>MOLECULE
ASD01152574
  53   55    0    0    0
SMALL
NO_CHARGES


@<TRIPOS>ATOM
   1 C1             0.5641     1.0236     0.6482 C.2     
   2 N2             0.4038    -0.2632     0.4913 N.2     
   3 N3            -0.8602    -0.8265     0.3171 N.am    
   4 C4            -1.9937    -0.1313     0.5078 C.2     
   5 C5            -1.9411     1.2798     1.0443 C.3     
   6 C6            -0.6242     1.8901     0.6197 C.2     
   7 C7            -2.0262     1.2568     2.5718 C.3     
   8 O8            -0.5503     3.0473     0.2611 O.2     
   9 O9             1.8021     1.5501     0.8395 O.3     
  10 C10           -0.9511    -2.1677    -0.0717 C.ar    
  11 O11           -3.0639    -0.6385     0.2476 O.2     
  12 C12           -2.0968     2.6693     3.0923 C.ar    
  13 C13           -1.7975    -3.0321     0.6080 C.ar    
  14 C14           -0.1982    -2.6341    -1.1426 C.ar    
  15 C15           -0.2874    -3.9578    -1.5269 C.ar    
  16 C16           -1.1254    -4.8223    -0.8487 C.ar    
  17 C17           -1.8846    -4.3613     0.2193 C.ar    
  18 C18           -3.3241     3.2819     3.2639 C.ar    
  19 C19           -0.9344     3.3499     3.4034 C.ar    
  20 C20           -0.9986     4.6452     3.8813 C.ar    
  21 C21           -3.3895     4.5773     3.7412 C.ar    
  22 C22           -2.2263     5.2608     4.0478 C.ar    
  23 Cl23          -2.3077     6.8877     4.6480 Cl      
  24 C24            2.9000     0.6357     0.8593 C.3     
  25 C25            4.2022     1.4070     1.0840 C.3     
  26 O26            4.1841     2.0042     2.3821 O.3     
  27 C27            5.3610     2.7522     2.6942 C.3     
  28 N28           -2.7365    -5.2364     0.9024 N.am    
  29 C29           -2.3773    -6.5228     1.0828 C.2     
  30 O30           -1.3559    -6.9432     0.5817 O.2     
  31 C31           -3.2447    -7.4388     1.9072 C.3     
  32 H32           -2.7682     1.8609     0.6366 H       
  33 H33           -2.9191     0.7118     2.8778 H       
  34 H34           -1.1427     0.7638     2.9775 H       
  35 H35           -2.3868    -2.6713     1.4380 H       
  36 H36            0.4571    -1.9608    -1.6752 H       
  37 H37            0.2988    -4.3178    -2.3595 H       
  38 H38           -1.1934    -5.8566    -1.1521 H       
  39 H39           -4.2320     2.7482     3.0245 H       
  40 H40            0.0239     2.8693     3.2734 H       
  41 H41           -0.0904     5.1766     4.1250 H       
  42 H42           -4.3484     5.0559     3.8749 H       
  43 H43            2.7596    -0.0832     1.6665 H       
  44 H44            2.9503     0.1076    -0.0929 H       
  45 H45            5.0472     0.7224     1.0107 H       
  46 H46            4.2985     2.1855     0.3272 H       
  47 H47            5.2692     3.1730     3.6955 H       
  48 H48            6.2301     2.0956     2.6543 H       
  49 H49            5.4814     3.5586     1.9708 H       
  50 H50           -3.5855    -4.9171     1.2460 H       
  51 H51           -3.9768    -7.9241     1.2618 H       
  52 H52           -2.6227    -8.1960     2.3845 H       
  53 H53           -3.7619    -6.8588     2.6715 H       
@<TRIPOS>BOND
   1    1    2 2
   2    1    9 1
   3    1    6 1
   4    2    3 1
   5    3    4 am
   6    3   10 1
   7    4    5 1
   8    4   11 2
   9    5    6 1
  10    5    7 1
  11    5   32 1
  12    6    8 2
  13    7   12 1
  14    7   33 1
  15    7   34 1
  16    9   24 1
  17   10   13 ar
  18   10   14 ar
  19   12   18 ar
  20   12   19 ar
  21   13   17 ar
  22   13   35 1
  23   14   15 ar
  24   14   36 1
  25   15   16 ar
  26   15   37 1
  27   16   17 ar
  28   16   38 1
  29   17   28 1
  30   18   21 ar
  31   18   39 1
  32   19   20 ar
  33   19   40 1
  34   20   22 ar
  35   20   41 1
  36   21   22 ar
  37   21   42 1
  38   22   23 1
  39   24   25 1
  40   24   43 1
  41   24   44 1
  42   25   26 1
  43   25   45 1
  44   25   46 1
  45   26   27 1
  46   27   47 1
  47   27   48 1
  48   27   49 1
  49   28   29 am
  50   28   50 1
  51   29   30 2
  52   29   31 1
  53   31   51 1
  54   31   52 1
  55   31   53 1

#	End of record

