#	Name: ASD03080214
#	Creating user name:	WinNT
#	Creation time:	15. 06. 2019 20:26

#	Modifying user name:	WinNT
#	Modification time:	15. 06. 2019 20:26

#	Program:	/corina/corina34_cracker 3.40 0067  02.08.2006

@<TRIPOS>MOLECULE
ASD03080214
  29   31    0    0    0
SMALL
NO_CHARGES


@<TRIPOS>ATOM
   1 C1            -0.0169     1.3929     0.0097 C.ar    
   2 C2             0.0021    -0.0041     0.0020 C.ar    
   3 C3            -1.2078    -0.6773     0.0104 C.ar    
   4 C4            -2.3851     0.0477     0.0260 C.ar    
   5 N5            -2.3712     1.3668     0.0325 N.ar    
   6 C6            -1.2450     2.0501     0.0308 C.ar    
   7 C7             1.2513     2.1644     0.0017 C.2     
   8 N8             1.3690     3.5087     0.0078 N.2     
   9 C9             2.6665     3.7493    -0.0028 C.2     
  10 O10            3.2836     2.5577    -0.0148 O.3     
  11 N11            2.4612     1.6665    -0.0068 N.2     
  12 C12            3.3160     5.0776    -0.0021 C.ar    
  13 C13            2.5463     6.2425     0.0107 C.ar    
  14 N14            3.1166     7.4302     0.0114 N.ar    
  15 C15            4.4255     7.5771     0.0002 C.ar    
  16 C16            5.2716     6.4653    -0.0135 C.ar    
  17 C17            4.7092     5.1855    -0.0084 C.ar    
  18 C18           -3.7045    -0.6803     0.0353 C.3     
  19 C19            6.6935     6.6343    -0.0266 C.1     
  20 N20            7.8215     6.7683    -0.0370 N.1     
  21 H21            0.9367    -0.5451    -0.0105 H       
  22 H22           -1.2317    -1.7570     0.0045 H       
  23 H23           -1.2742     3.1297     0.0363 H       
  24 H24            1.4688     6.1689     0.0198 H       
  25 H25            4.8503     8.5701     0.0012 H       
  26 H26            5.3341     4.3047    -0.0186 H       
  27 H27           -4.0124    -0.8613     1.0651 H       
  28 H28           -4.4576    -0.0738    -0.4679 H       
  29 H29           -3.5979    -1.6323    -0.4848 H       
@<TRIPOS>BOND
   1    1    2 ar
   2    1    7 1
   3    1    6 ar
   4    2    3 ar
   5    2   21 1
   6    3    4 ar
   7    3   22 1
   8    4    5 ar
   9    4   18 1
  10    5    6 ar
  11    6   23 1
  12    7    8 1
  13    7   11 2
  14    8    9 2
  15    9   10 1
  16    9   12 1
  17   10   11 1
  18   12   13 ar
  19   12   17 ar
  20   13   14 ar
  21   13   24 1
  22   14   15 ar
  23   15   16 ar
  24   15   25 1
  25   16   19 1
  26   16   17 ar
  27   17   26 1
  28   18   27 1
  29   18   28 1
  30   18   29 1
  31   19   20 3

#	End of record

