#	Name: ASD03320217
#	Creating user name:	WinNT
#	Creation time:	15. 06. 2019 20:36

#	Modifying user name:	WinNT
#	Modification time:	15. 06. 2019 20:36

#	Program:	/corina/corina34_cracker 3.40 0067  02.08.2006

@<TRIPOS>MOLECULE
ASD03320217
  37   39    0    0    0
SMALL
NO_CHARGES


@<TRIPOS>ATOM
   1 C1            -0.0071     1.2748    -0.1945 C.ar    
   2 N2             0.0209    -0.0356     0.0178 N.ar    
   3 C3            -1.0774    -0.7599     0.0431 C.ar    
   4 C4            -2.3180    -0.1808    -0.1526 C.ar    
   5 C5            -2.4001     1.1955    -0.3799 C.ar    
   6 C6            -1.2150     1.9354    -0.3947 C.ar    
   7 C7             1.2599     2.0420    -0.2123 C.2     
   8 O8             1.2413     3.2416    -0.4061 O.2     
   9 N9             2.4334     1.4097    -0.0136 N.am    
  10 C10            3.6371     2.1158    -0.1270 C.ar    
  11 C11           -3.7120     1.8548    -0.5945 C.ar    
  12 C12            3.7074     3.4399     0.2858 C.ar    
  13 C13            4.8948     4.1356     0.1736 C.ar    
  14 C14            6.0173     3.5123    -0.3517 C.ar    
  15 C15            5.9480     2.1896    -0.7643 C.ar    
  16 C16            4.7629     1.4907    -0.6470 C.ar    
  17 O17            7.1860     4.1983    -0.4627 O.3     
  18 C18            8.3017     3.4946    -1.0123 C.3     
  19 F19            7.9916     3.0682    -2.3082 F       
  20 F20            9.4135     4.3428    -1.0540 F       
  21 F21            8.5923     2.3839    -0.2129 F       
  22 C22           -4.8981     1.1167    -0.5746 C.ar    
  23 N23           -6.0453     1.7438    -0.7699 N.ar    
  24 C24           -6.0795     3.0447    -0.9807 C.ar    
  25 N25           -4.9842     3.7779    -1.0077 N.ar    
  26 C26           -3.7957     3.2317    -0.8160 C.ar    
  27 H27           -1.0089    -1.8233     0.2192 H       
  28 H28           -3.2128    -0.7852    -0.1304 H       
  29 H29           -1.2357     3.0014    -0.5667 H       
  30 H30            2.4441     0.4654     0.2080 H       
  31 H31            2.8334     3.9254     0.6941 H       
  32 H32            4.9496     5.1653     0.4946 H       
  33 H33            6.8222     1.7052    -1.1735 H       
  34 H34            4.7092     0.4609    -0.9679 H       
  35 H35           -4.8780     0.0507    -0.4029 H       
  36 H36           -7.0344     3.5247    -1.1364 H       
  37 H37           -2.9028     3.8388    -0.8396 H       
@<TRIPOS>BOND
   1    1    2 ar
   2    1    7 1
   3    1    6 ar
   4    2    3 ar
   5    3    4 ar
   6    3   27 1
   7    4    5 ar
   8    4   28 1
   9    5    6 ar
  10    5   11 1
  11    6   29 1
  12    7    8 2
  13    7    9 am
  14    9   10 1
  15    9   30 1
  16   10   12 ar
  17   10   16 ar
  18   11   22 ar
  19   11   26 ar
  20   12   13 ar
  21   12   31 1
  22   13   14 ar
  23   13   32 1
  24   14   15 ar
  25   14   17 1
  26   15   16 ar
  27   15   33 1
  28   16   34 1
  29   17   18 1
  30   18   19 1
  31   18   20 1
  32   18   21 1
  33   22   23 ar
  34   22   35 1
  35   23   24 ar
  36   24   25 ar
  37   24   36 1
  38   25   26 ar
  39   26   37 1

#	End of record

