#	Name: ASD00843404
#	Creating user name:	WinNT
#	Creation time:	15. 06. 2019 18:46

#	Modifying user name:	WinNT
#	Modification time:	15. 06. 2019 18:46

#	Program:	/corina/corina34_cracker 3.40 0067  02.08.2006

@<TRIPOS>MOLECULE
ASD00843404
  87   92    0    0    0
SMALL
NO_CHARGES


@<TRIPOS>ATOM
   1 F1             5.7521    -2.5484    -1.8511 F       
   2 N2             1.0117     1.0805    -0.2008 N.ar    
   3 C3             1.1625    -0.1991    -0.4988 C.ar    
   4 C4             0.9736    -1.1781     0.4686 C.ar    
   5 C5             0.6244    -0.7976     1.7523 C.ar    
   6 C6             0.4758     0.5556     2.0245 C.ar    
   7 C7             0.6793     1.4740     1.0141 C.ar    
   8 C8             1.1461    -2.6351     0.1243 C.3     
   9 C9             0.7493    -3.5075     1.2961 C.2     
  10 C10            0.3217    -2.9932    -1.1138 C.3     
  11 C11           -1.1173    -2.6067    -0.8882 C.2     
  12 N12           -2.0534    -2.9308    -1.8020 N.am    
  13 O13           -1.4330    -2.0039     0.1157 O.2     
  14 C14           -3.4419    -2.4677    -1.6574 C.3     
  15 C15           -3.8739    -1.8068    -2.9707 C.3     
  16 N16           -3.6423    -2.7379    -4.0831 N.3     
  17 C17           -2.2136    -3.0455    -4.2319 C.3     
  18 C18           -1.7122    -3.7521    -2.9735 C.3     
  19 C19           -4.2007    -2.2110    -5.3355 C.3     
  20 C20           -3.8333    -3.1446    -6.4922 C.3     
  21 C21           -4.4685    -2.6236    -7.7834 C.3     
  22 N22           -5.9270    -2.5637    -7.6233 N.3     
  23 C23           -6.3057    -1.6368    -6.5492 C.3     
  24 C24           -5.7254    -2.1284    -5.2212 C.3     
  25 C25           -6.5808    -2.1998    -8.8875 C.3     
  26 O26           -0.3473    -3.5672     1.8109 O.2     
  27 N27            1.8399    -4.2038     1.6584 N.am    
  28 C28            2.6061    -2.9577    -0.0967 C.ar    
  29 C29            2.9466    -3.9046     0.8611 C.ar    
  30 C30            3.5379    -2.5032    -1.0025 C.ar    
  31 C31            4.8342    -2.9919    -0.9645 C.ar    
  32 C32            5.1856    -3.9365    -0.0137 C.ar    
  33 C33            4.2510    -4.3924     0.8948 C.ar    
  34 Cl34           6.8089    -4.5500     0.0357 Cl      
  35 C35            1.4447    -6.8651     2.2381 C.ar    
  36 C36            2.4363    -7.7008     1.7586 C.ar    
  37 C37            0.1216    -7.2647     2.1986 C.ar    
  38 C38           -0.2126    -8.5006     1.6798 C.ar    
  39 C39            0.7805    -9.3410     1.1981 C.ar    
  40 C40            2.1072    -8.9375     1.2384 C.ar    
  41 O41            0.4542   -10.5575     0.6876 O.3     
  42 H42            3.4691    -7.3864     1.7906 H       
  43 C43            1.5284   -11.3699     0.2099 C.3     
  44 O44            1.5046    -0.5592    -1.7613 O.3     
  45 C45            1.6373     0.4904    -2.7219 C.3     
  46 C46            2.1256    -0.0922    -4.0497 C.3     
  47 F47            3.3233    -0.7849    -3.8427 F       
  48 F48            1.1611    -0.9695    -4.5568 F       
  49 S49            1.8684    -5.2911     2.9071 S.o2    
  50 O50            3.2229    -5.3848     3.3266 O.2     
  51 O51            0.8078    -4.9274     3.7801 O.2     
  52 H52            0.4707    -1.5365     2.5249 H       
  53 H53            0.2037     0.8863     3.0159 H       
  54 H54            0.5653     2.5279     1.2207 H       
  55 H55            0.7113    -2.4549    -1.9779 H       
  56 H56            0.3856    -4.0661    -1.2951 H       
  57 H57           -4.0908    -3.3171    -1.4441 H       
  58 H58           -3.5035    -1.7433    -0.8453 H       
  59 H59           -4.9335    -1.5564    -2.9205 H       
  60 H60           -3.2923    -0.8987    -3.1294 H       
  61 H61           -2.0692    -3.6934    -5.0965 H       
  62 H62           -1.6551    -2.1201    -4.3731 H       
  63 H63           -0.6312    -3.8794    -3.0312 H       
  64 H64           -2.1941    -4.7256    -2.8836 H       
  65 H65           -3.7944    -1.2177    -5.5260 H       
  66 H66           -2.7497    -3.1741    -6.6059 H       
  67 H67           -4.2053    -4.1475    -6.2826 H       
  68 H68           -4.0857    -1.6262    -7.9997 H       
  69 H69           -4.2207    -3.2939    -8.6063 H       
  70 H70           -5.9143    -0.6441    -6.7713 H       
  71 H71           -7.3923    -1.5905    -6.4757 H       
  72 H72           -6.1271    -3.1153    -4.9916 H       
  73 H73           -5.9935    -1.4319    -4.4268 H       
  74 H74           -6.3428    -2.9445    -9.6471 H       
  75 H75           -7.6603    -2.1627    -8.7408 H       
  76 H76           -6.2245    -1.2224    -9.2127 H       
  77 H77            3.2589    -1.7671    -1.7419 H       
  78 H78            4.5319    -5.1288     1.6331 H       
  79 H79           -0.6511    -6.6102     2.5741 H       
  80 H80           -1.2462    -8.8125     1.6495 H       
  81 H81            2.8822    -9.5901     0.8643 H       
  82 H82            2.0512   -10.8469    -0.5909 H       
  83 H83            2.2224   -11.5713     1.0259 H       
  84 H84            1.1311   -12.3112    -0.1698 H       
  85 H85            0.6707     0.9718    -2.8699 H       
  86 H86            2.3574     1.2246    -2.3606 H       
  87 H87            2.2918     0.7161    -4.7619 H       
@<TRIPOS>BOND
   1    1   31 1
   2    2    3 ar
   3    2    7 ar
   4    3    4 ar
   5    3   44 1
   6    4    5 ar
   7    4    8 1
   8    5    6 ar
   9    5   52 1
  10    6    7 ar
  11    6   53 1
  12    7   54 1
  13    8    9 1
  14    8   10 1
  15    8   28 1
  16    9   26 2
  17    9   27 am
  18   10   11 1
  19   10   55 1
  20   10   56 1
  21   11   12 am
  22   11   13 2
  23   12   14 1
  24   12   18 1
  25   14   15 1
  26   14   57 1
  27   14   58 1
  28   15   16 1
  29   15   59 1
  30   15   60 1
  31   16   17 1
  32   16   19 1
  33   17   18 1
  34   17   61 1
  35   17   62 1
  36   18   63 1
  37   18   64 1
  38   19   20 1
  39   19   24 1
  40   19   65 1
  41   20   21 1
  42   20   66 1
  43   20   67 1
  44   21   22 1
  45   21   68 1
  46   21   69 1
  47   22   23 1
  48   22   25 1
  49   23   24 1
  50   23   70 1
  51   23   71 1
  52   24   72 1
  53   24   73 1
  54   25   74 1
  55   25   75 1
  56   25   76 1
  57   27   49 am
  58   27   29 1
  59   28   29 ar
  60   28   30 ar
  61   29   33 ar
  62   30   31 ar
  63   30   77 1
  64   31   32 ar
  65   32   33 ar
  66   32   34 1
  67   33   78 1
  68   35   36 ar
  69   35   37 ar
  70   35   49 1
  71   36   42 1
  72   36   40 ar
  73   37   38 ar
  74   37   79 1
  75   38   39 ar
  76   38   80 1
  77   39   40 ar
  78   39   41 1
  79   40   81 1
  80   41   43 1
  81   43   82 1
  82   43   83 1
  83   43   84 1
  84   44   45 1
  85   45   46 1
  86   45   85 1
  87   45   86 1
  88   46   47 1
  89   46   48 1
  90   46   87 1
  91   49   50 2
  92   49   51 2

#	End of record

