#	Name: ASD01883001
#	Creating user name:	WinNT
#	Creation time:	15. 06. 2019 19:45

#	Modifying user name:	WinNT
#	Modification time:	15. 06. 2019 19:45

#	Program:	/corina/corina34_cracker 3.40 0067  02.08.2006

@<TRIPOS>MOLECULE
ASD01883001
  48   51    0    0    0
SMALL
NO_CHARGES


@<TRIPOS>ATOM
   1 C1             0.3596     1.4520    -0.2893 C.ar    
   2 C2             0.2770     0.0762    -0.1832 C.ar    
   3 C3             1.4236    -0.6926    -0.2549 C.ar    
   4 C4             2.6528    -0.0857    -0.4330 C.ar    
   5 C5             2.7352     1.2900    -0.5400 C.ar    
   6 C6             1.5888     2.0590    -0.4670 C.ar    
   7 C7             2.6455    -2.8204    -0.6147 C.3     
   8 C8             1.3337    -2.1924    -0.1382 C.3     
   9 C9             1.0833    -2.5762     1.3220 C.3     
  10 C10            0.9581    -4.0990     1.4313 C.3     
  11 N11            2.1545    -4.7155     0.8421 N.pl3   
  12 C12            2.5379    -4.3461    -0.5274 C.3     
  13 F13            0.2790    -2.6591    -0.9300 F       
  14 N14            4.4243    -7.4226     2.9974 N.am    
  15 C15            3.1528    -7.7485     2.6997 C.2     
  16 C16            2.3471    -6.8473     1.9644 C.2     
  17 C17            2.9024    -5.6216     1.5596 C.2     
  18 C18            4.2378    -5.3384     1.9014 C.2     
  19 C19            4.9581    -6.2351     2.6098 C.2     
  20 O20            2.6958    -8.8191     3.0630 O.2     
  21 C21            0.9925    -7.1780     1.6386 C.1     
  22 N22           -0.0822    -7.4404     1.3801 N.1     
  23 C23            5.2472    -8.3648     3.7599 C.3     
  24 C24            5.9775    -9.3009     2.7948 C.3     
  25 C25            6.9828   -10.2873     3.3924 C.3     
  26 C26            5.6384   -10.7912     2.8637 C.3     
  27 H27           -0.5367     2.0523    -0.2379 H       
  28 H28           -0.6832    -0.3980    -0.0440 H       
  29 H29            3.5487    -0.6863    -0.4883 H       
  30 H30            3.6956     1.7643    -0.6789 H       
  31 H31            1.6532     3.1338    -0.5509 H       
  32 H32            2.8350    -2.5276    -1.6474 H       
  33 H33            3.4642    -2.4766     0.0175 H       
  34 H34            1.9167    -2.2347     1.9359 H       
  35 H35            0.1610    -2.1095     1.6677 H       
  36 H36            0.8787    -4.3848     2.4802 H       
  37 H37            0.0717    -4.4324     0.8915 H       
  38 H38            1.7804    -4.6996    -1.2269 H       
  39 H39            3.5010    -4.7948    -0.7708 H       
  40 H40            4.6853    -4.4025     1.6008 H       
  41 H41            5.9820    -6.0065     2.8666 H       
  42 H42            5.9766    -7.8130     4.3527 H       
  43 H43            4.6096    -8.9509     4.4218 H       
  44 H44            6.2058    -8.8811     1.8151 H       
  45 H45            7.8723   -10.5168     2.8057 H       
  46 H46            7.1239   -10.2694     4.4731 H       
  47 H47            4.8950   -11.1049     3.5966 H       
  48 H48            5.6434   -11.3523     1.9292 H       
@<TRIPOS>BOND
   1    1    2 ar
   2    1    6 ar
   3    1   27 1
   4    2    3 ar
   5    2   28 1
   6    3    4 ar
   7    3    8 1
   8    4    5 ar
   9    4   29 1
  10    5    6 ar
  11    5   30 1
  12    6   31 1
  13    7    8 1
  14    7   12 1
  15    7   32 1
  16    7   33 1
  17    8    9 1
  18    8   13 1
  19    9   10 1
  20    9   34 1
  21    9   35 1
  22   10   11 1
  23   10   36 1
  24   10   37 1
  25   11   12 1
  26   11   17 1
  27   12   38 1
  28   12   39 1
  29   14   15 am
  30   14   23 1
  31   14   19 1
  32   15   16 1
  33   15   20 2
  34   16   17 2
  35   16   21 1
  36   17   18 1
  37   18   19 2
  38   18   40 1
  39   19   41 1
  40   21   22 3
  41   23   24 1
  42   23   42 1
  43   23   43 1
  44   24   25 1
  45   24   26 1
  46   24   44 1
  47   25   26 1
  48   25   45 1
  49   25   46 1
  50   26   47 1
  51   26   48 1

#	End of record

