#	Name: ASD01811979
#	Creating user name:	WinNT
#	Creation time:	15. 06. 2019 19:27

#	Modifying user name:	WinNT
#	Modification time:	15. 06. 2019 19:27

#	Program:	/corina/corina34_cracker 3.40 0067  02.08.2006

@<TRIPOS>MOLECULE
ASD01811979
  40   42    0    0    0
SMALL
NO_CHARGES


@<TRIPOS>ATOM
   1 C1            -0.1656     0.2969     1.4813 C.ar    
   2 C2             0.2356    -1.0249     1.3986 C.ar    
   3 C3             1.4808    -1.3341     0.8921 C.ar    
   4 C4             2.3459    -0.3265     0.4603 C.ar    
   5 C5             1.9437     0.9971     0.5433 C.ar    
   6 C6             0.6806     1.2989     1.0577 C.ar    
   7 N7             3.5827    -0.7299    -0.0364 N.am    
   8 C8             4.8246     1.1147     1.0476 C.3     
   9 C9             4.0376     2.1982     0.3548 C.2     
  10 N10            2.7305     2.0710     0.1398 N.am    
  11 S11            4.7874     3.5248    -0.1298 S.2     
  12 C12            3.6025    -1.8586    -0.8647 C.ar    
  13 C13            3.3137    -1.7342    -2.2173 C.ar    
  14 C14            3.3346    -2.8494    -3.0318 C.ar    
  15 C15            3.6428    -4.0889    -2.5017 C.ar    
  16 C16            3.9304    -4.2161    -1.1551 C.ar    
  17 C17            3.9168    -3.1039    -0.3364 C.ar    
  18 Cl18          -0.8257    -2.2911     1.9316 Cl      
  19 C19            4.2267     0.8465     2.4301 C.3     
  20 C20            5.0291    -0.2534     3.1281 C.3     
  21 C21            4.7472    -0.1344     0.2084 C.2     
  22 O22            5.7654    -0.6061    -0.2521 O.2     
  23 C23            4.2812     2.1265     3.2665 C.3     
  24 H24           -1.1417     0.5426     1.8730 H       
  25 H25            1.7902    -2.3669     0.8291 H       
  26 H26            0.3630     2.3291     1.1231 H       
  27 H27            5.8645     1.4247     1.1509 H       
  28 H28            2.2883     2.7888    -0.3400 H       
  29 H29            3.0726    -0.7665    -2.6319 H       
  30 H30            3.1097    -2.7534    -4.0837 H       
  31 H31            3.6585    -4.9594    -3.1407 H       
  32 H32            4.1700    -5.1856    -0.7439 H       
  33 H33            4.1419    -3.2039     0.7151 H       
  34 H34            3.1902     0.5271     2.3219 H       
  35 H35            6.0656     0.0660     3.2363 H       
  36 H36            4.6031    -0.4446     4.1131 H       
  37 H37            4.9902    -1.1653     2.5323 H       
  38 H38            3.7096     2.9101     2.7692 H       
  39 H39            3.8552     1.9354     4.2514 H       
  40 H40            5.3178     2.4459     3.3747 H       
@<TRIPOS>BOND
   1    1    2 ar
   2    1    6 ar
   3    1   24 1
   4    2    3 ar
   5    2   18 1
   6    3    4 ar
   7    3   25 1
   8    4    5 ar
   9    4    7 1
  10    5    6 ar
  11    5   10 1
  12    6   26 1
  13    7   12 1
  14    7   21 am
  15    8    9 1
  16    8   19 1
  17    8   21 1
  18    8   27 1
  19    9   10 am
  20    9   11 2
  21   10   28 1
  22   12   13 ar
  23   12   17 ar
  24   13   14 ar
  25   13   29 1
  26   14   15 ar
  27   14   30 1
  28   15   16 ar
  29   15   31 1
  30   16   17 ar
  31   16   32 1
  32   17   33 1
  33   19   20 1
  34   19   23 1
  35   19   34 1
  36   20   35 1
  37   20   36 1
  38   20   37 1
  39   21   22 2
  40   23   38 1
  41   23   39 1
  42   23   40 1

#	End of record

