#	Name: ASD05430335
#	Creating user name:	WinNT
#	Creation time:	15. 06. 2019 21:00

#	Modifying user name:	WinNT
#	Modification time:	15. 06. 2019 21:00

#	Program:	/corina/corina34_cracker 3.40 0067  02.08.2006

@<TRIPOS>MOLECULE
ASD05430335
  35   36    0    0    0
SMALL
NO_CHARGES


@<TRIPOS>ATOM
   1 C1            -0.0168     1.3883     0.0097 C.ar    
   2 C2             0.0021    -0.0041     0.0020 C.ar    
   3 C3            -1.1916    -0.7102     0.0096 C.ar    
   4 C4            -2.3954    -0.0318     0.0247 C.ar    
   5 C5            -2.4137     1.3509     0.0323 C.ar    
   6 C6            -1.2281     2.0614     0.0306 C.ar    
   7 C7            -3.7297     2.0850     0.0487 C.3     
   8 C8            -4.5383     1.7102    -1.1949 C.3     
   9 C9            -4.5146     1.6968     1.3034 C.3     
  10 N10            1.2261    -0.6912    -0.0138 N.pl3   
  11 C11            1.6948    -1.4837    -1.0135 C.2     
  12 N12            2.8646    -1.9453    -0.6645 N.2     
  13 C13            3.1840    -1.4745     0.5505 C.2     
  14 C14            2.1769    -0.6847     0.9735 C.2     
  15 C15            4.4517    -1.7727     1.3088 C.3     
  16 Cl16           2.0950     0.1683     2.4833 Cl      
  17 O17            1.1502     2.0857     0.0023 O.3     
  18 C18            1.0540     3.5114     0.0109 C.3     
  19 H19           -1.1803    -1.7902     0.0033 H       
  20 H20           -3.3242    -0.5829     0.0302 H       
  21 H21           -1.2458     3.1412     0.0366 H       
  22 H22           -3.5464     3.1594     0.0528 H       
  23 H23           -3.9792     1.9867    -2.0888 H       
  24 H24           -4.7216     0.6357    -1.1989 H       
  25 H25           -5.4902     2.2412    -1.1830 H       
  26 H26           -3.9385     1.9638     2.1894 H       
  27 H27           -5.4664     2.2277     1.3153 H       
  28 H28           -4.6979     0.6223     1.2994 H       
  29 H29            1.1845    -1.6961    -1.9413 H       
  30 H30            5.2087    -1.0298     1.0575 H       
  31 H31            4.2510    -1.7391     2.3796 H       
  32 H32            4.8124    -2.7649     1.0376 H       
  33 H33            0.5254     3.8346     0.9077 H       
  34 H34            2.0548     3.9431     0.0036 H       
  35 H35            0.5084     3.8441    -0.8722 H       
@<TRIPOS>BOND
   1    1    2 ar
   2    1   17 1
   3    1    6 ar
   4    2    3 ar
   5    2   10 1
   6    3    4 ar
   7    3   19 1
   8    4    5 ar
   9    4   20 1
  10    5    6 ar
  11    5    7 1
  12    6   21 1
  13    7    8 1
  14    7    9 1
  15    7   22 1
  16    8   23 1
  17    8   24 1
  18    8   25 1
  19    9   26 1
  20    9   27 1
  21    9   28 1
  22   10   11 1
  23   10   14 1
  24   11   12 2
  25   11   29 1
  26   12   13 1
  27   13   14 2
  28   13   15 1
  29   14   16 1
  30   15   30 1
  31   15   31 1
  32   15   32 1
  33   17   18 1
  34   18   33 1
  35   18   34 1
  36   18   35 1

#	End of record

