#	Name: ASD00010001
#	Creating user name:	WinNT
#	Creation time:	15. 06. 2019 18:28

#	Modifying user name:	WinNT
#	Modification time:	15. 06. 2019 18:28

#	Program:	/corina/corina34_cracker 3.40 0067  02.08.2006

@<TRIPOS>MOLECULE
ASD00010001
  21   22    0    0    0
SMALL
NO_CHARGES


@<TRIPOS>ATOM
   1 N1            -0.0162     1.3431     0.0094 N.pl3   
   2 C2             0.0021    -0.0041     0.0020 C.2     
   3 N3             1.2399    -0.4286    -0.0121 N.2     
   4 C4             2.0756     0.6130    -0.0145 C.2     
   5 N5             3.4554     0.7377    -0.0270 N.am    
   6 C6             4.2979    -0.4607    -0.0414 C.3     
   7 C7             4.0231     1.9585    -0.0263 C.2     
   8 O8             5.2358     2.0482    -0.0382 O.2     
   9 N9             3.2834     3.0807    -0.0132 N.am    
  10 C10            3.9508     4.3849    -0.0136 C.3     
  11 C11            1.9353     3.0241    -0.0002 C.2     
  12 O12            1.2758     4.0480     0.0112 O.2     
  13 C13            1.2984     1.7644    -0.0009 C.2     
  14 H14           -0.8036     1.9095     0.0164 H       
  15 H15           -0.8725    -0.6377     0.0073 H       
  16 H16            4.4971    -0.7524    -1.0726 H       
  17 H17            5.2398    -0.2488     0.4646 H       
  18 H18            3.7838    -1.2726     0.4730 H       
  19 H19            4.1059     4.7134    -1.0413 H       
  20 H20            3.3294     5.1112     0.5102 H       
  21 H21            4.9138     4.3004     0.4900 H       
@<TRIPOS>BOND
   1    1    2 1
   2    1   13 1
   3    1   14 1
   4    2    3 2
   5    2   15 1
   6    3    4 1
   7    4    5 1
   8    4   13 2
   9    5    6 1
  10    5    7 am
  11    6   16 1
  12    6   17 1
  13    6   18 1
  14    7    8 2
  15    7    9 am
  16    9   10 1
  17    9   11 am
  18   10   19 1
  19   10   20 1
  20   10   21 1
  21   11   12 2
  22   11   13 1

#	End of record

