#	Name: ASD05143259
#	Creating user name:	WinNT
#	Creation time:	15. 06. 2019 20:57

#	Modifying user name:	WinNT
#	Modification time:	15. 06. 2019 20:57

#	Program:	/corina/corina34_cracker 3.40 0067  02.08.2006

@<TRIPOS>MOLECULE
ASD05143259
  47   49    0    0    0
SMALL
NO_CHARGES


@<TRIPOS>ATOM
   1 C1            -0.4318     1.4749     0.2119 C.2     
   2 N2            -0.0999     0.2554    -0.1634 N.2     
   3 S3            -1.5641    -0.5932    -0.3169 S.3     
   4 C4            -2.5518     0.7438     0.1343 C.2     
   5 N5            -1.7152     1.7298     0.3729 N.2     
   6 N6            -3.9307     0.7726     0.2302 N.pl3   
   7 C7            -4.5722     1.9038     0.7427 C.ar    
   8 C8            -5.8813     2.1882     0.3753 C.ar    
   9 C9            -6.5122     3.3064     0.8838 C.ar    
  10 C10           -5.8421     4.1430     1.7576 C.ar    
  11 C11           -4.5386     3.8631     2.1251 C.ar    
  12 C12           -3.9038     2.7432     1.6251 C.ar    
  13 C13            1.1648    -0.2280    -0.3842 C.ar    
  14 C14            1.9903     0.3763    -1.3335 C.ar    
  15 C15            1.6338    -1.3231     0.3438 C.ar    
  16 C16            2.9064    -1.8042     0.1169 C.ar    
  17 C17            3.7177    -1.2040    -0.8300 C.ar    
  18 C18            3.2612    -0.1149    -1.5507 C.ar    
  19 C19            0.5963     2.5150     0.4492 C.ar    
  20 C20            0.3118     3.8541     0.1837 C.ar    
  21 C21            1.8506     2.1594     0.9444 C.ar    
  22 C22            2.8040     3.1325     1.1634 C.ar    
  23 C23            2.5176     4.4587     0.8931 C.ar    
  24 C24            1.2734     4.8182     0.4067 C.ar    
  25 C25            0.7518    -1.9777     1.3756 C.3     
  26 C26           -6.5336     5.3626     2.3102 C.3     
  27 H27           -4.4531     0.0078    -0.0581 H       
  28 H28           -6.4050     1.5357    -0.3076 H       
  29 H29           -7.5300     3.5281     0.5986 H       
  30 H30           -4.0180     4.5187     2.8075 H       
  31 H31           -2.8860     2.5250     1.9128 H       
  32 H32            1.6350     1.2263    -1.8971 H       
  33 H33            3.2705    -2.6511     0.6796 H       
  34 H34            4.7135    -1.5844    -1.0036 H       
  35 H35            3.8993     0.3487    -2.2885 H       
  36 H36           -0.6592     4.1360    -0.1961 H       
  37 H37            2.0751     1.1244     1.1565 H       
  38 H38            3.7757     2.8583     1.5468 H       
  39 H39            3.2668     5.2169     1.0667 H       
  40 H40            1.0556     5.8551     0.1975 H       
  41 H41            0.2293    -2.8213     0.9245 H       
  42 H42            1.3639    -2.3311     2.2053 H       
  43 H43            0.0241    -1.2542     1.7433 H       
  44 H44           -7.0437     5.1022     3.2376 H       
  45 H45           -5.7959     6.1405     2.5073 H       
  46 H46           -7.2614     5.7273     1.5853 H       
  47 Br47           9.7135    11.1405     8.2376 Br      
@<TRIPOS>BOND
   1    1    2 2
   2    1   19 1
   3    1    5 1
   4    2    3 1
   5    2   13 1
   6    3    4 1
   7    4    5 2
   8    4    6 1
   9    6    7 1
  10    6   27 1
  11    7    8 ar
  12    7   12 ar
  13    8    9 ar
  14    8   28 1
  15    9   10 ar
  16    9   29 1
  17   10   11 ar
  18   10   26 1
  19   11   12 ar
  20   11   30 1
  21   12   31 1
  22   13   14 ar
  23   13   15 ar
  24   14   18 ar
  25   14   32 1
  26   15   16 ar
  27   15   25 1
  28   16   17 ar
  29   16   33 1
  30   17   18 ar
  31   17   34 1
  32   18   35 1
  33   19   20 ar
  34   19   21 ar
  35   20   24 ar
  36   20   36 1
  37   21   22 ar
  38   21   37 1
  39   22   23 ar
  40   22   38 1
  41   23   24 ar
  42   23   39 1
  43   24   40 1
  44   25   41 1
  45   25   42 1
  46   25   43 1
  47   26   44 1
  48   26   45 1
  49   26   46 1

#	End of record

