#	Name: ASD01885393
#	Creating user name:	WinNT
#	Creation time:	15. 06. 2019 19:49

#	Modifying user name:	WinNT
#	Modification time:	15. 06. 2019 19:49

#	Program:	/corina/corina34_cracker 3.40 0067  02.08.2006

@<TRIPOS>MOLECULE
ASD01885393
  29   31    0    0    0
SMALL
NO_CHARGES


@<TRIPOS>ATOM
   1 C1            -0.0168     1.3900     0.0097 C.ar    
   2 C2             0.0021    -0.0041     0.0020 C.ar    
   3 N3            -1.1144    -0.7757     0.0172 N.2     
   4 C4            -2.1896    -0.5708    -0.6529 C.2     
   5 C5            -2.3488     0.6307    -1.5471 C.3     
   6 C6            -2.2782     1.8684    -0.6887 C.2     
   7 N7            -1.1824     2.1445     0.0191 N.am    
   8 C8             1.1906     2.0901     0.0019 C.ar    
   9 C9             2.3950     1.4187    -0.0173 C.ar    
  10 C10            2.4174     0.0332    -0.0290 C.ar    
  11 C11            1.2381    -0.6738    -0.0193 C.ar    
  12 C12           -3.2961    -1.5354    -0.5451 C.ar    
  13 C13           -4.4904    -1.3540    -1.2581 C.ar    
  14 C14           -5.4851    -2.3044    -1.1054 C.ar    
  15 N15           -5.2959    -3.3397    -0.3104 N.ar    
  16 N16           -4.2095    -3.5185     0.3475 N.ar    
  17 C17           -3.1918    -2.6765     0.2726 C.ar    
  18 O18           -3.2281     2.6210    -0.6421 O.2     
  19 Br19           4.0175     2.3898    -0.0281 Br      
  20 O20           -2.0620    -2.9051     0.9853 O.3     
  21 H21           -1.5469     0.6488    -2.2852 H       
  22 H22           -3.3136     0.5881    -2.0523 H       
  23 H23           -1.2010     2.9327     0.5842 H       
  24 H24            1.1816     3.1700     0.0107 H       
  25 H25            3.3613    -0.4913    -0.0457 H       
  26 H26            1.2615    -1.7535    -0.0280 H       
  27 H27           -4.6295    -0.5004    -1.9049 H       
  28 H28           -6.4184    -2.1979    -1.6383 H       
  29 H29           -1.4016    -3.4336     0.5168 H       
@<TRIPOS>BOND
   1    1    2 ar
   2    1    8 ar
   3    1    7 1
   4    2    3 1
   5    2   11 ar
   6    3    4 2
   7    4    5 1
   8    4   12 1
   9    5    6 1
  10    5   21 1
  11    5   22 1
  12    6    7 am
  13    6   18 2
  14    7   23 1
  15    8    9 ar
  16    8   24 1
  17    9   10 ar
  18    9   19 1
  19   10   11 ar
  20   10   25 1
  21   11   26 1
  22   12   13 ar
  23   12   17 ar
  24   13   14 ar
  25   13   27 1
  26   14   15 ar
  27   14   28 1
  28   15   16 ar
  29   16   17 ar
  30   17   20 1
  31   20   29 1

#	End of record

