#	Name: ASD04590448
#	Creating user name:	WinNT
#	Creation time:	15. 06. 2019 20:50

#	Modifying user name:	WinNT
#	Modification time:	15. 06. 2019 20:50

#	Program:	/corina/corina34_cracker 3.40 0067  02.08.2006

@<TRIPOS>MOLECULE
ASD04590448
  53   57    0    0    0
SMALL
NO_CHARGES


@<TRIPOS>ATOM
   1 C1            -0.0169     1.3919     0.0097 C.ar    
   2 C2             0.0021    -0.0041     0.0020 C.ar    
   3 C3            -2.4013    -0.0383     0.0243 C.ar    
   4 C4            -2.4140     1.3672     0.0440 C.ar    
   5 C5            -1.2195     2.0733     0.0306 C.ar    
   6 N6            -3.6930    -0.4516     0.0442 N.2     
   7 C7            -4.4887     0.5897     0.0743 C.2     
   8 N8            -3.7459     1.7405     0.0756 N.pl3   
   9 C9            -5.9648     0.5309     0.1017 C.2     
  10 C10           -6.7501    -0.6452     0.1004 C.2     
  11 C11           -8.0530    -0.2721     0.1305 C.2     
  12 N12           -8.0970     1.0861     0.1502 N.pl3   
  13 N13           -6.7813     1.5657     0.1375 N.2     
  14 N14           -6.2669    -1.9631     0.0724 N.am    
  15 C15           -7.1307    -2.9977     0.0746 C.2     
  16 O16           -8.3301    -2.7894     0.1009 O.2     
  17 C17           -6.6427    -4.3286     0.0464 C.2     
  18 C18           -1.1781    -0.7176     0.0090 C.ar    
  19 C19           -7.3680    -5.4745     0.0439 C.2     
  20 O20            1.1915    -0.6643    -0.0129 O.3     
  21 C21            1.1408    -2.0924    -0.0201 C.3     
  22 O22            1.1536     2.0847     0.0022 O.3     
  23 C23            1.0634     3.5109     0.0108 C.3     
  24 N24           -6.5948    -6.5598     0.0132 N.2     
  25 C25           -5.3170    -6.2935    -0.0077 C.2     
  26 C26           -5.1945    -4.7819     0.0057 C.3     
  27 C27           -8.8742    -5.5160     0.0724 C.3     
  28 C28           -4.2140    -7.2670    -0.0426 C.ar    
  29 C29           -4.4882    -8.6385    -0.0572 C.ar    
  30 N30           -3.4940    -9.5065    -0.0890 N.ar    
  31 C31           -2.2428    -9.0813    -0.1071 C.ar    
  32 C32           -1.9657    -7.7211    -0.0928 C.ar    
  33 N33           -2.9494    -6.8453    -0.0661 N.ar    
  34 H34           -1.2293     3.1532     0.0368 H       
  35 H35           -4.0893     2.6474     0.0949 H       
  36 H36           -8.9047    -0.9362     0.1373 H       
  37 H37           -8.9005     1.6291     0.1728 H       
  38 H38           -5.3115    -2.1290     0.0515 H       
  39 H39           -1.1583    -1.7974     0.0023 H       
  40 H40            2.1549    -2.4919    -0.0319 H       
  41 H41            0.6229    -2.4420     0.8730 H       
  42 H42            0.6059    -2.4325    -0.9068 H       
  43 H43            0.5192     3.8458    -0.8723 H       
  44 H44            0.5362     3.8362     0.9076 H       
  45 H45            2.0660     3.9384     0.0035 H       
  46 H46           -4.6981    -4.4266    -0.8973 H       
  47 H47           -4.6649    -4.4451     0.8969 H       
  48 H48           -9.2572    -5.5112    -0.9481 H       
  49 H49           -9.2031    -6.4230     0.5796 H       
  50 H50           -9.2516    -4.6439     0.6063 H       
  51 H51           -5.5105    -8.9864    -0.0421 H       
  52 H52           -1.4325    -9.7949    -0.1328 H       
  53 H53           -0.9411    -7.3800    -0.1077 H       
@<TRIPOS>BOND
   1    1    2 ar
   2    1   22 1
   3    1    5 ar
   4    2   18 ar
   5    2   20 1
   6    3    4 ar
   7    3    6 1
   8    3   18 ar
   9    4    5 ar
  10    4    8 1
  11    5   34 1
  12    6    7 2
  13    7    8 1
  14    7    9 1
  15    8   35 1
  16    9   10 1
  17    9   13 2
  18   10   11 2
  19   10   14 1
  20   11   12 1
  21   11   36 1
  22   12   13 1
  23   12   37 1
  24   14   15 am
  25   14   38 1
  26   15   16 2
  27   15   17 1
  28   17   19 2
  29   17   26 1
  30   18   39 1
  31   19   24 1
  32   19   27 1
  33   20   21 1
  34   21   40 1
  35   21   41 1
  36   21   42 1
  37   22   23 1
  38   23   43 1
  39   23   44 1
  40   23   45 1
  41   24   25 2
  42   25   26 1
  43   25   28 1
  44   26   46 1
  45   26   47 1
  46   27   48 1
  47   27   49 1
  48   27   50 1
  49   28   29 ar
  50   28   33 ar
  51   29   30 ar
  52   29   51 1
  53   30   31 ar
  54   31   32 ar
  55   31   52 1
  56   32   33 ar
  57   32   53 1

#	End of record

