#	Name: ASD01881957
#	Creating user name:	WinNT
#	Creation time:	15. 06. 2019 19:43

#	Modifying user name:	WinNT
#	Modification time:	15. 06. 2019 19:43

#	Program:	/corina/corina34_cracker 3.40 0067  02.08.2006

@<TRIPOS>MOLECULE
ASD01881957
  47   50    0    0    0
SMALL
NO_CHARGES


@<TRIPOS>ATOM
   1 N1            -0.0161     1.3329     0.0094 N.am    
   2 C2             0.0021    -0.0041     0.0020 C.2     
   3 C3             1.2764    -0.7999     0.0232 C.3     
   4 N4             2.4085     0.0552    -0.3578 N.3     
   5 C5             2.3967     1.2959     0.4340 C.3     
   6 C6             1.1986     2.1432     0.0021 C.3     
   7 O7            -1.0543    -0.5993    -0.0224 O.2     
   8 C8             3.6832    -0.6578    -0.2002 C.3     
   9 C9             3.7478    -1.8142    -1.1999 C.3     
  10 C10            5.0754    -2.5567    -1.0357 C.3     
  11 O11            5.1357    -3.6368    -1.9695 O.3     
  12 N12            9.5507    -6.8756    -2.1163 N.pl3   
  13 N13            9.0968    -7.7089    -3.1494 N.2     
  14 N14            7.9310    -7.3215    -3.5309 N.2     
  15 C15            7.5358    -6.2499    -2.8150 C.ar    
  16 C16            8.5594    -5.9456    -1.9008 C.ar    
  17 C17            6.3771    -5.4613    -2.8326 C.ar    
  18 C18            6.2588    -4.4034    -1.9550 C.ar    
  19 C19            7.2815    -4.1145    -1.0548 C.ar    
  20 C20            8.4174    -4.8736    -1.0271 C.ar    
  21 C21           10.8261    -6.9790    -1.4028 C.3     
  22 C22           11.8843    -6.1437    -2.1263 C.3     
  23 C23           13.2615    -6.0263    -1.4702 C.3     
  24 C24           13.0821    -6.8848    -2.7238 C.3     
  25 Br25           4.9836    -5.8459    -4.0515 Br      
  26 H26           -0.8744     1.7847     0.0158 H       
  27 H27            1.4412    -1.1924     1.0266 H       
  28 H28            1.1968    -1.6292    -0.6796 H       
  29 H29            2.3093     1.0528     1.4930 H       
  30 H30            3.3187     1.8502     0.2588 H       
  31 H31            1.3710     2.5274    -1.0033 H       
  32 H32            1.0797     2.9792     0.6914 H       
  33 H33            4.5090     0.0291    -0.3853 H       
  34 H34            3.7571    -1.0499     0.8142 H       
  35 H35            2.9219    -2.5011    -1.0148 H       
  36 H36            3.6738    -1.4221    -2.2143 H       
  37 H37            5.9012    -1.8698    -1.2208 H       
  38 H38            5.1493    -2.9488    -0.0214 H       
  39 H39            7.1762    -3.2831    -0.3734 H       
  40 H40            9.2048    -4.6413    -0.3254 H       
  41 H41           10.7041    -6.6084    -0.3850 H       
  42 H42           11.1430    -8.0215    -1.3743 H       
  43 H43           11.5087    -5.2751    -2.6670 H       
  44 H44           13.7921    -5.0804    -1.5797 H       
  45 H45           13.4136    -6.5440    -0.5231 H       
  46 H46           13.1161    -7.9674    -2.6015 H       
  47 H47           13.4946    -6.5038    -3.6580 H       
@<TRIPOS>BOND
   1    1    2 am
   2    1    6 1
   3    1   26 1
   4    2    3 1
   5    2    7 2
   6    3    4 1
   7    3   27 1
   8    3   28 1
   9    4    5 1
  10    4    8 1
  11    5    6 1
  12    5   29 1
  13    5   30 1
  14    6   31 1
  15    6   32 1
  16    8    9 1
  17    8   33 1
  18    8   34 1
  19    9   10 1
  20    9   35 1
  21    9   36 1
  22   10   11 1
  23   10   37 1
  24   10   38 1
  25   11   18 1
  26   12   13 1
  27   12   16 1
  28   12   21 1
  29   13   14 2
  30   14   15 1
  31   15   16 ar
  32   15   17 ar
  33   16   20 ar
  34   17   18 ar
  35   17   25 1
  36   18   19 ar
  37   19   20 ar
  38   19   39 1
  39   20   40 1
  40   21   22 1
  41   21   41 1
  42   21   42 1
  43   22   23 1
  44   22   24 1
  45   22   43 1
  46   23   24 1
  47   23   44 1
  48   23   45 1
  49   24   46 1
  50   24   47 1

#	End of record

