#	Name: ASD05313017
#	Creating user name:	WinNT
#	Creation time:	15. 06. 2019 20:58

#	Modifying user name:	WinNT
#	Modification time:	15. 06. 2019 20:58

#	Program:	/corina/corina34_cracker 3.40 0067  02.08.2006

@<TRIPOS>MOLECULE
ASD05313017
  42   45    0    0    0
SMALL
NO_CHARGES


@<TRIPOS>ATOM
   1 C1            -0.2484     1.0323     1.0451 C.2     
   2 C2            -0.0381    -0.4440     0.8078 C.3     
   3 N3             0.7669     1.9403     1.1008 N.pl3   
   4 N4             1.3694    -0.6175     0.4013 N.am    
   5 C5             2.4013     0.1276     1.1380 C.3     
   6 C6             2.1853     1.6314     0.9302 C.3     
   7 N7            -1.1184     2.9279     1.4074 N.2     
   8 N8            -1.3610     1.6740     1.2344 N.2     
   9 C9             0.1792     3.1451     1.3364 C.2     
  10 C10            0.8654     4.4470     1.4875 C.ar    
  11 C11            2.1731     4.6070     1.0284 C.ar    
  12 C12            2.8076     5.8237     1.1724 C.ar    
  13 C13            2.1498     6.8837     1.7705 C.ar    
  14 C14            0.8530     6.7314     2.2278 C.ar    
  15 C15            0.2055     5.5215     2.0846 C.ar    
  16 C16            1.7004    -1.4363    -0.6167 C.2     
  17 O17            2.8514    -1.4903    -1.0038 O.2     
  18 C18            0.6640    -2.2686    -1.2624 C.ar    
  19 C19            0.5865    -2.3374    -2.6559 C.ar    
  20 C20           -0.3849    -3.1174    -3.2520 C.ar    
  21 C21           -1.2793    -3.8285    -2.4726 C.ar    
  22 C22           -1.2078    -3.7639    -1.0921 C.ar    
  23 C23           -0.2386    -2.9942    -0.4831 C.ar    
  24 C24           -0.4709    -3.1936    -4.7546 C.3     
  25 F25           -1.5248    -4.0384    -5.1192 F       
  26 F26           -0.6974    -1.9146    -5.2742 F       
  27 F27            0.7296    -3.6985    -5.2654 F       
  28 Cl28           1.7079    -1.4445    -3.6351 Cl      
  29 H29           -0.2316    -0.9997     1.7253 H       
  30 H30           -0.7001    -0.7914     0.0146 H       
  31 H31            2.3308    -0.1068     2.2002 H       
  32 H32            3.3872    -0.1531     0.7675 H       
  33 H33            2.5002     1.9089    -0.0758 H       
  34 H34            2.7700     2.1882     1.6625 H       
  35 H35            2.6878     3.7801     0.5617 H       
  36 H36            3.8201     5.9488     0.8178 H       
  37 H37            2.6509     7.8340     1.8812 H       
  38 H38            0.3450     7.5626     2.6941 H       
  39 H39           -0.8084     5.4051     2.4379 H       
  40 H40           -2.0373    -4.4367    -2.9436 H       
  41 H41           -1.9100    -4.3213    -0.4899 H       
  42 H42           -0.1812    -2.9493     0.5944 H       
@<TRIPOS>BOND
   1    1    2 1
   2    1    3 1
   3    1    8 2
   4    2    4 1
   5    2   29 1
   6    2   30 1
   7    3    6 1
   8    3    9 1
   9    4    5 1
  10    4   16 am
  11    5    6 1
  12    5   31 1
  13    5   32 1
  14    6   33 1
  15    6   34 1
  16    7    8 1
  17    7    9 2
  18    9   10 1
  19   10   11 ar
  20   10   15 ar
  21   11   12 ar
  22   11   35 1
  23   12   13 ar
  24   12   36 1
  25   13   14 ar
  26   13   37 1
  27   14   15 ar
  28   14   38 1
  29   15   39 1
  30   16   17 2
  31   16   18 1
  32   18   19 ar
  33   18   23 ar
  34   19   20 ar
  35   19   28 1
  36   20   21 ar
  37   20   24 1
  38   21   22 ar
  39   21   40 1
  40   22   23 ar
  41   22   41 1
  42   23   42 1
  43   24   25 1
  44   24   26 1
  45   24   27 1

#	End of record

