#	Name: ASD01915401
#	Creating user name:	WinNT
#	Creation time:	15. 06. 2019 20:05

#	Modifying user name:	WinNT
#	Modification time:	15. 06. 2019 20:05

#	Program:	/corina/corina34_cracker 3.40 0067  02.08.2006

@<TRIPOS>MOLECULE
ASD01915401
  30   31    0    0    0
SMALL
NO_CHARGES


@<TRIPOS>ATOM
   1 C1            -0.0167     1.3776     0.0096 C.ar    
   2 C2             0.0021    -0.0041     0.0020 C.ar    
   3 N3             1.1443    -0.6632    -0.0120 N.ar    
   4 C4             2.3054    -0.0383    -0.0197 C.ar    
   5 C5             2.3651     1.3426    -0.0133 C.ar    
   6 C6             1.1850     2.0698     0.0019 C.ar    
   7 C7             3.5820    -0.8390    -0.0352 C.3     
   8 C8             3.5852    -1.8018     1.1242 C.2     
   9 O9             2.6438    -1.8345     1.8876 O.2     
  10 C10            4.7311    -2.7023     1.3298 C.ar    
  11 C11            5.8187    -2.6663     0.4500 C.ar    
  12 C12            6.8934    -3.5109     0.6419 C.ar    
  13 C13            6.9040    -4.3963     1.7014 C.ar    
  14 C14            5.8251    -4.4437     2.5890 C.ar    
  15 C15            4.7388    -3.5911     2.4065 C.ar    
  16 C16           -1.2977    -0.7666     0.0103 C.3     
  17 C17            5.8388    -5.3634     3.6865 C.1     
  18 N18            5.8497    -6.0930     4.5572 N.1     
  19 H19           -0.9553     1.9117     0.0170 H       
  20 H20            3.3192     1.8487    -0.0193 H       
  21 H21            1.2010     3.1496     0.0072 H       
  22 H22            3.6505    -1.3956    -0.9699 H       
  23 H23            4.4345    -0.1652     0.0497 H       
  24 H24            5.8169    -1.9765    -0.3811 H       
  25 H25            7.7301    -3.4792    -0.0403 H       
  26 H26            7.7483    -5.0545     1.8445 H       
  27 H27            3.9029    -3.6233     3.0895 H       
  28 H28           -1.6209    -0.9449    -1.0153 H       
  29 H29           -1.1560    -1.7208     0.5177 H       
  30 H30           -2.0565    -0.1856     0.5346 H       
@<TRIPOS>BOND
   1    1    2 ar
   2    1    6 ar
   3    1   19 1
   4    2    3 ar
   5    2   16 1
   6    3    4 ar
   7    4    5 ar
   8    4    7 1
   9    5    6 ar
  10    5   20 1
  11    6   21 1
  12    7    8 1
  13    7   22 1
  14    7   23 1
  15    8    9 2
  16    8   10 1
  17   10   11 ar
  18   10   15 ar
  19   11   12 ar
  20   11   24 1
  21   12   13 ar
  22   12   25 1
  23   13   14 ar
  24   13   26 1
  25   14   15 ar
  26   14   17 1
  27   15   27 1
  28   16   28 1
  29   16   29 1
  30   16   30 1
  31   17   18 3

#	End of record

