#	Name: ASD03090229
#	Creating user name:	WinNT
#	Creation time:	15. 06. 2019 20:28

#	Modifying user name:	WinNT
#	Modification time:	15. 06. 2019 20:28

#	Program:	/corina/corina34_cracker 3.40 0067  02.08.2006

@<TRIPOS>MOLECULE
ASD03090229
  55   57    0    0    0
SMALL
NO_CHARGES


@<TRIPOS>ATOM
   1 N1             0.4526     1.5157     1.4729 N.ar    
   2 C2             0.4139     0.1967     1.4377 C.ar    
   3 C3             1.5376    -0.5379     1.1259 C.ar    
   4 C4             2.7341     0.1330     0.8435 C.ar    
   5 C5             2.7356     1.5287     0.8908 C.ar    
   6 C6             1.5601     2.1909     1.2134 C.ar    
   7 C7             3.9643    -0.6172     0.5045 C.2     
   8 N8             5.7288    -3.4742    -0.5337 N.pl3   
   9 C9             4.7980    -4.4584    -0.8769 C.ar    
  10 C10            3.5822    -4.0990    -1.4443 C.ar    
  11 C11            2.6644    -5.0743    -1.7823 C.ar    
  12 C12            2.9547    -6.4071    -1.5561 C.ar    
  13 C13            4.1643    -6.7685    -0.9909 C.ar    
  14 C14            5.0890    -5.7990    -0.6567 C.ar    
  15 N15            4.0223    -1.8734     0.1106 N.2     
  16 C16            5.2919    -2.2185    -0.1073 C.2     
  17 N17            6.0653    -1.1870     0.1443 N.2     
  18 N18            5.2256    -0.1328     0.5387 N.pl3   
  19 C19            5.6361     1.2209     0.9198 C.3     
  20 C20            5.7447     2.0926    -0.3330 C.3     
  21 C21            6.1670     3.4851     0.0590 C.2     
  22 O22            6.3618     3.7539     1.2255 O.2     
  23 N23            6.3280     4.4317    -0.8867 N.am    
  24 C24            6.7385     5.7854    -0.5056 C.3     
  25 C25            6.0926     4.1070    -2.2957 C.3     
  26 C26           -0.8780    -0.5165     1.7435 C.3     
  27 O27            1.5460     3.5468     1.2629 O.3     
  28 C28            0.3057     4.1708     1.6007 C.3     
  29 C29            4.4759    -8.2223    -0.7453 C.3     
  30 F30            3.3981    -9.0080    -1.1675 F       
  31 F31            5.6230    -8.5808    -1.4614 F       
  32 F32            4.6958    -8.4278     0.6209 F       
  33 H33            1.4961    -1.6168     1.1000 H       
  34 H34            3.6377     2.0838     0.6800 H       
  35 H35            6.6784    -3.6634    -0.5918 H       
  36 H36            3.3545    -3.0581    -1.6206 H       
  37 H37            1.7189    -4.7955    -2.2234 H       
  38 H38            2.2352    -7.1677    -1.8209 H       
  39 H39            6.0333    -6.0819    -0.2155 H       
  40 H40            4.8961     1.6480     1.5965 H       
  41 H41            6.6042     1.1800     1.4190 H       
  42 H42            6.4848     1.6655    -1.0097 H       
  43 H43            4.7766     2.1334    -0.8322 H       
  44 H44            7.8265     5.8510    -0.5136 H       
  45 H45            6.3260     6.5033    -1.2146 H       
  46 H46            6.3684     6.0092     0.4949 H       
  47 H47            5.0480     4.2967    -2.5427 H       
  48 H48            6.7327     4.7271    -2.9233 H       
  49 H49            6.3219     3.0557    -2.4695 H       
  50 H50           -1.4438    -0.6544     0.8221 H       
  51 H51           -0.6605    -1.4889     2.1853 H       
  52 H52           -1.4642     0.0780     2.4443 H       
  53 H53            0.4328     5.2534     1.6049 H       
  54 H54           -0.4511     3.8967     0.8656 H       
  55 H55           -0.0109     3.8384     2.5893 H       
@<TRIPOS>BOND
   1    1    2 ar
   2    1    6 ar
   3    2    3 ar
   4    2   26 1
   5    3    4 ar
   6    3   33 1
   7    4    5 ar
   8    4    7 1
   9    5    6 ar
  10    5   34 1
  11    6   27 1
  12    7   15 2
  13    7   18 1
  14    8    9 1
  15    8   16 1
  16    8   35 1
  17    9   10 ar
  18    9   14 ar
  19   10   11 ar
  20   10   36 1
  21   11   12 ar
  22   11   37 1
  23   12   13 ar
  24   12   38 1
  25   13   14 ar
  26   13   29 1
  27   14   39 1
  28   15   16 1
  29   16   17 2
  30   17   18 1
  31   18   19 1
  32   19   20 1
  33   19   40 1
  34   19   41 1
  35   20   21 1
  36   20   42 1
  37   20   43 1
  38   21   22 2
  39   21   23 am
  40   23   24 1
  41   23   25 1
  42   24   44 1
  43   24   45 1
  44   24   46 1
  45   25   47 1
  46   25   48 1
  47   25   49 1
  48   26   50 1
  49   26   51 1
  50   26   52 1
  51   27   28 1
  52   28   53 1
  53   28   54 1
  54   28   55 1
  55   29   30 1
  56   29   31 1
  57   29   32 1

#	End of record

