#	Name: ASD03240593
#	Creating user name:	WinNT
#	Creation time:	15. 06. 2019 20:35

#	Modifying user name:	WinNT
#	Modification time:	15. 06. 2019 20:35

#	Program:	/corina/corina34_cracker 3.40 0067  02.08.2006

@<TRIPOS>MOLECULE
ASD03240593
  66   71    0    0    0
SMALL
NO_CHARGES


@<TRIPOS>ATOM
   1 C1            -0.0166     1.3755     0.0096 C.ar    
   2 C2             0.0021    -0.0041     0.0020 C.ar    
   3 N3             1.1422    -0.6683    -0.0054 N.ar    
   4 C4             2.3145    -0.0481    -0.0053 C.ar    
   5 C5             2.3702     1.3442    -0.0124 C.ar    
   6 C6             1.1860     2.0698     0.0019 C.ar    
   7 N7             3.4820    -0.8058     0.0229 N.pl3   
   8 C8             4.3588    -0.7191     1.1008 C.ar    
   9 C9             4.9948     0.4893     1.4046 C.ar    
  10 C10            4.7637     1.6837     0.5625 C.2     
  11 N11            3.5938     2.0277    -0.0512 N.pl3   
  12 C12            4.6045    -1.8386     1.8846 C.ar    
  13 C13            5.4640    -1.7530     2.9631 C.ar    
  14 C14            6.0846    -0.5548     3.2719 C.ar    
  15 C15            5.8554     0.5659     2.4993 C.ar    
  16 N16            5.6758     2.5935     0.2861 N.2     
  17 C17            5.1461     3.5402    -0.5062 C.2     
  18 C18            3.8216     3.2031    -0.7376 C.2     
  19 C19            2.8486     3.9521    -1.5553 C.ar    
  20 C20            2.7488     5.3403    -1.4315 C.ar    
  21 C21            2.0264     3.2774    -2.4615 C.ar    
  22 C22            1.1195     3.9843    -3.2230 C.ar    
  23 C23            1.0226     5.3584    -3.0912 C.ar    
  24 C24            1.8372     6.0340    -2.1996 C.ar    
  25 C25            5.8474     4.7253    -1.0344 C.2     
  26 C26            0.0293     6.1237    -3.9273 C.3     
  27 N27           -1.0490     5.2749    -4.4514 N.3     
  28 C28           -0.4724     7.4149    -3.2597 C.3     
  29 C29           -0.3854     8.0728    -4.6469 C.3     
  30 C30            0.6821     7.0190    -4.9936 C.3     
  31 C31            7.1247     4.9300    -0.7334 C.2     
  32 C32            7.8413     6.1409    -1.2731 C.3     
  33 C33            6.8780     6.9631    -2.1315 C.3     
  34 C34            8.3444     6.9967    -0.1089 C.3     
  35 C35            9.0290     5.6922    -2.1268 C.3     
  36 H36           -0.9556     1.9091     0.0170 H       
  37 H37           -0.9306    -0.5486     0.0025 H       
  38 H38            1.2002     3.1497     0.0061 H       
  39 H39            3.6864    -1.4005    -0.7157 H       
  40 H40            4.1232    -2.7769     1.6512 H       
  41 H41            5.6525    -2.6266     3.5695 H       
  42 H42            6.7504    -0.4966     4.1203 H       
  43 H43            6.3410     1.4995     2.7421 H       
  44 H44            3.3838     5.8688    -0.7358 H       
  45 H45            2.1012     2.2050    -2.5657 H       
  46 H46            0.4836     3.4642    -3.9241 H       
  47 H47            1.7561     7.1065    -2.1020 H       
  48 H48            5.3224     5.4266    -1.6659 H       
  49 H49           -0.6755     4.4528    -4.9018 H       
  50 H50           -1.6986     5.0236    -3.7214 H       
  51 H51           -1.4895     7.3407    -2.8747 H       
  52 H52            0.2265     7.8315    -2.5343 H       
  53 H53           -1.2988     7.9765    -5.2339 H       
  54 H54           -0.0019     9.0928    -4.6232 H       
  55 H55            1.6972     7.3268    -4.7426 H       
  56 H56            0.5960     6.6273    -6.0072 H       
  57 H57            7.6497     4.2287    -0.1019 H       
  58 H58            6.0318     7.2828    -1.5233 H       
  59 H59            7.3963     7.8389    -2.5218 H       
  60 H60            6.5195     6.3534    -2.9609 H       
  61 H61            9.0307     6.4109     0.5026 H       
  62 H62            8.8628     7.8725    -0.4993 H       
  63 H63            7.4983     7.3164     0.4993 H       
  64 H64            8.6706     5.0825    -2.9562 H       
  65 H65            9.5474     6.5680    -2.5172 H       
  66 H66            9.7153     5.1064    -1.5153 H       
@<TRIPOS>BOND
   1    1    2 ar
   2    1    6 ar
   3    1   36 1
   4    2    3 ar
   5    2   37 1
   6    3    4 ar
   7    4    5 ar
   8    4    7 1
   9    5    6 ar
  10    5   11 1
  11    6   38 1
  12    7    8 1
  13    7   39 1
  14    8    9 ar
  15    8   12 ar
  16    9   10 1
  17    9   15 ar
  18   10   11 1
  19   10   16 2
  20   11   18 1
  21   12   13 ar
  22   12   40 1
  23   13   14 ar
  24   13   41 1
  25   14   15 ar
  26   14   42 1
  27   15   43 1
  28   16   17 1
  29   17   18 2
  30   17   25 1
  31   18   19 1
  32   19   20 ar
  33   19   21 ar
  34   20   24 ar
  35   20   44 1
  36   21   22 ar
  37   21   45 1
  38   22   23 ar
  39   22   46 1
  40   23   24 ar
  41   23   26 1
  42   24   47 1
  43   25   31 2
  44   25   48 1
  45   26   27 1
  46   26   28 1
  47   26   30 1
  48   27   49 1
  49   27   50 1
  50   28   29 1
  51   28   51 1
  52   28   52 1
  53   29   30 1
  54   29   53 1
  55   29   54 1
  56   30   55 1
  57   30   56 1
  58   31   32 1
  59   31   57 1
  60   32   33 1
  61   32   34 1
  62   32   35 1
  63   33   58 1
  64   33   59 1
  65   33   60 1
  66   34   61 1
  67   34   62 1
  68   34   63 1
  69   35   64 1
  70   35   65 1
  71   35   66 1

#	End of record

