#	Name: ASD01917233
#	Creating user name:	WinNT
#	Creation time:	15. 06. 2019 20:08

#	Modifying user name:	WinNT
#	Modification time:	15. 06. 2019 20:08

#	Program:	/corina/corina34_cracker 3.40 0067  02.08.2006

@<TRIPOS>MOLECULE
ASD01917233
  40   43    0    0    0
SMALL
NO_CHARGES


@<TRIPOS>ATOM
   1 C1             0.1477     0.6226    -0.4864 C.ar    
   2 N2             0.3078    -0.6733    -0.3023 N.ar    
   3 C3             1.4981    -1.2029    -0.0982 C.ar    
   4 C4             2.6294    -0.4096    -0.0697 C.ar    
   5 C5             2.5006     0.9578    -0.2593 C.ar    
   6 C6             1.2331     1.4781    -0.4714 C.ar    
   7 C7             3.7095     1.8573    -0.2348 C.3     
   8 O8             4.2447     1.9719    -1.5549 O.3     
   9 C9             5.3466     2.7541    -1.7086 C.2     
  10 N10            5.9603     3.4125    -0.7470 N.2     
  11 N11            7.0351     4.0997    -1.2959 N.pl3   
  12 C12            7.0647     3.8218    -2.6441 C.2     
  13 C13            6.0200     2.9879    -2.9156 C.2     
  14 C14            8.0130     4.9912    -0.6695 C.3     
  15 C15            9.3299     4.9171    -1.4421 C.3     
  16 N16            9.1393     5.0094    -2.8853 N.am    
  17 C17            8.1140     4.3830    -3.5110 C.2     
  18 O18            8.0633     4.2891    -4.7228 O.2     
  19 C19           10.0397     5.7657    -3.6440 C.ar    
  20 C20           11.3581     5.3497    -3.7765 C.ar    
  21 C21           12.2451     6.0977    -4.5257 C.ar    
  22 C22           11.8207     7.2616    -5.1444 C.ar    
  23 C23           10.5067     7.6784    -5.0131 C.ar    
  24 C24            9.6148     6.9302    -4.2700 C.ar    
  25 F25           12.6900     7.9918    -5.8767 F       
  26 H26           -0.8424     1.0194    -0.6552 H       
  27 H27            1.5900    -2.2690     0.0486 H       
  28 H28            3.6015    -0.8491     0.0986 H       
  29 H29            1.0956     2.5385    -0.6232 H       
  30 H30            3.4209     2.8441     0.1271 H       
  31 H31            4.4642     1.4336     0.4277 H       
  32 H32            5.7565     2.5868    -3.8831 H       
  33 H33            7.6372     6.0142    -0.6880 H       
  34 H34            8.1786     4.6822     0.3625 H       
  35 H35            9.9743     5.7347    -1.1190 H       
  36 H36            9.8210     3.9718    -1.2114 H       
  37 H37           11.6895     4.4422    -3.2939 H       
  38 H38           13.2705     5.7748    -4.6287 H       
  39 H39           10.1778     8.5866    -5.4962 H       
  40 H40            8.5901     7.2556    -4.1679 H       
@<TRIPOS>BOND
   1    1    2 ar
   2    1    6 ar
   3    1   26 1
   4    2    3 ar
   5    3    4 ar
   6    3   27 1
   7    4    5 ar
   8    4   28 1
   9    5    6 ar
  10    5    7 1
  11    6   29 1
  12    7    8 1
  13    7   30 1
  14    7   31 1
  15    8    9 1
  16    9   10 2
  17    9   13 1
  18   10   11 1
  19   11   12 1
  20   11   14 1
  21   12   13 2
  22   12   17 1
  23   13   32 1
  24   14   15 1
  25   14   33 1
  26   14   34 1
  27   15   16 1
  28   15   35 1
  29   15   36 1
  30   16   17 am
  31   16   19 1
  32   17   18 2
  33   19   20 ar
  34   19   24 ar
  35   20   21 ar
  36   20   37 1
  37   21   22 ar
  38   21   38 1
  39   22   23 ar
  40   22   25 1
  41   23   24 ar
  42   23   39 1
  43   24   40 1

#	End of record

