#	Name: ASD01916390
#	Creating user name:	WinNT
#	Creation time:	15. 06. 2019 20:07

#	Modifying user name:	WinNT
#	Modification time:	15. 06. 2019 20:07

#	Program:	/corina/corina34_cracker 3.40 0067  02.08.2006

@<TRIPOS>MOLECULE
ASD01916390
  31   33    0    0    0
SMALL
NO_CHARGES


@<TRIPOS>ATOM
   1 S1            -0.0211     1.7022     0.0114 S.3     
   2 C2             0.0021    -0.0041     0.0020 C.2     
   3 N3             1.1982    -0.4570    -0.0118 N.2     
   4 C4             2.2082     0.4342    -0.0167 C.ar    
   5 C5             1.7392     1.7517    -0.0051 C.ar    
   6 C6             2.6362     2.8191    -0.0087 C.ar    
   7 C7             3.9930     2.5820    -0.0236 C.ar    
   8 C8             4.4713     1.2794    -0.0352 C.ar    
   9 C9             3.6024     0.2150    -0.0316 C.ar    
  10 C10           -1.2320    -0.8689     0.0099 C.3     
  11 C11           -1.6350    -1.1693     1.4550 C.3     
  12 C12           -2.8405    -2.0140     1.4628 C.1     
  13 C13           -3.8019    -2.6878     1.4689 C.1     
  14 C14           -4.9746    -3.5096     1.4765 C.ar    
  15 C15           -5.5293    -3.9134     2.6915 C.ar    
  16 C16           -6.6623    -4.7072     2.6820 C.ar    
  17 C17           -7.2056    -5.0725     1.4580 C.ar    
  18 C18           -6.6047    -4.6369     0.2914 C.ar    
  19 N19           -5.5291    -3.8770     0.3270 N.ar    
  20 F20            4.0847    -1.0469    -0.0430 F       
  21 Cl21           2.0419     4.4502     0.0052 Cl      
  22 H22            4.6854     3.4108    -0.0266 H       
  23 H23            5.5363     1.1006    -0.0472 H       
  24 H24           -2.0455    -0.3458    -0.4928 H       
  25 H25           -1.0241    -1.8035    -0.5111 H       
  26 H26           -0.8216    -1.6924     1.9578 H       
  27 H27           -1.8429    -0.2347     1.9760 H       
  28 H28           -5.0803    -3.6109     3.6260 H       
  29 H29           -7.1140    -5.0356     3.6065 H       
  30 H30           -8.0895    -5.6918     1.4172 H       
  31 H31           -7.0252    -4.9201    -0.6622 H       
@<TRIPOS>BOND
   1    1    2 1
   2    1    5 1
   3    2    3 2
   4    2   10 1
   5    3    4 1
   6    4    5 ar
   7    4    9 ar
   8    5    6 ar
   9    6    7 ar
  10    6   21 1
  11    7    8 ar
  12    7   22 1
  13    8    9 ar
  14    8   23 1
  15    9   20 1
  16   10   11 1
  17   10   24 1
  18   10   25 1
  19   11   12 1
  20   11   26 1
  21   11   27 1
  22   12   13 3
  23   13   14 1
  24   14   15 ar
  25   14   19 ar
  26   15   16 ar
  27   15   28 1
  28   16   17 ar
  29   16   29 1
  30   17   18 ar
  31   17   30 1
  32   18   19 ar
  33   18   31 1

#	End of record

