#	Name: ASD01882888
#	Creating user name:	WinNT
#	Creation time:	15. 06. 2019 19:45

#	Modifying user name:	WinNT
#	Modification time:	15. 06. 2019 19:45

#	Program:	/corina/corina34_cracker 3.40 0067  02.08.2006

@<TRIPOS>MOLECULE
ASD01882888
  43   47    0    0    0
SMALL
NO_CHARGES


@<TRIPOS>ATOM
   1 C1            -0.0159     1.3220     0.0093 C.2     
   2 N2             0.0021    -0.0041     0.0020 N.2     
   3 C3             1.1523    -0.6857    -0.0126 C.2     
   4 C4             2.3835     0.0173    -0.0206 C.2     
   5 C5             2.3523     1.3664    -0.0131 C.2     
   6 N6             1.1484     2.0132     0.0019 N.pl3   
   7 O7            -1.0993     2.1290     0.0184 O.3     
   8 C8             0.8540     3.4562     0.0125 C.3     
   9 C9            -0.6831     3.5211     0.0242 C.3     
  10 O10            1.1423    -1.9071    -0.0187 O.2     
  11 C11           -1.1944     4.2379    -1.2270 C.3     
  12 O12           -2.6209     4.3119    -1.1842 O.3     
  13 O13           -6.5452     5.8984    -3.6044 O.3     
  14 C14           -5.2514     5.6508    -3.3117 C.ar    
  15 C15           -4.4757     6.1714    -4.3639 C.ar    
  16 C16           -5.4379     6.7479    -5.3013 C.2     
  17 C17           -6.6577     6.5458    -4.7763 C.2     
  18 C18           -3.0863     6.0588    -4.3304 C.ar    
  19 C19           -2.4786     5.4409    -3.2737 C.ar    
  20 C20           -3.2387     4.9235    -2.2291 C.ar    
  21 C21           -4.6182     5.0270    -2.2455 C.ar    
  22 C22           -7.9378     6.9990    -5.4409 C.3     
  23 C23           -7.5900     8.0419    -6.5087 C.3     
  24 C24           -6.4745     7.5015    -7.4081 C.3     
  25 C25           -5.1658     7.4407    -6.6100 C.3     
  26 H26            3.3237    -0.5140    -0.0321 H       
  27 H27            3.2727     1.9314    -0.0185 H       
  28 H28            1.2651     3.9237     0.9072 H       
  29 H29            1.2480     3.9334    -0.8848 H       
  30 H30           -1.0396     4.0220     0.9243 H       
  31 H31           -0.7793     5.2451    -1.2639 H       
  32 H32           -0.8857     3.6850    -2.1142 H       
  33 H33           -2.4915     6.4583    -5.1385 H       
  34 H34           -1.4023     5.3544    -3.2487 H       
  35 H35           -5.2011     4.6226    -1.4311 H       
  36 H36           -8.4292     6.1459    -5.9088 H       
  37 H37           -8.5991     7.4432    -4.6970 H       
  38 H38           -8.4730     8.2524    -7.1120 H       
  39 H39           -7.2540     8.9590    -6.0247 H       
  40 H40           -6.7375     6.5015    -7.7530 H       
  41 H41           -6.3471     8.1614    -8.2662 H       
  42 H42           -4.8041     8.4514    -6.4212 H       
  43 H43           -4.4194     6.8803    -7.1729 H       
@<TRIPOS>BOND
   1    1    2 2
   2    1    6 1
   3    1    7 1
   4    2    3 1
   5    3    4 1
   6    3   10 2
   7    4    5 2
   8    4   26 1
   9    5    6 1
  10    5   27 1
  11    6    8 1
  12    7    9 1
  13    8    9 1
  14    8   28 1
  15    8   29 1
  16    9   11 1
  17    9   30 1
  18   11   12 1
  19   11   31 1
  20   11   32 1
  21   12   20 1
  22   13   14 1
  23   13   17 1
  24   14   15 ar
  25   14   21 ar
  26   15   16 1
  27   15   18 ar
  28   16   17 2
  29   16   25 1
  30   17   22 1
  31   18   19 ar
  32   18   33 1
  33   19   20 ar
  34   19   34 1
  35   20   21 ar
  36   21   35 1
  37   22   23 1
  38   22   36 1
  39   22   37 1
  40   23   24 1
  41   23   38 1
  42   23   39 1
  43   24   25 1
  44   24   40 1
  45   24   41 1
  46   25   42 1
  47   25   43 1

#	End of record

