#	Name: ASD01883337
#	Creating user name:	WinNT
#	Creation time:	15. 06. 2019 19:46

#	Modifying user name:	WinNT
#	Modification time:	15. 06. 2019 19:46

#	Program:	/corina/corina34_cracker 3.40 0067  02.08.2006

@<TRIPOS>MOLECULE
ASD01883337
  51   53    0    0    0
SMALL
NO_CHARGES


@<TRIPOS>ATOM
   1 N1            -0.7460     2.1894     0.8054 N.am    
   2 C2            -0.3441     0.9814     0.3681 C.2     
   3 C3            -1.3023    -0.0239     0.0929 C.2     
   4 C4            -2.6604     0.2685     0.2852 C.2     
   5 C5            -3.0186     1.5472     0.7435 C.2     
   6 C6            -2.0611     2.4681     0.9957 C.2     
   7 O7             0.8431     0.7534     0.2089 O.2     
   8 C8            -0.8927    -1.3144    -0.3734 C.1     
   9 N9            -0.5678    -2.3382    -0.7433 N.1     
  10 O10           -3.6075    -0.6629     0.0338 O.3     
  11 C11            0.2552     3.2211     1.0872 C.3     
  12 C12            0.5108     4.0428    -0.1779 C.3     
  13 C13            1.5564     5.1203     0.1164 C.3     
  14 C14            1.9037     5.8606    -1.1767 C.3     
  15 C15            0.9935     6.1121     1.1364 C.3     
  16 C16           -4.4662    -0.4384    -0.9963 C.ar    
  17 C17           -5.5249    -1.3070    -1.2184 C.ar    
  18 C18           -6.3973    -1.0796    -2.2643 C.ar    
  19 C19           -6.2147     0.0190    -3.0940 C.ar    
  20 C20           -5.1546     0.8881    -2.8711 C.ar    
  21 C21           -4.2864     0.6625    -1.8213 C.ar    
  22 N22           -7.0978     0.2498    -4.1541 N.3     
  23 C23           -8.4751    -0.1263    -3.7858 C.3     
  24 C24           -9.3597     1.1217    -3.9892 C.3     
  25 C25           -8.5418     1.9690    -4.9993 C.3     
  26 C26           -7.0888     1.6740    -4.5507 C.3     
  27 H27           -4.0586     1.7935     0.8984 H       
  28 H28           -2.3488     3.4476     1.3480 H       
  29 H29           -0.1105     3.8759     1.8781 H       
  30 H30            1.1838     2.7485     1.4072 H       
  31 H31            0.8765     3.3879    -0.9687 H       
  32 H32           -0.4178     4.5154    -0.4979 H       
  33 H33            2.4548     4.6539     0.5206 H       
  34 H34            1.0053     6.3269    -1.5810 H       
  35 H35            2.6486     6.6282    -0.9671 H       
  36 H36            2.3047     5.1540    -1.9034 H       
  37 H37            0.0951     6.5784     0.7322 H       
  38 H38            0.7461     5.5847     2.0577 H       
  39 H39            1.7384     6.8797     1.3461 H       
  40 H40           -5.6666    -2.1615    -0.5732 H       
  41 H41           -7.2212    -1.7561    -2.4372 H       
  42 H42           -5.0118     1.7424    -3.5162 H       
  43 H43           -3.4622     1.3384    -1.6476 H       
  44 H44           -8.8227    -0.9357    -4.4278 H       
  45 H45           -8.5079    -0.4379    -2.7418 H       
  46 H46          -10.3256     0.8448    -4.4116 H       
  47 H47           -9.4886     1.6600    -3.0502 H       
  48 H48           -8.7115     1.6296    -6.0211 H       
  49 H49           -8.7742     3.0291    -4.8979 H       
  50 H50           -6.8186     2.3025    -3.7021 H       
  51 H51           -6.3966     1.8333    -5.3776 H       
@<TRIPOS>BOND
   1    1    2 am
   2    1   11 1
   3    1    6 1
   4    2    3 1
   5    2    7 2
   6    3    4 2
   7    3    8 1
   8    4    5 1
   9    4   10 1
  10    5    6 2
  11    5   27 1
  12    6   28 1
  13    8    9 3
  14   10   16 1
  15   11   12 1
  16   11   29 1
  17   11   30 1
  18   12   13 1
  19   12   31 1
  20   12   32 1
  21   13   14 1
  22   13   15 1
  23   13   33 1
  24   14   34 1
  25   14   35 1
  26   14   36 1
  27   15   37 1
  28   15   38 1
  29   15   39 1
  30   16   17 ar
  31   16   21 ar
  32   17   18 ar
  33   17   40 1
  34   18   19 ar
  35   18   41 1
  36   19   20 ar
  37   19   22 1
  38   20   21 ar
  39   20   42 1
  40   21   43 1
  41   22   23 1
  42   22   26 1
  43   23   24 1
  44   23   44 1
  45   23   45 1
  46   24   25 1
  47   24   46 1
  48   24   47 1
  49   25   26 1
  50   25   48 1
  51   25   49 1
  52   26   50 1
  53   26   51 1

#	End of record

