#	Name: ASD03540011
#	Creating user name:	WinNT
#	Creation time:	15. 06. 2019 20:42

#	Modifying user name:	WinNT
#	Modification time:	15. 06. 2019 20:42

#	Program:	/corina/corina34_cracker 3.40 0067  02.08.2006

@<TRIPOS>MOLECULE
ASD03540011
  44   47    0    0    0
SMALL
NO_CHARGES


@<TRIPOS>ATOM
   1 C1            -0.0569     1.5148    -0.7243 C.2     
   2 N2            -0.1193     0.3665    -1.4542 N.am    
   3 C3             0.9766     0.0356    -2.2144 C.2     
   4 C4             2.0984     0.8341    -2.2390 C.2     
   5 C5             2.1106     2.0038    -1.4701 C.2     
   6 N6             1.0235     2.3055    -0.7337 N.am    
   7 S7             0.5761    -1.4854    -3.0236 S.3     
   8 C8            -1.1597    -0.5137    -1.5233 C.2     
   9 C9            -1.0389    -1.5985    -2.3012 C.2     
  10 C10           -2.0344    -2.6575    -2.5108 C.2     
  11 O11           -3.1097    -2.6024    -1.9441 O.2     
  12 N12           -1.7570    -3.6904    -3.3309 N.am    
  13 C13           -2.7501    -4.7469    -3.5400 C.3     
  14 C14           -2.1969    -5.7749    -4.4930 C.ar    
  15 C15           -1.4877    -6.8573    -4.0067 C.ar    
  16 C16           -0.9802    -7.8002    -4.8808 C.ar    
  17 C17           -1.1822    -7.6611    -6.2412 C.ar    
  18 C18           -1.8921    -6.5792    -6.7275 C.ar    
  19 C19           -2.4033    -5.6385    -5.8530 C.ar    
  20 O20            3.0865     2.7357    -1.4669 O.2     
  21 O21           -1.0140     1.8343    -0.0470 O.2     
  22 C22            1.0234     3.4293     0.0102 C.2     
  23 C23            2.2497     4.2461     0.1144 C.ar    
  24 C24            2.1761     5.6373     0.0177 C.ar    
  25 C25            3.3253     6.3939     0.1159 C.ar    
  26 C26            4.5489     5.7775     0.3096 C.ar    
  27 C27            4.6290     4.3995     0.4063 C.ar    
  28 C28            3.4871     3.6310     0.3157 C.ar    
  29 O29            0.0148     3.7705     0.5951 O.2     
  30 H30            2.9534     0.5625    -2.8404 H       
  31 H31           -2.0649    -0.3394    -0.9606 H       
  32 H32           -0.8997    -3.7343    -3.7827 H       
  33 H33           -2.9811    -5.2222    -2.5868 H       
  34 H34           -3.6582    -4.3140    -3.9597 H       
  35 H35           -1.3299    -6.9660    -2.9438 H       
  36 H36           -0.4256    -8.6455    -4.5009 H       
  37 H37           -0.7851    -8.3974    -6.9242 H       
  38 H38           -2.0496    -6.4703    -7.7904 H       
  39 H39           -2.9611    -4.7952    -6.2326 H       
  40 H40            1.2218     6.1196    -0.1338 H       
  41 H41            3.2699     7.4699     0.0409 H       
  42 H42            5.4455     6.3747     0.3854 H       
  43 H43            5.5873     3.9249     0.5571 H       
  44 H44            3.5505     2.5559     0.3958 H       
@<TRIPOS>BOND
   1    1    2 am
   2    1    6 am
   3    1   21 2
   4    2    3 1
   5    2    8 1
   6    3    4 2
   7    3    7 1
   8    4    5 1
   9    4   30 1
  10    5    6 am
  11    5   20 2
  12    6   22 am
  13    7    9 1
  14    8    9 2
  15    8   31 1
  16    9   10 1
  17   10   11 2
  18   10   12 am
  19   12   13 1
  20   12   32 1
  21   13   14 1
  22   13   33 1
  23   13   34 1
  24   14   15 ar
  25   14   19 ar
  26   15   16 ar
  27   15   35 1
  28   16   17 ar
  29   16   36 1
  30   17   18 ar
  31   17   37 1
  32   18   19 ar
  33   18   38 1
  34   19   39 1
  35   22   23 1
  36   22   29 2
  37   23   24 ar
  38   23   28 ar
  39   24   25 ar
  40   24   40 1
  41   25   26 ar
  42   25   41 1
  43   26   27 ar
  44   26   42 1
  45   27   28 ar
  46   27   43 1
  47   28   44 1

#	End of record

