#	Name: ASD01870671
#	Creating user name:	WinNT
#	Creation time:	15. 06. 2019 19:39

#	Modifying user name:	WinNT
#	Modification time:	15. 06. 2019 19:39

#	Program:	/corina/corina34_cracker 3.40 0067  02.08.2006

@<TRIPOS>MOLECULE
ASD01870671
  34   37    0    0    0
SMALL
NO_CHARGES


@<TRIPOS>ATOM
   1 C1            -0.0174     1.4474     0.0142 C.2     
   2 C2             0.0021    -0.0041    -0.0008 C.2     
   3 C3             1.2283    -0.5352    -0.0717 C.2     
   4 S4             2.4387     0.6593    -0.1250 S.3     
   5 C5             1.2694     1.9672    -0.0497 C.2     
   6 C6            -1.2300    -0.8268     0.0577 C.ar    
   7 C7            -1.4320    -1.8508    -0.8663 C.ar    
   8 C8            -2.5807    -2.6133    -0.8070 C.ar    
   9 C9            -3.5309    -2.3628     0.1667 C.ar    
  10 C10           -3.3360    -1.3476     1.0859 C.ar    
  11 C11           -2.1881    -0.5830     1.0405 C.ar    
  12 N12           -1.0679     2.3087     0.0840 N.2     
  13 C13            1.4388     3.3735    -0.0445 C.2     
  14 N14            0.3426     4.1567     0.0225 N.am    
  15 C15           -0.8946     3.5945     0.0862 C.2     
  16 C16            0.4786     5.5513     0.0298 C.ar    
  17 C17            1.0620     6.1872     1.1176 C.ar    
  18 C18            1.1950     7.5618     1.1230 C.ar    
  19 C19            0.7470     8.3059     0.0444 C.ar    
  20 C20            0.1645     7.6737    -1.0413 C.ar    
  21 C21            0.0352     6.2988    -1.0531 C.ar    
  22 O22            2.5532     3.8662    -0.0991 O.2     
  23 F23            0.8781     9.6506     0.0515 F       
  24 H24            1.4262    -1.5968    -0.0920 H       
  25 H25           -0.6912    -2.0469    -1.6273 H       
  26 H26           -2.7384    -3.4070    -1.5223 H       
  27 H27           -4.4285    -2.9618     0.2091 H       
  28 H28           -4.0814    -1.1563     1.8437 H       
  29 H29           -2.0347     0.2062     1.7616 H       
  30 H30           -1.7596     4.2387     0.1427 H       
  31 H31            1.4111     5.6072     1.9591 H       
  32 H32            1.6484     8.0567     1.9691 H       
  33 H33           -0.1849     8.2558    -1.8812 H       
  34 H34           -0.4145     5.8056    -1.9022 H       
@<TRIPOS>BOND
   1    1    2 1
   2    1    5 2
   3    1   12 1
   4    2    3 2
   5    2    6 1
   6    3    4 1
   7    3   24 1
   8    4    5 1
   9    5   13 1
  10    6    7 ar
  11    6   11 ar
  12    7    8 ar
  13    7   25 1
  14    8    9 ar
  15    8   26 1
  16    9   10 ar
  17    9   27 1
  18   10   11 ar
  19   10   28 1
  20   11   29 1
  21   12   15 2
  22   13   14 am
  23   13   22 2
  24   14   15 1
  25   14   16 1
  26   15   30 1
  27   16   17 ar
  28   16   21 ar
  29   17   18 ar
  30   17   31 1
  31   18   19 ar
  32   18   32 1
  33   19   20 ar
  34   19   23 1
  35   20   21 ar
  36   20   33 1
  37   21   34 1

#	End of record

