#	Name: ASD09116448
#	Creating user name:	WinNT
#	Creation time:	15. 06. 2019 21:21

#	Modifying user name:	WinNT
#	Modification time:	15. 06. 2019 21:21

#	Program:	/corina/corina34_cracker 3.40 0067  02.08.2006

@<TRIPOS>MOLECULE
ASD09116448
  79   86    0    0    0
SMALL
NO_CHARGES


@<TRIPOS>ATOM
   1 N1             0.0234     1.2590     0.0390 N.2     
   2 N2             0.0268    -0.1166     0.3207 N.pl3   
   3 C3             1.2756     1.6487     0.0188 C.2     
   4 N4             2.0637     0.5971     0.2714 N.2     
   5 C5             1.3249    -0.4760     0.4559 C.2     
   6 N6             1.7918    -1.7458     0.7379 N.pl3   
   7 C7            -1.0881    -0.9491     0.4385 C.ar    
   8 N8             1.7150     2.9495    -0.2272 N.pl3   
   9 C9             3.0752     3.2621    -0.1141 C.ar    
  10 C10            3.6254     4.2634    -0.9037 C.ar    
  11 C11            3.8726     2.5748     0.7916 C.ar    
  12 C12            5.2143     2.8828     0.9042 C.ar    
  13 C13            5.7668     3.8799     0.1125 C.ar    
  14 C14            4.9683     4.5720    -0.7913 C.ar    
  15 N15           -0.9696    -2.2491     0.2151 N.ar    
  16 N16           -1.9663    -3.0573     0.3016 N.ar    
  17 C17           -3.1762    -2.6336     0.6191 C.ar    
  18 C18           -3.3940    -1.2759     0.8932 C.ar    
  19 C19           -2.3266    -0.4104     0.7976 C.ar    
  20 N20            7.1280     4.1924     0.2274 N.3     
  21 C21            7.4535     4.6338     1.5896 C.3     
  22 C22            8.9091     5.1035     1.6409 C.3     
  23 C23            9.8272     3.9509     1.2248 C.3     
  24 C24            9.4358     3.4779    -0.1779 C.3     
  25 C25            7.9649     3.0554    -0.1765 C.3     
  26 N26           11.2217     4.4128     1.2158 N.3     
  27 F27            5.5054     5.5427    -1.5623 F       
  28 C28           -4.3397    -3.5449     0.7097 C.ar    
  29 C29           -5.6213    -2.9833     0.7796 C.ar    
  30 O30           -5.7724    -1.6356     0.7297 O.3     
  31 C31           -4.7604    -0.8148     1.3080 C.3     
  32 C32           -4.1801    -4.9247     0.7293 C.ar    
  33 C33           -5.2907    -5.7401     0.8296 C.ar    
  34 C34           -6.5562    -5.1856     0.9114 C.ar    
  35 C35           -6.7243    -3.8139     0.8869 C.ar    
  36 C36           -4.8806    -0.8439     2.8403 C.3     
  37 C37           -5.1612     0.6064     3.2864 C.3     
  38 C38           -5.7820     1.2756     2.0349 C.3     
  39 C39           -4.9710     0.6485     0.8733 C.3     
  40 C40           11.6514     4.8222     2.5655 C.3     
  41 C41           12.8983     3.9857     2.9218 C.3     
  42 C42           13.4407     3.5579     1.5327 C.3     
  43 C43           12.1291     3.3490     0.7354 C.3     
  44 H44            2.7453    -1.9058     0.8155 H       
  45 H45            1.1659    -2.4771     0.8581 H       
  46 H46            1.0783     3.6375    -0.4767 H       
  47 H47            3.0045     4.8005    -1.6054 H       
  48 H48            3.4432     1.7993     1.4086 H       
  49 H49            5.8337     2.3478     1.6089 H       
  50 H50           -2.4442     0.6466     0.9855 H       
  51 H51            6.7963     5.4564     1.8715 H       
  52 H52            7.3149     3.8044     2.2830 H       
  53 H53            9.0452     5.9420     0.9579 H       
  54 H54            9.1549     5.4164     2.6557 H       
  55 H55            9.7199     3.1269     1.9302 H       
  56 H56            9.5802     4.2908    -0.8896 H       
  57 H57           10.0579     2.6294    -0.4626 H       
  58 H58            7.8239     2.2333     0.5252 H       
  59 H59            7.6792     2.7315    -1.1773 H       
  60 H60           -3.1927    -5.3578     0.6662 H       
  61 H61           -5.1712    -6.8133     0.8439 H       
  62 H62           -7.4191    -5.8297     0.9951 H       
  63 H63           -7.7155    -3.3899     0.9514 H       
  64 H64           -5.7045    -1.4924     3.1381 H       
  65 H65           -3.9485    -1.1967     3.2815 H       
  66 H66           -5.8677     0.6202     4.1164 H       
  67 H67           -4.2335     1.1059     3.5655 H       
  68 H68           -6.8392     1.0249     1.9472 H       
  69 H69           -5.6414     2.3561     2.0649 H       
  70 H70           -4.0123     1.1548     0.7603 H       
  71 H71           -5.5388     0.6926    -0.0560 H       
  72 H72           11.9031     5.8828     2.5688 H       
  73 H73           10.8553     4.6256     3.2837 H       
  74 H74           13.6318     4.5936     3.4514 H       
  75 H75           12.6208     3.1128     3.5127 H       
  76 H76           14.0454     4.3488     1.0892 H       
  77 H77           14.0066     2.6290     1.6037 H       
  78 H78           11.7080     2.3663     0.9482 H       
  79 H79           12.3126     3.4607    -0.3332 H       
@<TRIPOS>BOND
   1    1    2 1
   2    1    3 2
   3    2    7 1
   4    2    5 1
   5    3    4 1
   6    3    8 1
   7    4    5 2
   8    5    6 1
   9    6   44 1
  10    6   45 1
  11    7   15 ar
  12    7   19 ar
  13    8    9 1
  14    8   46 1
  15    9   10 ar
  16    9   11 ar
  17   10   14 ar
  18   10   47 1
  19   11   12 ar
  20   11   48 1
  21   12   13 ar
  22   12   49 1
  23   13   14 ar
  24   13   20 1
  25   14   27 1
  26   15   16 ar
  27   16   17 ar
  28   17   18 ar
  29   17   28 1
  30   18   19 ar
  31   18   31 1
  32   19   50 1
  33   20   21 1
  34   20   25 1
  35   21   22 1
  36   21   51 1
  37   21   52 1
  38   22   23 1
  39   22   53 1
  40   22   54 1
  41   23   24 1
  42   23   26 1
  43   23   55 1
  44   24   25 1
  45   24   56 1
  46   24   57 1
  47   25   58 1
  48   25   59 1
  49   26   40 1
  50   26   43 1
  51   28   29 ar
  52   28   32 ar
  53   29   30 1
  54   29   35 ar
  55   30   31 1
  56   31   36 1
  57   31   39 1
  58   32   33 ar
  59   32   60 1
  60   33   34 ar
  61   33   61 1
  62   34   35 ar
  63   34   62 1
  64   35   63 1
  65   36   37 1
  66   36   64 1
  67   36   65 1
  68   37   38 1
  69   37   66 1
  70   37   67 1
  71   38   39 1
  72   38   68 1
  73   38   69 1
  74   39   70 1
  75   39   71 1
  76   40   41 1
  77   40   72 1
  78   40   73 1
  79   41   42 1
  80   41   74 1
  81   41   75 1
  82   42   43 1
  83   42   76 1
  84   42   77 1
  85   43   78 1
  86   43   79 1

#	End of record

