#	Name: ASD03240972
#	Creating user name:	WinNT
#	Creation time:	15. 06. 2019 20:35

#	Modifying user name:	WinNT
#	Modification time:	15. 06. 2019 20:35

#	Program:	/corina/corina34_cracker 3.40 0067  02.08.2006

@<TRIPOS>MOLECULE
ASD03240972
  64   69    0    0    0
SMALL
NO_CHARGES


@<TRIPOS>ATOM
   1 C1            -0.4569     0.7996     0.0456 C.3     
   2 C2             0.2231    -0.5797     0.0468 C.3     
   3 C3             1.4554     0.1156     0.6490 C.3     
   4 C4             0.9541     1.4078    -0.0172 C.3     
   5 O5            -1.2408     1.0503    -1.1226 O.3     
   6 C6             2.7632    -0.3833     0.0905 C.ar    
   7 C7             3.9004    -0.3651     0.8782 C.ar    
   8 C8             5.1005    -0.8210     0.3728 C.ar    
   9 C9             5.1658    -1.3009    -0.9353 C.ar    
  10 C10            4.0158    -1.3167    -1.7245 C.ar    
  11 C11            2.8204    -0.8630    -1.2059 C.ar    
  12 N12            9.9263    -0.9854    -1.2008 N.pl3   
  13 C13           11.1246    -1.4226    -1.6969 C.2     
  14 N14           11.2064    -2.4510    -2.5595 N.2     
  15 C15           10.1457    -3.0938    -2.9752 C.2     
  16 C16            8.8304    -2.6833    -2.4883 C.ar    
  17 C17            7.6597    -3.3311    -2.8969 C.ar    
  18 C18            6.4500    -2.8751    -2.3837 C.ar    
  19 C19            6.4509    -1.7912    -1.4841 C.ar    
  20 N20            7.5801    -1.2023    -1.1204 N.ar    
  21 C21            8.7514    -1.6039    -1.5829 C.ar    
  22 C22           12.1069    -0.6165    -1.1376 C.2     
  23 C23           11.4778     0.3015    -0.3061 C.2     
  24 N24           10.1838     0.0913    -0.3437 N.2     
  25 C25            5.1755    -3.5208    -2.7799 C.ar    
  26 C26            4.8862    -3.7297    -4.1274 C.ar    
  27 C27            3.6986    -4.3317    -4.4901 C.ar    
  28 C28            2.7959    -4.7275    -3.5195 C.ar    
  29 C29            3.0774    -4.5223    -2.1808 C.ar    
  30 C30            4.2645    -3.9266    -1.8059 C.ar    
  31 C31           12.1691     1.3687     0.5028 C.3     
  32 C32           -1.2035     1.1159     1.3430 C.3     
  33 C33           -1.7046     2.5610     1.3037 C.3     
  34 C34           -2.3946     0.1670     1.4904 C.3     
  35 N35            1.4432     0.1674     2.1170 N.3     
  36 H36           -0.2460    -1.2972     0.7201 H       
  37 H37            0.3937    -0.9833    -0.9513 H       
  38 H38            1.3245     1.5476    -1.0327 H       
  39 H39            1.0752     2.2949     0.6045 H       
  40 H40           -1.6711     1.9163    -1.1292 H       
  41 H41            3.8486     0.0070     1.8908 H       
  42 H42            5.9877    -0.8060     0.9886 H       
  43 H43            4.0601    -1.6867    -2.7382 H       
  44 H44            1.9284    -0.8785    -1.8146 H       
  45 H45           10.2407    -3.9161    -3.6688 H       
  46 H46            7.6941    -4.1595    -3.5890 H       
  47 H47           13.1694    -0.6901    -1.3166 H       
  48 H48            5.5901    -3.4208    -4.8861 H       
  49 H49            3.4732    -4.4937    -5.5339 H       
  50 H50            1.8677    -5.1981    -3.8080 H       
  51 H51            2.3687    -4.8327    -1.4273 H       
  52 H52            4.4852    -3.7710    -0.7602 H       
  53 H53           12.2483     2.2798    -0.0902 H       
  54 H54           11.5923     1.5714     1.4052 H       
  55 H55           13.1667     1.0266     0.7784 H       
  56 H56           -0.5299     0.9878     2.1903 H       
  57 H57           -2.3782     2.6891     0.4564 H       
  58 H58           -2.2365     2.7864     2.2281 H       
  59 H59           -0.8560     3.2371     1.1987 H       
  60 H60           -3.0682     0.2951     0.6431 H       
  61 H61           -2.0377    -0.8625     1.5184 H       
  62 H62           -2.9265     0.3924     2.4147 H       
  63 H63            2.3820     0.1694     2.4866 H       
  64 H64            0.9232     0.9670     2.4463 H       
@<TRIPOS>BOND
   1    1    2 1
   2    1    4 1
   3    1    5 1
   4    1   32 1
   5    2    3 1
   6    2   36 1
   7    2   37 1
   8    3    4 1
   9    3    6 1
  10    3   35 1
  11    4   38 1
  12    4   39 1
  13    5   40 1
  14    6    7 ar
  15    6   11 ar
  16    7    8 ar
  17    7   41 1
  18    8    9 ar
  19    8   42 1
  20    9   10 ar
  21    9   19 1
  22   10   11 ar
  23   10   43 1
  24   11   44 1
  25   12   13 1
  26   12   21 1
  27   12   24 1
  28   13   14 1
  29   13   22 2
  30   14   15 2
  31   15   16 1
  32   15   45 1
  33   16   17 ar
  34   16   21 ar
  35   17   18 ar
  36   17   46 1
  37   18   19 ar
  38   18   25 1
  39   19   20 ar
  40   20   21 ar
  41   22   23 1
  42   22   47 1
  43   23   24 2
  44   23   31 1
  45   25   26 ar
  46   25   30 ar
  47   26   27 ar
  48   26   48 1
  49   27   28 ar
  50   27   49 1
  51   28   29 ar
  52   28   50 1
  53   29   30 ar
  54   29   51 1
  55   30   52 1
  56   31   53 1
  57   31   54 1
  58   31   55 1
  59   32   33 1
  60   32   34 1
  61   32   56 1
  62   33   57 1
  63   33   58 1
  64   33   59 1
  65   34   60 1
  66   34   61 1
  67   34   62 1
  68   35   63 1
  69   35   64 1

#	End of record

