#	Name: ASD01152576
#	Creating user name:	WinNT
#	Creation time:	15. 06. 2019 19:06

#	Modifying user name:	WinNT
#	Modification time:	15. 06. 2019 19:06

#	Program:	/corina/corina34_cracker 3.40 0067  02.08.2006

@<TRIPOS>MOLECULE
ASD01152576
  49   51    0    0    0
SMALL
NO_CHARGES


@<TRIPOS>ATOM
   1 C1            -0.3506     1.3557    -0.0017 C.2     
   2 N2            -0.3389     0.0566    -0.1372 N.2     
   3 N3            -1.3671    -0.7402     0.3660 N.am    
   4 C4            -2.5202    -0.2268     0.8258 C.2     
   5 C5            -2.7992     1.2525     0.7007 C.3     
   6 C6            -1.4660     1.9776     0.7283 C.2     
   7 C7            -3.5212     1.5338    -0.6186 C.3     
   8 O8            -1.3300     3.0282     1.3207 O.2     
   9 C9            -1.1910    -2.1282     0.3925 C.ar    
  10 O10           -3.3409    -0.9541     1.3433 O.2     
  11 C11           -3.9049     2.9898    -0.6808 C.ar    
  12 C12           -2.1830    -2.9638    -0.1004 C.ar    
  13 C13           -0.0198    -2.6711     0.9074 C.ar    
  14 C14            0.1549    -4.0410     0.9335 C.ar    
  15 C15           -0.8337    -4.8760     0.4485 C.ar    
  16 C16           -2.0044    -4.3396    -0.0722 C.ar    
  17 C17           -3.0324     3.9114    -1.2289 C.ar    
  18 C18           -5.1315     3.4025    -0.1948 C.ar    
  19 C19           -5.4841     4.7377    -0.2520 C.ar    
  20 C20           -3.3837     5.2470    -1.2862 C.ar    
  21 C21           -4.6090     5.6613    -0.7953 C.ar    
  22 Cl22          -5.0512     7.3385    -0.8675 Cl      
  23 N23           -3.0022    -5.1857    -0.5687 N.am    
  24 C24           -3.2336    -6.3744     0.0229 C.2     
  25 O25           -2.5222    -6.7484     0.9312 O.2     
  26 C26           -4.3761    -7.2389    -0.4444 C.3     
  27 O27            0.6494     2.1162    -0.5194 O.3     
  28 C28            1.6964     1.4296    -1.2082 C.3     
  29 C29            2.7231     2.4437    -1.7165 C.3     
  30 H30           -3.4145     1.5841     1.5370 H       
  31 H31           -2.8604     1.2963    -1.4522 H       
  32 H32           -4.4189     0.9186    -0.6798 H       
  33 H33           -3.0924    -2.5443    -0.5048 H       
  34 H34            0.7547    -2.0211     1.2871 H       
  35 H35            1.0662    -4.4604     1.3334 H       
  36 H36           -0.6940    -5.9467     0.4704 H       
  37 H37           -2.0759     3.5878    -1.6121 H       
  38 H38           -5.8145     2.6814     0.2293 H       
  39 H39           -6.4427     5.0598     0.1271 H       
  40 H40           -2.7018     5.9669    -1.7141 H       
  41 H41           -3.5274    -4.9167    -1.3386 H       
  42 H42           -4.2349    -7.4908    -1.4954 H       
  43 H43           -4.4055    -8.1535     0.1477 H       
  44 H44           -5.3144    -6.6975    -0.3235 H       
  45 H45            2.1823     0.7310    -0.5270 H       
  46 H46            1.2778     0.8820    -2.0525 H       
  47 H47            2.2372     3.1423    -2.3977 H       
  48 H48            3.1417     2.9914    -0.8722 H       
  49 H49            3.5217     1.9201    -2.2419 H       
@<TRIPOS>BOND
   1    1    2 2
   2    1   27 1
   3    1    6 1
   4    2    3 1
   5    3    4 am
   6    3    9 1
   7    4    5 1
   8    4   10 2
   9    5    6 1
  10    5    7 1
  11    5   30 1
  12    6    8 2
  13    7   11 1
  14    7   31 1
  15    7   32 1
  16    9   12 ar
  17    9   13 ar
  18   11   17 ar
  19   11   18 ar
  20   12   16 ar
  21   12   33 1
  22   13   14 ar
  23   13   34 1
  24   14   15 ar
  25   14   35 1
  26   15   16 ar
  27   15   36 1
  28   16   23 1
  29   17   20 ar
  30   17   37 1
  31   18   19 ar
  32   18   38 1
  33   19   21 ar
  34   19   39 1
  35   20   21 ar
  36   20   40 1
  37   21   22 1
  38   23   24 am
  39   23   41 1
  40   24   25 2
  41   24   26 1
  42   26   42 1
  43   26   43 1
  44   26   44 1
  45   27   28 1
  46   28   29 1
  47   28   45 1
  48   28   46 1
  49   29   47 1
  50   29   48 1
  51   29   49 1

#	End of record

