#	Name: ASD00311074
#	Creating user name:	WinNT
#	Creation time:	15. 06. 2019 18:34

#	Modifying user name:	WinNT
#	Modification time:	15. 06. 2019 18:34

#	Program:	/corina/corina34_cracker 3.40 0067  02.08.2006

@<TRIPOS>MOLECULE
ASD00311074
  39   42    0    0    0
SMALL
NO_CHARGES


@<TRIPOS>ATOM
   1 C1            -0.0180     1.4733     0.0101 C.2     
   2 C2             0.0021    -0.0041     0.0020 C.ar    
   3 C3             1.2178    -0.6865    -0.0133 C.ar    
   4 C4             1.2276    -2.0784    -0.0209 C.ar    
   5 C5             0.0221    -2.7823    -0.0132 C.ar    
   6 C6            -1.1790    -2.1012     0.0019 C.ar    
   7 C7            -1.1968    -0.7207     0.0154 C.ar    
   8 O8             1.0256     2.0949     0.0035 O.2     
   9 O9            -1.1936     2.1309     0.0193 O.3     
  10 C10            4.9352    -4.1708    -0.1069 C.2     
  11 C11            4.1263    -4.3021     1.0057 C.2     
  12 C12            2.8839    -3.6045     1.0412 C.2     
  13 C13            2.5148    -2.8114    -0.0376 C.2     
  14 C14            3.3764    -2.7110    -1.1488 C.2     
  15 N15            4.5417    -3.3763    -1.1642 N.am    
  16 C16            4.7123    -5.1827     2.0146 C.2     
  17 C17            5.8984    -5.6878     1.6808 C.2     
  18 S18            6.3970    -5.1308     0.0957 S.3     
  19 O19            3.0607    -2.0167    -2.1013 O.2     
  20 C20            4.0427    -5.4877     3.3010 C.ar    
  21 C21            3.6230    -6.7879     3.5800 C.ar    
  22 C22            2.9999    -7.0669     4.7790 C.ar    
  23 C23            2.7907    -6.0577     5.7049 C.ar    
  24 C24            3.2055    -4.7643     5.4321 C.ar    
  25 C25            3.8354    -4.4767     4.2387 C.ar    
  26 F26            2.1798    -6.3357     6.8773 F       
  27 O27            2.0704    -3.7141     2.1173 O.3     
  28 Cl28           6.8264    -6.7603     2.6820 Cl      
  29 H29            2.1479    -0.1376    -0.0195 H       
  30 H30            0.0289    -3.8622    -0.0194 H       
  31 H31           -2.1087    -2.6509     0.0075 H       
  32 H32           -2.1395    -0.1939     0.0317 H       
  33 H33           -1.1561     3.0971     0.0244 H       
  34 H34            5.1224    -3.2955    -1.9370 H       
  35 H35            3.7850    -7.5751     2.8586 H       
  36 H36            2.6745    -8.0736     4.9960 H       
  37 H37            3.0399    -3.9808     6.1568 H       
  38 H38            4.1630    -3.4691     4.0291 H       
  39 H39            1.2523    -3.2036     2.0456 H       
@<TRIPOS>BOND
   1    1    2 1
   2    1    8 2
   3    1    9 1
   4    2    3 ar
   5    2    7 ar
   6    3    4 ar
   7    3   29 1
   8    4    5 ar
   9    4   13 1
  10    5    6 ar
  11    5   30 1
  12    6    7 ar
  13    6   31 1
  14    7   32 1
  15    9   33 1
  16   10   11 2
  17   10   15 1
  18   10   18 1
  19   11   12 1
  20   11   16 1
  21   12   13 2
  22   12   27 1
  23   13   14 1
  24   14   15 am
  25   14   19 2
  26   15   34 1
  27   16   17 2
  28   16   20 1
  29   17   18 1
  30   17   28 1
  31   20   21 ar
  32   20   25 ar
  33   21   22 ar
  34   21   35 1
  35   22   23 ar
  36   22   36 1
  37   23   24 ar
  38   23   26 1
  39   24   25 ar
  40   24   37 1
  41   25   38 1
  42   27   39 1

#	End of record

