#	Name: ASD07930066
#	Creating user name:	WinNT
#	Creation time:	15. 06. 2019 21:11

#	Modifying user name:	WinNT
#	Modification time:	15. 06. 2019 21:11

#	Program:	/corina/corina34_cracker 3.40 0067  02.08.2006

@<TRIPOS>MOLECULE
ASD07930066
  45   48    0    0    0
SMALL
NO_CHARGES


@<TRIPOS>ATOM
   1 C1             1.1608    -0.4892     0.4706 C.ar    
   2 C2            -0.0059     0.0004    -0.1032 C.ar    
   3 N3            -2.3895     1.2709     0.2465 N.ar    
   4 C4            -2.4015    -0.0525     0.1281 C.ar    
   5 N5            -1.1981    -0.7210     0.0092 N.pl3   
   6 C6            -3.5110     1.9566     0.3629 C.ar    
   7 N7            -3.5242    -0.7541     0.1203 N.ar    
   8 C8            -4.7284     1.2586     0.3597 C.ar    
   9 C9            -4.7005    -0.1468     0.2324 C.ar    
  10 C10           -5.9623     1.9374     0.4815 C.2     
  11 C11           -7.1230     1.2112     0.4733 C.2     
  12 C12           -7.0586    -0.2457     0.3392 C.2     
  13 N13           -5.8687    -0.8663     0.2248 N.am    
  14 C14           -8.4322     1.8931     0.5996 C.ar    
  15 C15           -9.1108     2.3238    -0.5411 C.ar    
  16 C16          -10.3310     2.9589    -0.4164 C.ar    
  17 C17          -10.8804     3.1682     0.8357 C.ar    
  18 C18          -10.2129     2.7436     1.9704 C.ar    
  19 C19           -8.9948     2.1022     1.8593 C.ar    
  20 C20            0.0148     1.2083    -0.7884 C.ar    
  21 C21            1.1943     1.9187    -0.8971 C.ar    
  22 C22            2.3536     1.4286    -0.3249 C.ar    
  23 C23           -5.8212    -2.3244     0.0914 C.3     
  24 O24           -8.0863    -0.8996     0.3311 O.2     
  25 Cl25          -8.1587     1.5701     3.2846 Cl      
  26 Cl26          -8.4227     2.0627    -2.1133 Cl      
  27 C27            2.3366     0.2261     0.3582 C.ar    
  28 C28            1.2178     3.2292    -1.6408 C.3     
  29 O29            0.9370     4.2969    -0.7335 O.3     
  30 H30            1.1472    -1.4260     1.0079 H       
  31 H31           -1.1805    -1.6908     0.0036 H       
  32 H32           -3.4922     3.0321     0.4591 H       
  33 H33           -5.9891     3.0126     0.5798 H       
  34 H34          -10.8571     3.2931    -1.2984 H       
  35 H35          -11.8346     3.6656     0.9277 H       
  36 H36          -10.6473     2.9101     2.9451 H       
  37 H37           -0.8904     1.5915    -1.2359 H       
  38 H38            3.2746     1.9861    -0.4114 H       
  39 H39           -6.8354    -2.7238     0.1055 H       
  40 H40           -5.3401    -2.5877    -0.8506 H       
  41 H41           -5.2529    -2.7468     0.9201 H       
  42 H42            3.2438    -0.1538     0.8043 H       
  43 H43            2.2026     3.3782    -2.0835 H       
  44 H44            0.4641     3.2138    -2.4281 H       
  45 H45            0.9356     5.1722    -1.1445 H       
@<TRIPOS>BOND
   1    1    2 ar
   2    1   27 ar
   3    1   30 1
   4    2   20 ar
   5    2    5 1
   6    3    4 ar
   7    3    6 ar
   8    4    5 1
   9    4    7 ar
  10    5   31 1
  11    6    8 ar
  12    6   32 1
  13    7    9 ar
  14    8    9 ar
  15    8   10 1
  16    9   13 1
  17   10   11 2
  18   10   33 1
  19   11   12 1
  20   11   14 1
  21   12   13 am
  22   12   24 2
  23   13   23 1
  24   14   15 ar
  25   14   19 ar
  26   15   16 ar
  27   15   26 1
  28   16   17 ar
  29   16   34 1
  30   17   18 ar
  31   17   35 1
  32   18   19 ar
  33   18   36 1
  34   19   25 1
  35   20   21 ar
  36   20   37 1
  37   21   22 ar
  38   21   28 1
  39   22   27 ar
  40   22   38 1
  41   23   39 1
  42   23   40 1
  43   23   41 1
  44   27   42 1
  45   28   29 1
  46   28   43 1
  47   28   44 1
  48   29   45 1

#	End of record

