#	Name: ASD09610068
#	Creating user name:	WinNT
#	Creation time:	15. 06. 2019 21:22

#	Modifying user name:	WinNT
#	Modification time:	15. 06. 2019 21:22

#	Program:	/corina/corina34_cracker 3.40 0067  02.08.2006

@<TRIPOS>MOLECULE
ASD09610068
  40   42    0    0    0
SMALL
NO_CHARGES


@<TRIPOS>ATOM
   1 C1            -1.1567    -0.6958     0.0088 C.2     
   2 N2             0.0008    -0.0054     0.0073 N.am    
   3 O3            -1.1394    -1.9187    -0.0066 O.co2   
   4 O4            -2.2244    -0.0996     0.0308 O.co2   
   5 C5             1.2166    -0.6824     0.0977 C.ar    
   6 C6             2.4085     0.0246    -0.0135 C.ar    
   7 C7             3.6077    -0.6593     0.0784 C.ar    
   8 C8             3.5732    -2.0327     0.2792 C.ar    
   9 C9             2.3529    -2.6706     0.3804 C.ar    
  10 N10            1.2252    -1.9912     0.2938 N.ar    
  11 C11            2.3085    -4.1610     0.5984 C.3     
  12 O12            3.6351    -4.6897     0.5469 O.3     
  13 N13            3.6958    -6.1020     0.6292 N.2     
  14 C14            4.8505    -6.7017     0.6915 C.2     
  15 C15            4.9136    -8.1690     0.8898 C.ar    
  16 C16            3.7387    -8.9103     1.0100 C.ar    
  17 C17            3.8038   -10.2763     1.1940 C.ar    
  18 C18            5.0316   -10.9105     1.2593 C.ar    
  19 C19            6.2007   -10.1803     1.1412 C.ar    
  20 C20            6.1482    -8.8145     0.9512 C.ar    
  21 N21            6.7153    -5.5551    -0.5858 N.pl3   
  22 N22            7.7670    -4.8852    -0.2550 N.2     
  23 N23            7.8342    -4.8146     1.0281 N.2     
  24 N24            6.8322    -5.4343     1.5494 N.2     
  25 C25            6.0984    -5.9184     0.5645 C.2     
  26 C26            6.2691    -5.8599    -1.9475 C.3     
  27 H27           -0.0119     0.9624    -0.0566 H       
  28 H28            2.3984     1.0932    -0.1698 H       
  29 H29            4.5492    -0.1368    -0.0045 H       
  30 H30            4.4914    -2.5963     0.3550 H       
  31 H31            1.8706    -4.3727     1.5739 H       
  32 H32            1.7023    -4.6242    -0.1802 H       
  33 H33            2.7796    -8.4162     0.9595 H       
  34 H34            2.8945   -10.8515     1.2875 H       
  35 H35            5.0776   -11.9798     1.4034 H       
  36 H36            7.1563   -10.6808     1.1934 H       
  37 H37            7.0614    -8.2461     0.8547 H       
  38 H38            6.6338    -6.8453    -2.2374 H       
  39 H39            5.1797    -5.8506    -1.9835 H       
  40 H40            6.6617    -5.1105    -2.6348 H       
@<TRIPOS>BOND
   1    1    2 am
   2    1    3 ar
   3    1    4 ar
   4    2    5 1
   5    2   27 1
   6    5    6 ar
   7    5   10 ar
   8    6    7 ar
   9    6   28 1
  10    7    8 ar
  11    7   29 1
  12    8    9 ar
  13    8   30 1
  14    9   10 ar
  15    9   11 1
  16   11   12 1
  17   11   31 1
  18   11   32 1
  19   12   13 1
  20   13   14 2
  21   14   15 1
  22   14   25 1
  23   15   16 ar
  24   15   20 ar
  25   16   17 ar
  26   16   33 1
  27   17   18 ar
  28   17   34 1
  29   18   19 ar
  30   18   35 1
  31   19   20 ar
  32   19   36 1
  33   20   37 1
  34   21   22 1
  35   21   25 1
  36   21   26 1
  37   22   23 2
  38   23   24 1
  39   24   25 2
  40   26   38 1
  41   26   39 1
  42   26   40 1

#	End of record

