#	Name: ASD02030343
#	Creating user name:	WinNT
#	Creation time:	15. 06. 2019 20:15

#	Modifying user name:	WinNT
#	Modification time:	15. 06. 2019 20:15

#	Program:	/corina/corina34_cracker 3.40 0067  02.08.2006

@<TRIPOS>MOLECULE
ASD02030343
  37   38    0    0    0
SMALL
NO_CHARGES


@<TRIPOS>ATOM
   1 N1            -0.2119     1.4634    -0.3441 N.3     
   2 C2            -0.1276     0.0232    -0.0674 C.3     
   3 C3             0.7477    -0.6476    -1.1314 C.3     
   4 N4             2.0401     0.0525    -1.1825 N.am    
   5 C5             2.0334     1.5168    -1.3205 C.3     
   6 C6             1.1075     2.1024    -0.2490 C.3     
   7 C7             3.1999    -0.6296    -1.1045 C.2     
   8 O8             4.2557    -0.0558    -1.2853 O.2     
   9 C9             3.1876    -2.0791    -0.7982 C.ar    
  10 N10            2.0567    -2.6611    -0.4154 N.ar    
  11 C11            2.0038    -3.9489    -0.1337 C.ar    
  12 C12            3.1413    -4.7463    -0.2292 C.ar    
  13 C13            4.3377    -4.1748    -0.6249 C.ar    
  14 C14            4.3599    -2.8193    -0.9197 C.ar    
  15 O15            0.8275    -4.5025     0.2541 O.3     
  16 C16           -0.3038    -3.6331     0.3336 C.3     
  17 C17            3.4512     2.0579    -1.1261 C.3     
  18 C18            3.4292     3.5857    -1.2041 C.3     
  19 H19           -0.6324     1.6345    -1.2452 H       
  20 H20            0.3130    -0.1328     0.9173 H       
  21 H21           -1.1271    -0.4110    -0.0920 H       
  22 H22            0.9077    -1.6931    -0.8679 H       
  23 H23            0.2575    -0.5829    -2.1028 H       
  24 H24            1.6668     1.7896    -2.3100 H       
  25 H25            1.0037     3.1761    -0.4053 H       
  26 H26            1.5309     1.9174     0.7382 H       
  27 H27            3.0903    -5.7997     0.0035 H       
  28 H28            5.2339    -4.7719    -0.7067 H       
  29 H29            5.2774    -2.3426    -1.2317 H       
  30 H30           -0.1023    -2.8395     1.0532 H       
  31 H31           -0.4951    -3.1952    -0.6461 H       
  32 H32           -1.1769    -4.2013     0.6544 H       
  33 H33            3.8273     1.7493    -0.1506 H       
  34 H34            4.1009     1.6635    -1.9073 H       
  35 H35            2.8524     3.9839    -0.3693 H       
  36 H36            4.4492     3.9668    -1.1556 H       
  37 H37            2.9701     3.8949    -2.1432 H       
@<TRIPOS>BOND
   1    1    2 1
   2    1    6 1
   3    1   19 1
   4    2    3 1
   5    2   20 1
   6    2   21 1
   7    3    4 1
   8    3   22 1
   9    3   23 1
  10    4    5 1
  11    4    7 am
  12    5    6 1
  13    5   17 1
  14    5   24 1
  15    6   25 1
  16    6   26 1
  17    7    8 2
  18    7    9 1
  19    9   10 ar
  20    9   14 ar
  21   10   11 ar
  22   11   12 ar
  23   11   15 1
  24   12   13 ar
  25   12   27 1
  26   13   14 ar
  27   13   28 1
  28   14   29 1
  29   15   16 1
  30   16   30 1
  31   16   31 1
  32   16   32 1
  33   17   18 1
  34   17   33 1
  35   17   34 1
  36   18   35 1
  37   18   36 1
  38   18   37 1

#	End of record

