#	Name: ASD01811977
#	Creating user name:	WinNT
#	Creation time:	15. 06. 2019 19:27

#	Modifying user name:	WinNT
#	Modification time:	15. 06. 2019 19:27

#	Program:	/corina/corina34_cracker 3.40 0067  02.08.2006

@<TRIPOS>MOLECULE
ASD01811977
  40   42    0    0    0
SMALL
NO_CHARGES


@<TRIPOS>ATOM
   1 C1            -0.1831     0.9849     0.7203 C.ar    
   2 C2            -0.0097    -0.3892     0.6849 C.ar    
   3 C3             1.2360    -0.9200     0.4332 C.ar    
   4 C4             2.3366    -0.0798     0.2106 C.ar    
   5 C5             2.1587     1.3016     0.2450 C.ar    
   6 C6             0.8894     1.8223     0.5030 C.ar    
   7 C7             3.6388    -0.7156    -0.0490 C.2     
   8 N8             4.7629    -0.3077     0.4215 N.2     
   9 C9             4.8577     0.8701     1.2829 C.3     
  10 C10            4.4272     2.0812     0.5013 C.2     
  11 N11            3.1872     2.2074     0.0325 N.am    
  12 S12            5.4863     3.2470     0.2257 S.2     
  13 C13            3.6544    -1.9161    -0.9175 C.ar    
  14 C14            2.8227    -1.9825    -2.0348 C.ar    
  15 C15            2.8416    -3.1031    -2.8399 C.ar    
  16 C16            3.6831    -4.1594    -2.5401 C.ar    
  17 C17            4.5105    -4.0993    -1.4330 C.ar    
  18 C18            4.5050    -2.9814    -0.6240 C.ar    
  19 Cl19          -1.3627    -1.4421     0.9585 Cl      
  20 C20            3.9436     0.6921     2.4968 C.3     
  21 C21            4.3151    -0.5983     3.2302 C.3     
  22 O22            5.9433    -1.0193     0.0968 O.3     
  23 C23            4.1133     1.8830     3.4422 C.3     
  24 H24           -1.1610     1.4003     0.9141 H       
  25 H25            1.3664    -1.9918     0.4072 H       
  26 H26            0.7464     2.8924     0.5317 H       
  27 H27            5.8880     0.9974     1.6152 H       
  28 H28            2.9879     2.9942    -0.4987 H       
  29 H29            2.1649    -1.1588    -2.2695 H       
  30 H30            2.1980    -3.1557    -3.7055 H       
  31 H31            3.6940    -5.0347    -3.1727 H       
  32 H32            5.1653    -4.9270    -1.2039 H       
  33 H33            5.1516    -2.9354     0.2398 H       
  34 H34            2.9066     0.6360     2.1656 H       
  35 H35            3.6639    -0.7251     4.0950 H       
  36 H36            4.1942    -1.4467     2.5567 H       
  37 H37            5.3521    -0.5423     3.5614 H       
  38 H38            3.9243     2.8085     2.8983 H       
  39 H39            3.4065     1.7956     4.2673 H       
  40 H40            5.1302     1.8934     3.8345 H       
@<TRIPOS>BOND
   1    1    2 ar
   2    1    6 ar
   3    1   24 1
   4    2    3 ar
   5    2   19 1
   6    3    4 ar
   7    3   25 1
   8    4    5 ar
   9    4    7 1
  10    5    6 ar
  11    5   11 1
  12    6   26 1
  13    7    8 2
  14    7   13 1
  15    8    9 1
  16    8   22 1
  17    9   10 1
  18    9   20 1
  19    9   27 1
  20   10   11 am
  21   10   12 2
  22   11   28 1
  23   13   14 ar
  24   13   18 ar
  25   14   15 ar
  26   14   29 1
  27   15   16 ar
  28   15   30 1
  29   16   17 ar
  30   16   31 1
  31   17   18 ar
  32   17   32 1
  33   18   33 1
  34   20   21 1
  35   20   23 1
  36   20   34 1
  37   21   35 1
  38   21   36 1
  39   21   37 1
  40   23   38 1
  41   23   39 1
  42   23   40 1

#	End of record

