#	Name: ASD05060035
#	Creating user name:	WinNT
#	Creation time:	15. 06. 2019 20:56

#	Modifying user name:	WinNT
#	Modification time:	15. 06. 2019 20:56

#	Program:	/corina/corina34_cracker 3.40 0067  02.08.2006

@<TRIPOS>MOLECULE
ASD05060035
  46   48    0    0    0
SMALL
NO_CHARGES


@<TRIPOS>ATOM
   1 C1            -0.0167     1.3781     0.0096 C.ar    
   2 C2             0.0021    -0.0041     0.0020 C.ar    
   3 C3            -1.1855    -0.7115     0.0095 C.ar    
   4 C4            -2.3919    -0.0367     0.0251 C.ar    
   5 C5            -2.4106     1.3455     0.0336 C.ar    
   6 C6            -1.2230     2.0529     0.0305 C.ar    
   7 C7            -3.7258     2.0812     0.0501 C.3     
   8 C8             1.2780     2.1493     0.0014 C.3     
   9 C9            -1.1651    -2.2183     0.0002 C.3     
  10 N10           -1.1448    -2.7149     1.3783 N.pl3   
  11 C11           -0.0251    -3.0524     2.0614 C.2     
  12 C12           -2.2635    -2.8990     2.1653 C.ar    
  13 C13           -1.8296    -3.3827     3.4085 C.ar    
  14 C14           -0.3610    -3.4747     3.3168 C.2     
  15 C15           -3.6237    -2.7006     1.9463 C.ar    
  16 C16           -4.5311    -2.9786     2.9455 C.ar    
  17 C17           -4.1050    -3.4564     4.1755 C.ar    
  18 C18           -2.7582    -3.6622     4.4138 C.ar    
  19 O19           -2.3409    -4.1306     5.6191 O.3     
  20 C20            0.5590    -3.9308     4.3671 C.2     
  21 C21            2.0046    -3.9627     4.1134 C.2     
  22 O22            0.1226    -4.2825     5.4485 O.2     
  23 C23            2.8517    -4.3825     5.0804 C.2     
  24 C24            4.3087    -4.4146     4.8247 C.2     
  25 O25            2.3665    -4.7734     6.2824 O.3     
  26 O26            4.7438    -4.0640     3.7467 O.2     
  27 O27            5.1526    -4.8329     5.7881 O.3     
  28 H28            0.9446    -0.5313    -0.0101 H       
  29 H29           -3.3198    -0.5893     0.0302 H       
  30 H30           -1.2376     3.1328     0.0372 H       
  31 H31           -4.0334     2.2523     1.0816 H       
  32 H32           -3.6131     3.0384    -0.4590 H       
  33 H33           -4.4820     1.4849    -0.4605 H       
  34 H34            1.5804     2.3408    -1.0282 H       
  35 H35            1.1397     3.0971     0.5217 H       
  36 H36            2.0505     1.5679     0.5048 H       
  37 H37           -2.0551    -2.5906    -0.5071 H       
  38 H38           -0.2754    -2.5664    -0.5245 H       
  39 H39            0.9809    -2.9966     1.6727 H       
  40 H40           -3.9681    -2.3283     0.9928 H       
  41 H41           -5.5851    -2.8224     2.7688 H       
  42 H42           -4.8273    -3.6696     4.9495 H       
  43 H43           -2.2943    -5.0950     5.6716 H       
  44 H44            2.3916    -3.6508     3.1546 H       
  45 H45            3.0473    -5.0564     6.9082 H       
  46 H46            6.0957    -4.8364     5.5744 H       
@<TRIPOS>BOND
   1    1    2 ar
   2    1    8 1
   3    1    6 ar
   4    2    3 ar
   5    2   28 1
   6    3    4 ar
   7    3    9 1
   8    4    5 ar
   9    4   29 1
  10    5    6 ar
  11    5    7 1
  12    6   30 1
  13    7   31 1
  14    7   32 1
  15    7   33 1
  16    8   34 1
  17    8   35 1
  18    8   36 1
  19    9   10 1
  20    9   37 1
  21    9   38 1
  22   10   11 1
  23   10   12 1
  24   11   14 2
  25   11   39 1
  26   12   13 ar
  27   12   15 ar
  28   13   14 1
  29   13   18 ar
  30   14   20 1
  31   15   16 ar
  32   15   40 1
  33   16   17 ar
  34   16   41 1
  35   17   18 ar
  36   17   42 1
  37   18   19 1
  38   19   43 1
  39   20   21 1
  40   20   22 2
  41   21   23 2
  42   21   44 1
  43   23   24 1
  44   23   25 1
  45   24   26 2
  46   24   27 1
  47   25   45 1
  48   27   46 1

#	End of record

