#	Name: ASD04590436
#	Creating user name:	WinNT
#	Creation time:	15. 06. 2019 20:50

#	Modifying user name:	WinNT
#	Modification time:	15. 06. 2019 20:50

#	Program:	/corina/corina34_cracker 3.40 0067  02.08.2006

@<TRIPOS>MOLECULE
ASD04590436
  58   62    0    0    0
SMALL
NO_CHARGES


@<TRIPOS>ATOM
   1 C1            -0.0167     1.3832     0.0096 C.ar    
   2 C2             0.0021    -0.0041     0.0020 C.ar    
   3 C3             2.4020     0.0223    -0.0203 C.ar    
   4 C4             2.3769     1.4283    -0.0129 C.ar    
   5 C5             1.1624     2.0986     0.0022 C.ar    
   6 N6             3.7040    -0.3552    -0.0355 N.2     
   7 C7             4.4709     0.7083    -0.0381 C.2     
   8 N8             3.6969     1.8375    -0.0245 N.pl3   
   9 C9             5.9482     0.6906    -0.0538 C.2     
  10 C10            6.7657    -0.4631    -0.0690 C.2     
  11 C11            8.0578    -0.0539    -0.0803 C.2     
  12 N12            8.0646     1.3050    -0.0727 N.pl3   
  13 N13            6.7360     1.7480    -0.0619 N.2     
  14 N14            6.3188    -1.7944    -0.0714 N.am    
  15 C15            7.2108    -2.8046    -0.0866 C.2     
  16 O16            8.4027    -2.5633    -0.0982 O.2     
  17 C17            6.7413    -4.2032    -0.0891 C.ar    
  18 C18            1.1969    -0.6870    -0.0126 C.ar    
  19 C19            6.5306    -4.8767     1.1189 C.ar    
  20 C20           -1.2962    -0.7693     0.0103 C.3     
  21 N21           -1.7312    -1.0105    -1.3719 N.3     
  22 C22           -2.8597    -1.9518    -1.4124 C.3     
  23 C23           -0.6167    -1.4976    -2.1976 C.3     
  24 C24           -1.0980    -1.6784    -3.6397 C.3     
  25 O25           -2.2146    -2.5718    -3.6558 O.3     
  26 C26           -3.3186    -2.1280    -2.8624 C.3     
  27 C27            6.0902    -6.1868     1.1073 C.ar    
  28 C28            5.8583    -6.8320    -0.0939 C.ar    
  29 C29            6.0645    -6.1739    -1.2927 C.ar    
  30 C30            6.4987    -4.8617    -1.2995 C.ar    
  31 F31            6.7573    -4.2486     2.2933 F       
  32 F32            6.6991    -4.2204    -2.4716 F       
  33 C33           -3.8309    -0.7912    -3.4021 C.3     
  34 C34            0.0348    -2.2611    -4.4872 C.3     
  35 H35           -0.9614     1.9066     0.0169 H       
  36 H36            1.1403     3.1784     0.0079 H       
  37 H37            4.0155     2.7537    -0.0231 H       
  38 H38            8.9276    -0.6941    -0.0928 H       
  39 H39            8.8529     1.8702    -0.0776 H       
  40 H40            5.3681    -1.9869    -0.0621 H       
  41 H41            1.2037    -1.7669    -0.0177 H       
  42 H42           -1.1524    -1.7232     0.5176 H       
  43 H43           -2.0561    -0.1898     0.5345 H       
  44 H44           -2.5450    -2.9149    -1.0107 H       
  45 H45           -3.6828    -1.5591    -0.8154 H       
  46 H46            0.1976    -0.7734    -2.1738 H       
  47 H47           -0.2660    -2.4535    -1.8084 H       
  48 H48           -1.3984    -0.7129    -4.0469 H       
  49 H49           -4.1175    -2.8683    -2.9039 H       
  50 H50            5.9270    -6.7083     2.0389 H       
  51 H51            5.5146    -7.8559    -0.0957 H       
  52 H52            5.8817    -6.6854    -2.2262 H       
  53 H53           -4.1538    -0.9164    -4.4357 H       
  54 H54           -4.6723    -0.4535    -2.7970 H       
  55 H55           -3.0317    -0.0513    -3.3583 H       
  56 H56            0.3330    -3.2273    -4.0802 H       
  57 H57           -0.3085    -2.3895    -5.5137 H       
  58 H58            0.8869    -1.5815    -4.4713 H       
@<TRIPOS>BOND
   1    1    2 ar
   2    1    5 ar
   3    1   35 1
   4    2   18 ar
   5    2   20 1
   6    3    4 ar
   7    3    6 1
   8    3   18 ar
   9    4    5 ar
  10    4    8 1
  11    5   36 1
  12    6    7 2
  13    7    8 1
  14    7    9 1
  15    8   37 1
  16    9   10 1
  17    9   13 2
  18   10   11 2
  19   10   14 1
  20   11   12 1
  21   11   38 1
  22   12   13 1
  23   12   39 1
  24   14   15 am
  25   14   40 1
  26   15   16 2
  27   15   17 1
  28   17   19 ar
  29   17   30 ar
  30   18   41 1
  31   19   27 ar
  32   19   31 1
  33   20   21 1
  34   20   42 1
  35   20   43 1
  36   21   22 1
  37   21   23 1
  38   22   26 1
  39   22   44 1
  40   22   45 1
  41   23   24 1
  42   23   46 1
  43   23   47 1
  44   24   25 1
  45   24   34 1
  46   24   48 1
  47   25   26 1
  48   26   33 1
  49   26   49 1
  50   27   28 ar
  51   27   50 1
  52   28   29 ar
  53   28   51 1
  54   29   30 ar
  55   29   52 1
  56   30   32 1
  57   33   53 1
  58   33   54 1
  59   33   55 1
  60   34   56 1
  61   34   57 1
  62   34   58 1

#	End of record

