#	Name: ASD07930661
#	Creating user name:	WinNT
#	Creation time:	15. 06. 2019 21:12

#	Modifying user name:	WinNT
#	Modification time:	15. 06. 2019 21:12

#	Program:	/corina/corina34_cracker 3.40 0067  02.08.2006

@<TRIPOS>MOLECULE
ASD07930661
  48   50    0    0    0
SMALL
NO_CHARGES


@<TRIPOS>ATOM
   1 C1            -0.1435     1.4650     0.3075 C.3     
   2 N2             0.5905    -0.2186    -2.0458 N.2     
   3 N3            -0.9971    -1.6996    -1.1812 N.pl3   
   4 C4            -0.9255    -2.8147    -0.2313 C.3     
   5 C5            -1.1669    -2.2857     1.1892 C.3     
   6 S6             0.0526    -0.9766     1.5261 S.o2    
   7 N7            -0.0847     0.0061     0.1874 N.am    
   8 C8            -0.1411    -0.6257    -1.0468 C.2     
   9 C9             0.4587    -3.4623    -0.3069 C.3     
  10 C10           -1.9793    -3.8361    -0.5738 C.ar    
  11 C11           -2.8117    -3.6317    -1.6567 C.ar    
  12 C12           -3.7830    -4.5730    -1.9732 C.ar    
  13 C13           -3.9151    -5.7183    -1.1996 C.ar    
  14 C14           -3.0793    -5.9190    -0.1158 C.ar    
  15 C15           -2.1080    -4.9801     0.1937 C.ar    
  16 O16           -0.3685    -0.1624     2.6119 O.2     
  17 O17            1.3757    -1.4903     1.4582 O.2     
  18 N18           -4.6270    -4.3671    -3.0694 N.am    
  19 C19           -5.0468    -5.4167    -3.8032 C.2     
  20 O20           -4.6179    -6.5301    -3.5721 O.2     
  21 C21           -6.0310    -5.2133    -4.8915 C.ar    
  22 N22           -6.4958    -3.9950    -5.1392 N.ar    
  23 Cl23          -1.0598    -5.2335     1.5541 Cl      
  24 C24           -7.3702    -3.7714    -6.0959 C.ar    
  25 C25           -7.8417    -4.8078    -6.8855 C.ar    
  26 C26           -7.3825    -6.0964    -6.6609 C.ar    
  27 C27           -6.4568    -6.3015    -5.6502 C.ar    
  28 F28           -3.2068    -7.0326     0.6383 F       
  29 C29           -8.8443    -4.5369    -7.9775 C.3     
  30 F30           -9.1478    -3.1715    -8.0036 F       
  31 F31           -8.3051    -4.9184    -9.2107 F       
  32 F32          -10.0107    -5.2693    -7.7318 F       
  33 H33            0.8661     1.8738     0.2668 H       
  34 H34           -0.7342     1.8735    -0.5123 H       
  35 H35           -0.6060     1.7330     1.2574 H       
  36 H36            1.1871     0.5379    -1.9333 H       
  37 H37           -1.6424    -1.7188    -1.9052 H       
  38 H38           -2.1746    -1.8768     1.2628 H       
  39 H39           -1.0449    -3.0954     1.9086 H       
  40 H40            1.2198    -2.7231    -0.0571 H       
  41 H41            0.5112    -4.2909     0.3993 H       
  42 H42            0.6311    -3.8341    -1.3169 H       
  43 H43           -2.7076    -2.7400    -2.2571 H       
  44 H44           -4.6698    -6.4514    -1.4435 H       
  45 H45           -4.9101    -3.4688    -3.3015 H       
  46 H46           -7.7259    -2.7663    -6.2682 H       
  47 H47           -7.7350    -6.9211    -7.2626 H       
  48 H48           -6.0776    -7.2923    -5.4476 H       
@<TRIPOS>BOND
   1    1    7 1
   2    1   33 1
   3    1   34 1
   4    1   35 1
   5    2    8 2
   6    2   36 1
   7    3    4 1
   8    3    8 1
   9    3   37 1
  10    4    5 1
  11    4    9 1
  12    4   10 1
  13    5    6 1
  14    5   38 1
  15    5   39 1
  16    6    7 am
  17    6   16 2
  18    6   17 2
  19    7    8 1
  20    9   40 1
  21    9   41 1
  22    9   42 1
  23   10   11 ar
  24   10   15 ar
  25   11   12 ar
  26   11   43 1
  27   12   13 ar
  28   12   18 1
  29   13   14 ar
  30   13   44 1
  31   14   15 ar
  32   14   28 1
  33   15   23 1
  34   18   19 am
  35   18   45 1
  36   19   20 2
  37   19   21 1
  38   21   22 ar
  39   21   27 ar
  40   22   24 ar
  41   24   25 ar
  42   24   46 1
  43   25   26 ar
  44   25   29 1
  45   26   27 ar
  46   26   47 1
  47   27   48 1
  48   29   30 1
  49   29   31 1
  50   29   32 1

#	End of record

