#	Name: ASD01141076
#	Creating user name:	WinNT
#	Creation time:	15. 06. 2019 19:01

#	Modifying user name:	WinNT
#	Modification time:	15. 06. 2019 19:01

#	Program:	/corina/corina34_cracker 3.40 0067  02.08.2006

@<TRIPOS>MOLECULE
ASD01141076
  41   43    0    0    0
SMALL
NO_CHARGES


@<TRIPOS>ATOM
   1 C1            -0.0623     1.2634     1.6350 C.3     
   2 C2            -0.0503    -0.2363     1.3321 C.3     
   3 C3             1.3531     1.7232     1.9902 C.3     
   4 N4            -1.4056    -0.6766     0.9920 N.am    
   5 C5            -1.6375    -1.9685     0.6862 C.2     
   6 H6            -2.1359    -0.0383     0.9869 H       
   7 C7            -3.0008    -2.4115     0.3441 C.ar    
   8 O8            -0.7218    -2.7688     0.6926 O.2     
   9 C9            -3.2222    -3.7269    -0.0872 C.ar    
  10 N10           -4.0244    -1.5614     0.4504 N.ar    
  11 C11           -4.5563    -4.0899    -0.4002 C.ar    
  12 N12           -2.1869    -4.6286    -0.2024 N.pl3   
  13 N13           -5.2353    -1.8817     0.1694 N.ar    
  14 C14           -4.8880    -5.3736    -0.8457 C.ar    
  15 C15           -5.5648    -3.1069    -0.2568 C.ar    
  16 C16           -6.1861    -5.6773    -1.1421 C.ar    
  17 C17           -6.9008    -3.4473    -0.5633 C.ar    
  18 C18           -7.1900    -4.7277    -1.0083 C.ar    
  19 C19           -7.9800    -2.4419    -0.4239 C.ar    
  20 H20           -1.2741    -4.3110    -0.2850 H       
  21 H21           -2.3708    -5.5810    -0.2009 H       
  22 C22           -8.8758    -2.2267    -1.4708 C.ar    
  23 C23           -9.8789    -1.2889    -1.3351 C.ar    
  24 C24           -9.9966    -0.5625    -0.1636 C.ar    
  25 C25           -9.1107    -0.7712     0.8782 C.ar    
  26 C26           -8.1076    -1.7110     0.7568 C.ar    
  27 H27           -0.4121     1.8084     0.7583 H       
  28 H28           -0.7293     1.4591     2.4746 H       
  29 H29            0.6167    -0.4320     0.4925 H       
  30 H30            0.2995    -0.7813     2.2088 H       
  31 H31            1.7029     1.1782     2.8669 H       
  32 H32            2.0201     1.5275     1.1507 H       
  33 H33            1.3446     2.7916     2.2061 H       
  34 H34           -4.1186    -6.1236    -0.9555 H       
  35 H35           -6.4344    -6.6689    -1.4906 H       
  36 H36           -8.2094    -4.9915    -1.2487 H       
  37 H37           -8.7844    -2.7927    -2.3861 H       
  38 H38          -10.5732    -1.1214    -2.1452 H       
  39 H39          -10.7831     0.1706    -0.0622 H       
  40 H40           -9.2072    -0.2006     1.7901 H       
  41 H41           -7.4166    -1.8730     1.5708 H       
@<TRIPOS>BOND
   1    1    2 1
   2    1    3 1
   3    1   27 1
   4    1   28 1
   5    2    4 1
   6    2   29 1
   7    2   30 1
   8    3   31 1
   9    3   32 1
  10    3   33 1
  11    4    6 1
  12    4    5 am
  13    5    7 1
  14    5    8 2
  15    7   10 ar
  16    7    9 ar
  17    9   11 ar
  18    9   12 1
  19   10   13 ar
  20   11   15 ar
  21   11   14 ar
  22   12   20 1
  23   12   21 1
  24   13   15 ar
  25   14   16 ar
  26   14   34 1
  27   15   17 ar
  28   16   18 ar
  29   16   35 1
  30   17   18 ar
  31   17   19 1
  32   18   36 1
  33   19   22 ar
  34   19   26 ar
  35   22   23 ar
  36   22   37 1
  37   23   24 ar
  38   23   38 1
  39   24   25 ar
  40   24   39 1
  41   25   26 ar
  42   25   40 1
  43   26   41 1

#	End of record

