#	Name: ASD01150929
#	Creating user name:	WinNT
#	Creation time:	15. 06. 2019 19:05

#	Modifying user name:	WinNT
#	Modification time:	15. 06. 2019 19:05

#	Program:	/corina/corina34_cracker 3.40 0067  02.08.2006

@<TRIPOS>MOLECULE
ASD01150929
  55   57    0    0    0
SMALL
NO_CHARGES


@<TRIPOS>ATOM
   1 C1            -0.0180     1.4738     0.0101 C.ar    
   2 C2             0.0021    -0.0041     0.0020 C.2     
   3 N3            -1.1558    -0.6938     0.0094 N.am    
   4 O4             1.0628    -0.5974    -0.0113 O.2     
   5 C5            -1.1370    -2.0836     0.0017 C.2     
   6 N6            -0.0478    -2.8559    -0.0124 N.2     
   7 C7            -0.3959    -4.1265    -0.0160 C.2     
   8 N8            -1.7505    -4.2220    -0.0042 N.pl3   
   9 C9            -2.2479    -2.9178     0.0134 C.2     
  10 C10           -3.6019    -2.5267     0.0308 C.2     
  11 O11           -4.5752    -3.4629     0.0314 O.3     
  12 O12           -3.8941    -1.3445     0.0451 O.2     
  13 C13           -5.9254    -2.9951     0.0495 C.3     
  14 C14           -6.8796    -4.1911     0.0474 C.3     
  15 S15            0.7213    -5.4889    -0.0341 S.3     
  16 C16            2.2989    -4.6016    -0.0434 C.3     
  17 C17           -2.5386    -5.4569    -0.0037 C.3     
  18 C18           -2.7964    -5.8877     1.4173 C.ar    
  19 C19           -3.9238    -5.4413     2.0811 C.ar    
  20 C20           -4.1602    -5.8364     3.3845 C.ar    
  21 C21           -3.2696    -6.6783     4.0239 C.ar    
  22 C22           -2.1427    -7.1254     3.3598 C.ar    
  23 C23           -1.9085    -6.7338     2.0549 C.ar    
  24 C24            1.1795     2.1912     0.0026 C.ar    
  25 C25            1.1537     3.5704     0.0097 C.ar    
  26 C26           -0.0555     4.2427     0.0244 C.ar    
  27 C27           -1.2461     3.5378     0.0325 C.ar    
  28 C28           -1.2345     2.1584     0.0196 C.ar    
  29 C29           -2.5583     4.2785     0.0494 C.3     
  30 F30           -2.9775     4.5148    -1.2642 F       
  31 F31           -3.5194     3.5095     0.7144 F       
  32 F32           -2.3964     5.4990     0.7139 F       
  33 C33            2.4454     4.3466     0.0021 C.3     
  34 F34            3.5244     3.4563    -0.0121 F       
  35 F35            2.4952     5.1579    -1.1366 F       
  36 F36            2.5157     5.1464     1.1478 F       
  37 H37           -2.0023    -0.2203     0.0200 H       
  38 H38           -6.0915    -2.3993     0.9470 H       
  39 H39           -6.1093    -2.3821    -0.8328 H       
  40 H40           -7.9094    -3.8343     0.0612 H       
  41 H41           -6.7135    -4.7869    -0.8501 H       
  42 H42           -6.6957    -4.8042     0.9297 H       
  43 H43            3.1193    -5.3191    -0.0550 H       
  44 H44            2.3556    -3.9705    -0.9303 H       
  45 H45            2.3718    -3.9807     0.8496 H       
  46 H46           -3.4888    -5.2818    -0.5083 H       
  47 H47           -1.9884    -6.2393    -0.5264 H       
  48 H48           -4.6196    -4.7835     1.5815 H       
  49 H49           -5.0406    -5.4870     3.9034 H       
  50 H50           -3.4540    -6.9864     5.0425 H       
  51 H51           -1.4467    -7.7829     3.8594 H       
  52 H52           -1.0281    -7.0831     1.5360 H       
  53 H53            2.1241     1.6676    -0.0085 H       
  54 H54           -0.0702     5.3226     0.0300 H       
  55 H55           -2.1645     1.6093     0.0256 H       
@<TRIPOS>BOND
   1    1    2 1
   2    1   24 ar
   3    1   28 ar
   4    2    3 am
   5    2    4 2
   6    3    5 1
   7    3   37 1
   8    5    6 1
   9    5    9 2
  10    6    7 2
  11    7    8 1
  12    7   15 1
  13    8    9 1
  14    8   17 1
  15    9   10 1
  16   10   11 1
  17   10   12 2
  18   11   13 1
  19   13   14 1
  20   13   38 1
  21   13   39 1
  22   14   40 1
  23   14   41 1
  24   14   42 1
  25   15   16 1
  26   16   43 1
  27   16   44 1
  28   16   45 1
  29   17   18 1
  30   17   46 1
  31   17   47 1
  32   18   19 ar
  33   18   23 ar
  34   19   20 ar
  35   19   48 1
  36   20   21 ar
  37   20   49 1
  38   21   22 ar
  39   21   50 1
  40   22   23 ar
  41   22   51 1
  42   23   52 1
  43   24   25 ar
  44   24   53 1
  45   25   26 ar
  46   25   33 1
  47   26   27 ar
  48   26   54 1
  49   27   28 ar
  50   27   29 1
  51   28   55 1
  52   29   30 1
  53   29   31 1
  54   29   32 1
  55   33   34 1
  56   33   35 1
  57   33   36 1

#	End of record

