#	Name: ASD04660008
#	Creating user name:	WinNT
#	Creation time:	15. 06. 2019 20:52

#	Modifying user name:	WinNT
#	Modification time:	15. 06. 2019 20:52

#	Program:	/corina/corina34_cracker 3.40 0067  02.08.2006

@<TRIPOS>MOLECULE
ASD04660008
  23   25    0    0    0
SMALL
NO_CHARGES


@<TRIPOS>ATOM
   1 C1             0.0475     1.3923     0.6447 C.ar    
   2 C2             0.0682    -0.0016     0.6569 C.ar    
   3 C3             1.2049    -0.7355     0.4440 C.ar    
   4 C4             2.4135    -0.0616     0.2007 C.ar    
   5 C5             2.3754     1.3332     0.1913 C.ar    
   6 C6             1.2171     2.0936     0.4082 C.ar    
   7 C7             3.6592    -0.6677    -0.0340 C.ar    
   8 C8             4.7448     0.1353    -0.2543 C.ar    
   9 C9             4.6777     1.5284    -0.2577 C.ar    
  10 C10            3.4705     2.1625    -0.0314 C.ar    
  11 N11            3.0076     3.4702     0.0425 N.am    
  12 C12            1.6734     3.4845     0.3022 C.2     
  13 O13            0.9793     4.4764     0.4254 O.2     
  14 S14            3.8198    -2.4224    -0.0436 S.o2    
  15 O15            3.9864    -2.8175     1.3111 O.2     
  16 O16            2.7782    -2.9160    -0.8747 O.2     
  17 Cl17           5.5542    -2.8590    -0.9826 Cl      
  18 H18           -0.8780     1.9224     0.8147 H       
  19 H19           -0.8562    -0.5280     0.8434 H       
  20 H20            1.1728    -1.8148     0.4632 H       
  21 H21            5.7013    -0.3328    -0.4342 H       
  22 H22            5.5688     2.1117    -0.4368 H       
  23 H23            3.5581     4.2604    -0.0738 H       
@<TRIPOS>BOND
   1    1    2 ar
   2    1    6 ar
   3    1   18 1
   4    2    3 ar
   5    2   19 1
   6    3    4 ar
   7    3   20 1
   8    4    5 ar
   9    4    7 ar
  10    5    6 ar
  11    5   10 ar
  12    6   12 1
  13    7    8 ar
  14    7   14 1
  15    8    9 ar
  16    8   21 1
  17    9   10 ar
  18    9   22 1
  19   10   11 1
  20   11   12 am
  21   11   23 1
  22   12   13 2
  23   14   15 2
  24   14   16 2
  25   14   17 1

#	End of record

