#	Name: ASD03091898
#	Creating user name:	WinNT
#	Creation time:	15. 06. 2019 20:31

#	Modifying user name:	WinNT
#	Modification time:	15. 06. 2019 20:31

#	Program:	/corina/corina34_cracker 3.40 0067  02.08.2006

@<TRIPOS>MOLECULE
ASD03091898
  46   50    0    0    0
SMALL
NO_CHARGES


@<TRIPOS>ATOM
   1 C1            -0.0168     1.3912     0.0097 C.ar    
   2 C2            -1.2517     2.0643     0.0309 C.ar    
   3 C3            -2.4517     1.3090     0.0450 C.ar    
   4 C4            -2.3943    -0.0988     0.0356 C.ar    
   5 C5            -1.1956    -0.7356     0.0148 C.ar    
   6 C6             0.0021    -0.0041     0.0020 C.ar    
   7 O7             1.1580     2.0616     0.0021 O.3     
   8 C8             2.2593     1.4603     0.6833 C.3     
   9 N9             2.4079     0.0581     0.2908 N.am    
  10 C10            1.3149    -0.6791    -0.0137 C.2     
  11 C11           -3.6697    -0.9014     0.0491 C.3     
  12 C12           -4.1812    -1.0555    -1.3600 C.ar    
  13 C13           -5.0447    -0.1187    -1.8948 C.ar    
  14 C14           -3.7848    -2.1370    -2.1350 C.ar    
  15 C15           -4.2771    -2.2420    -3.4236 C.ar    
  16 C16           -5.1495    -1.2635    -3.8970 C.ar    
  17 N17           -5.4992    -0.2422    -3.1260 N.ar    
  18 O18            1.4108    -1.8594    -0.2910 O.2     
  19 C19           -5.6858    -1.3613    -5.2765 C.2     
  20 C20           -5.4072    -2.3810    -6.2083 C.2     
  21 N21           -6.0638    -2.1170    -7.3064 N.2     
  22 N22           -6.7813    -0.9291    -7.1216 N.pl3   
  23 C23           -6.5440    -0.4828    -5.8729 C.2     
  24 C24           -1.3193     3.4662     0.0388 C.ar    
  25 C25           -3.6842     1.9809     0.0688 C.ar    
  26 C26           -2.5333     4.0837     0.0617 C.ar    
  27 C27           -3.7121     3.3428     0.0765 C.ar    
  28 C28           -7.6462    -0.2854    -8.1135 C.3     
  29 H29           -1.1633    -1.8150     0.0076 H       
  30 H30            3.1729     2.0010     0.4361 H       
  31 H31            2.0899     1.5160     1.7586 H       
  32 H32            3.2902    -0.3427     0.2486 H       
  33 H33           -3.4749    -1.8858     0.4746 H       
  34 H34           -4.4169    -0.3861     0.6526 H       
  35 H35           -5.3517     0.7259    -1.2959 H       
  36 H36           -3.1069    -2.8797    -1.7409 H       
  37 H37           -3.9891    -3.0702    -4.0541 H       
  38 H38           -4.7630    -3.2320    -6.0435 H       
  39 H39           -6.9557     0.4099    -5.4257 H       
  40 H40           -0.4127     4.0530     0.0271 H       
  41 H41           -4.6071     1.4200     0.0806 H       
  42 H42           -2.5822     5.1626     0.0685 H       
  43 H43           -4.6626     3.8554     0.0944 H       
  44 H44           -8.6629    -0.6643    -8.0096 H       
  45 H45           -7.6422     0.7929    -7.9539 H       
  46 H46           -7.2769    -0.5057    -9.1151 H       
@<TRIPOS>BOND
   1    1    6 ar
   2    1    7 1
   3    1    2 ar
   4    2    3 ar
   5    2   24 ar
   6    3    4 ar
   7    3   25 ar
   8    4    5 ar
   9    4   11 1
  10    5    6 ar
  11    5   29 1
  12    6   10 1
  13    7    8 1
  14    8    9 1
  15    8   30 1
  16    8   31 1
  17    9   10 am
  18    9   32 1
  19   10   18 2
  20   11   12 1
  21   11   33 1
  22   11   34 1
  23   12   14 ar
  24   12   13 ar
  25   13   17 ar
  26   13   35 1
  27   14   15 ar
  28   14   36 1
  29   15   16 ar
  30   15   37 1
  31   16   17 ar
  32   16   19 1
  33   19   23 2
  34   19   20 1
  35   20   21 2
  36   20   38 1
  37   21   22 1
  38   22   23 1
  39   22   28 1
  40   23   39 1
  41   24   26 ar
  42   24   40 1
  43   25   27 ar
  44   25   41 1
  45   26   27 ar
  46   26   42 1
  47   27   43 1
  48   28   44 1
  49   28   45 1
  50   28   46 1

#	End of record

