#	Name: ASD01917774
#	Creating user name:	WinNT
#	Creation time:	15. 06. 2019 20:10

#	Modifying user name:	WinNT
#	Modification time:	15. 06. 2019 20:10

#	Program:	/corina/corina34_cracker 3.40 0067  02.08.2006

@<TRIPOS>MOLECULE
ASD01917774
  36   38    0    0    0
SMALL
NO_CHARGES


@<TRIPOS>ATOM
   1 C1            -0.0088     1.3209    -0.0193 C.2     
   2 C2            -0.0020    -0.0259    -0.0181 C.2     
   3 C3            -1.2393    -0.8872     0.0010 C.3     
   4 C4            -2.4277    -0.0364     0.4662 C.3     
   5 N5            -2.4002     1.2553    -0.2363 N.am    
   6 C6            -1.2624     2.1601     0.0088 C.3     
   7 C7            -3.3897     1.6029    -1.0828 C.2     
   8 O8            -4.2660     0.8083    -1.3503 O.2     
   9 C9            -3.4072     2.9790    -1.6968 C.3     
  10 O10            1.2667     1.7294    -0.0433 O.3     
  11 C11            2.0420     0.6335    -0.0531 C.2     
  12 N12            1.2772    -0.4237    -0.0376 N.2     
  13 C13            3.5488     0.6256    -0.0785 C.3     
  14 O14            4.0023     0.6197    -1.4336 O.3     
  15 C15            5.3464     0.6121    -1.6344 C.ar    
  16 C16            5.8562     0.6061    -2.9246 C.ar    
  17 C17            7.2228     0.5983    -3.1260 C.ar    
  18 C18            8.0824     0.5966    -2.0430 C.ar    
  19 C19            7.5768     0.6022    -0.7561 C.ar    
  20 C20            6.2110     0.6161    -0.5494 C.ar    
  21 H21           -1.4338    -1.2694    -1.0010 H       
  22 H22           -1.0943    -1.7195     0.6897 H       
  23 H23           -3.3587    -0.5554     0.2381 H       
  24 H24           -2.3570     0.1317     1.5408 H       
  25 H25           -1.3690     2.6345     0.9843 H       
  26 H26           -1.2180     2.9200    -0.7714 H       
  27 H27           -2.6036     3.5782    -1.2687 H       
  28 H28           -3.2654     2.8978    -2.7745 H       
  29 H29           -4.3654     3.4564    -1.4914 H       
  30 H30            3.9254     1.5149     0.4268 H       
  31 H31            3.9161    -0.2650     0.4314 H       
  32 H32            5.1852     0.6070    -3.7709 H       
  33 H33            7.6202     0.5933    -4.1303 H       
  34 H34            9.1506     0.5906    -2.2026 H       
  35 H35            8.2503     0.6001     0.0881 H       
  36 H36            5.8165     0.6205     0.4559 H       
@<TRIPOS>BOND
   1    1    2 2
   2    1   10 1
   3    1    6 1
   4    2    3 1
   5    2   12 1
   6    3    4 1
   7    3   21 1
   8    3   22 1
   9    4    5 1
  10    4   23 1
  11    4   24 1
  12    5    6 1
  13    5    7 am
  14    6   25 1
  15    6   26 1
  16    7    8 2
  17    7    9 1
  18    9   27 1
  19    9   28 1
  20    9   29 1
  21   10   11 1
  22   11   12 2
  23   11   13 1
  24   13   14 1
  25   13   30 1
  26   13   31 1
  27   14   15 1
  28   15   16 ar
  29   15   20 ar
  30   16   17 ar
  31   16   32 1
  32   17   18 ar
  33   17   33 1
  34   18   19 ar
  35   18   34 1
  36   19   20 ar
  37   19   35 1
  38   20   36 1

#	End of record

