#	Name: ASD08178130
#	Creating user name:	WinNT
#	Creation time:	15. 06. 2019 21:18

#	Modifying user name:	WinNT
#	Modification time:	15. 06. 2019 21:18

#	Program:	/corina/corina34_cracker 3.40 0067  02.08.2006

@<TRIPOS>MOLECULE
ASD08178130
  62   65    0    0    0
SMALL
NO_CHARGES


@<TRIPOS>ATOM
   1 C1            -0.0184     1.5028     0.0103 C.2     
   2 C2             0.0021    -0.0041     0.0020 C.3     
   3 C3             0.0221    -0.5218     1.4416 C.3     
   4 C4             0.0429    -2.0516     1.4332 C.3     
   5 C5             0.0630    -2.5693     2.8728 C.3     
   6 C6             0.0834    -4.0761     2.8645 C.2     
   7 N7             1.1396    -4.8258     2.8513 N.2     
   8 N8             0.9467    -6.0734     2.8463 N.2     
   9 C9            -0.2824    -6.4936     2.8547 C.2     
  10 S10           -1.3267    -5.1359     2.8788 S.3     
  11 N11           -0.6838    -7.8252     2.8506 N.am    
  12 N12            1.0171     2.2809     0.0046 N.2     
  13 C13            0.2391    -8.8073     2.8374 C.2     
  14 O14            1.4197    -8.5298     2.8290 O.2     
  15 C15           -0.1960   -10.2501     2.8329 C.3     
  16 C16            1.0193   -11.1412     2.8177 C.ar    
  17 N17            0.7904     3.5228     0.0134 N.2     
  18 C18           -0.4495     3.9094     0.0274 C.2     
  19 S19           -1.4568     2.5237     0.0218 S.3     
  20 C20            2.6812   -12.3604     1.5943 C.ar    
  21 C21            1.5855   -11.5557     4.0072 C.ar    
  22 C22            2.7057   -12.3770     3.9923 C.ar    
  23 C23            3.2525   -12.7786     2.7801 C.ar    
  24 C24            1.5628   -11.5474     1.6128 C.ar    
  25 N25            3.2812   -12.7978     5.1934 N.pl3   
  26 N26           -0.8870     5.2295     0.0390 N.am    
  27 C27            0.0089     6.2364     0.0358 C.2     
  28 O28            1.1967     5.9912     0.0228 O.2     
  29 C29           -0.4651     7.6668     0.0485 C.3     
  30 C30            0.7256     8.5906     0.0419 C.ar    
  31 C31            1.2594     9.0207    -1.1591 C.ar    
  32 C32            2.3519     9.8684    -1.1696 C.ar    
  33 C33            2.9132    10.2888     0.0201 C.ar    
  34 C34            2.3792     9.8591     1.2283 C.ar    
  35 C35            1.2787     9.0113     1.2354 C.ar    
  36 N36            2.9444    10.2823     2.4334 N.pl3   
  37 H37           -0.8875    -0.3767    -0.5057 H       
  38 H38            0.8922    -0.3525    -0.5218 H       
  39 H39            0.9118    -0.1491     1.9494 H       
  40 H40           -0.8680    -0.1733     1.9655 H       
  41 H41           -0.8467    -2.4242     0.9255 H       
  42 H42            0.9330    -2.4000     0.9094 H       
  43 H43            0.9526    -2.1967     3.3806 H       
  44 H44           -0.8271    -2.2209     3.3967 H       
  45 H45           -1.6281    -8.0470     2.8573 H       
  46 H46           -0.7854   -10.4546     3.7267 H       
  47 H47           -0.8003   -10.4446     1.9469 H       
  48 H48            3.1032   -12.6759     0.6516 H       
  49 H49            1.1581   -11.2413     4.9479 H       
  50 H50            4.1232   -13.4175     2.7650 H       
  51 H51            1.1178   -11.2221     0.6841 H       
  52 H52            2.8986   -12.5164     6.0392 H       
  53 H53            4.0634   -13.3713     5.1817 H       
  54 H54           -1.8369     5.4256     0.0495 H       
  55 H55           -1.0758     7.8550    -0.8345 H       
  56 H56           -1.0583     7.8451     0.9454 H       
  57 H57            0.8223     8.6935    -2.0909 H       
  58 H58            2.7668    10.2019    -2.1093 H       
  59 H59            3.7667    10.9506     0.0112 H       
  60 H60            0.8611     8.6754     2.1730 H       
  61 H61            3.7108    10.8769     2.4273 H       
  62 H62            2.5706     9.9815     3.2765 H       
@<TRIPOS>BOND
   1    1    2 1
   2    1   12 2
   3    1   19 1
   4    2    3 1
   5    2   37 1
   6    2   38 1
   7    3    4 1
   8    3   39 1
   9    3   40 1
  10    4    5 1
  11    4   41 1
  12    4   42 1
  13    5    6 1
  14    5   43 1
  15    5   44 1
  16    6    7 2
  17    6   10 1
  18    7    8 1
  19    8    9 2
  20    9   10 1
  21    9   11 1
  22   11   13 am
  23   11   45 1
  24   12   17 1
  25   13   14 2
  26   13   15 1
  27   15   16 1
  28   15   46 1
  29   15   47 1
  30   16   21 ar
  31   16   24 ar
  32   17   18 2
  33   18   19 1
  34   18   26 1
  35   20   24 ar
  36   20   23 ar
  37   20   48 1
  38   21   22 ar
  39   21   49 1
  40   22   23 ar
  41   22   25 1
  42   23   50 1
  43   24   51 1
  44   25   52 1
  45   25   53 1
  46   26   27 am
  47   26   54 1
  48   27   28 2
  49   27   29 1
  50   29   30 1
  51   29   55 1
  52   29   56 1
  53   30   31 ar
  54   30   35 ar
  55   31   32 ar
  56   31   57 1
  57   32   33 ar
  58   32   58 1
  59   33   34 ar
  60   33   59 1
  61   34   35 ar
  62   34   36 1
  63   35   60 1
  64   36   61 1
  65   36   62 1

#	End of record

