#	Name: ASD09116368
#	Creating user name:	WinNT
#	Creation time:	15. 06. 2019 21:21

#	Modifying user name:	WinNT
#	Modification time:	15. 06. 2019 21:21

#	Program:	/corina/corina34_cracker 3.40 0067  02.08.2006

@<TRIPOS>MOLECULE
ASD09116368
  46   50    0    0    0
SMALL
NO_CHARGES


@<TRIPOS>ATOM
   1 N1            -0.0113     1.3953    -0.0479 N.2     
   2 N2            -0.0110     0.0070     0.1633 N.pl3   
   3 C3             1.2218     1.8085     0.1217 C.2     
   4 N4             1.9951     0.7599     0.4268 N.2     
   5 C5             1.2658    -0.3349     0.4558 C.2     
   6 N6             1.7224    -1.6088     0.7360 N.pl3   
   7 C7            -1.1099    -0.8507     0.0870 C.ar    
   8 N8             1.6572     3.1285     0.0023 N.pl3   
   9 C9             3.0198     3.4262     0.0965 C.ar    
  10 C10            3.9754     2.5030    -0.3215 C.ar    
  11 C11            3.4405     4.6494     0.6030 C.ar    
  12 N12            4.7243     4.9339     0.6929 N.ar    
  13 C13            5.6540     4.0796     0.3105 C.ar    
  14 C14            5.3132     2.8438    -0.2088 C.ar    
  15 N15           -0.9301    -2.1352    -0.1822 N.ar    
  16 N16           -1.9080    -2.9646    -0.2734 N.ar    
  17 C17           -3.1626    -2.5794    -0.1032 C.ar    
  18 C18           -3.4471    -1.2462     0.2056 C.ar    
  19 C19           -2.3988    -0.3554     0.3003 C.ar    
  20 C20           -4.2948    -3.5214    -0.2611 C.ar    
  21 C21           -5.3729    -3.1514    -1.0668 C.ar    
  22 C22           -5.3322    -1.8360    -1.7952 C.3     
  23 C23           -5.6281    -0.6700    -0.8558 C.3     
  24 C24           -4.8661    -0.8266     0.4574 C.3     
  25 C25           -4.2972    -4.7548     0.3808 C.ar    
  26 C26           -5.3788    -5.6012     0.2316 C.ar    
  27 C27           -6.4544    -5.2219    -0.5510 C.ar    
  28 C28           -6.4521    -3.9985    -1.1985 C.ar    
  29 I29            7.6745     4.6052     0.4849 I       
  30 H30            2.6605    -1.7549     0.9349 H       
  31 H31            1.1049    -2.3568     0.7337 H       
  32 H32            1.0145     3.8396    -0.1460 H       
  33 H33            3.6805     1.5448    -0.7232 H       
  34 H34            2.7083     5.3747     0.9260 H       
  35 H35            6.0814     2.1510    -0.5189 H       
  36 H36           -2.5684     0.6877     0.5229 H       
  37 H37           -4.3425    -1.7003    -2.2312 H       
  38 H38           -6.0739    -1.8475    -2.5938 H       
  39 H39           -5.3288     0.2620    -1.3354 H       
  40 H40           -6.6977    -0.6387    -0.6486 H       
  41 H41           -5.3595    -1.5809     1.0703 H       
  42 H42           -4.8695     0.1247     0.9894 H       
  43 H43           -3.4576    -5.0499     0.9926 H       
  44 H44           -5.3844    -6.5610     0.7266 H       
  45 H45           -7.3010    -5.8840    -0.6571 H       
  46 H46           -7.2959    -3.7079    -1.8068 H       
@<TRIPOS>BOND
   1    1    2 1
   2    1    3 2
   3    2    7 1
   4    2    5 1
   5    3    4 1
   6    3    8 1
   7    4    5 2
   8    5    6 1
   9    6   30 1
  10    6   31 1
  11    7   15 ar
  12    7   19 ar
  13    8    9 1
  14    8   32 1
  15    9   10 ar
  16    9   11 ar
  17   10   14 ar
  18   10   33 1
  19   11   12 ar
  20   11   34 1
  21   12   13 ar
  22   13   14 ar
  23   13   29 1
  24   14   35 1
  25   15   16 ar
  26   16   17 ar
  27   17   18 ar
  28   17   20 1
  29   18   19 ar
  30   18   24 1
  31   19   36 1
  32   20   21 ar
  33   20   25 ar
  34   21   22 1
  35   21   28 ar
  36   22   23 1
  37   22   37 1
  38   22   38 1
  39   23   24 1
  40   23   39 1
  41   23   40 1
  42   24   41 1
  43   24   42 1
  44   25   26 ar
  45   25   43 1
  46   26   27 ar
  47   26   44 1
  48   27   28 ar
  49   27   45 1
  50   28   46 1

#	End of record

