#	Name: ASD02408044
#	Creating user name:	WinNT
#	Creation time:	15. 06. 2019 20:21

#	Modifying user name:	WinNT
#	Modification time:	15. 06. 2019 20:21

#	Program:	/corina/corina34_cracker 3.40 0067  02.08.2006

@<TRIPOS>MOLECULE
ASD02408044
  43   45    0    0    0
SMALL
NO_CHARGES


@<TRIPOS>ATOM
   1 C1             2.3193     5.9812    -4.1954 C.2     
   2 C2             1.1381     6.5975    -4.2600 C.2     
   3 C3             2.8586     5.3942    -2.9165 C.3     
   4 C4             2.4087     3.9613    -2.7926 C.2     
   5 N5             2.7864     3.2513    -1.7118 N.am    
   6 N6             1.6617     3.4509    -3.7335 N.2     
   7 C7             1.2321     2.1838    -3.6764 C.2     
   8 C8             1.5932     1.3847    -2.5791 C.2     
   9 C9             2.4013     1.9658    -1.5683 C.2     
  10 N10            0.4467     1.6713    -4.6796 N.pl3   
  11 O11            2.7437     1.3175    -0.5945 O.2     
  12 S12            0.8488     7.1472    -5.9054 S.3     
  13 C13            2.3939     6.4897    -6.4286 C.2     
  14 C14            3.0097     5.9166    -5.3935 C.2     
  15 C15            0.7243     1.9930    -6.0861 C.3     
  16 C16           -0.6836     0.7860    -4.3672 C.3     
  17 C17           -1.9478     1.3502    -5.0231 C.3     
  18 C18           -1.6973     1.5453    -6.5202 C.3     
  19 C19           -0.5525     2.5464    -6.7266 C.3     
  20 C20           -1.3137     0.2055    -7.1517 C.3     
  21 C21           -2.9690     2.0762    -7.1849 C.3     
  22 C22            1.1542     0.0251    -2.4810 C.1     
  23 N23            0.8059    -1.0533    -2.4032 N.1     
  24 H24            0.4626     6.7372    -3.4290 H       
  25 H25            3.9478     5.4332    -2.9297 H       
  26 H26            2.4847     5.9670    -2.0678 H       
  27 H27            3.3393     3.6671    -1.0319 H       
  28 H28            2.7825     6.5384    -7.4351 H       
  29 H29            3.9773     5.4449    -5.4816 H       
  30 H30            1.5145     2.7417    -6.1405 H       
  31 H31            1.0358     1.0909    -6.6126 H       
  32 H32           -0.4843    -0.2123    -4.7567 H       
  33 H33           -0.8225     0.7381    -3.2871 H       
  34 H34           -2.7737     0.6535    -4.8802 H       
  35 H35           -2.1969     2.3088    -4.5680 H       
  36 H36           -0.8097     3.4952    -6.2557 H       
  37 H37           -0.3922     2.7008    -7.7936 H       
  38 H38           -2.1246    -0.5088    -7.0089 H       
  39 H39           -1.1353     0.3442    -8.2180 H       
  40 H40           -0.4081    -0.1734    -6.6780 H       
  41 H41           -3.2429     3.0305    -6.7348 H       
  42 H42           -2.7908     2.2152    -8.2512 H       
  43 H43           -3.7792     1.3613    -7.0421 H       
@<TRIPOS>BOND
   1    1    2 2
   2    1    3 1
   3    1   14 1
   4    2   12 1
   5    2   24 1
   6    3    4 1
   7    3   25 1
   8    3   26 1
   9    4    5 1
  10    4    6 2
  11    5    9 am
  12    5   27 1
  13    6    7 1
  14    7    8 2
  15    7   10 1
  16    8    9 1
  17    8   22 1
  18    9   11 2
  19   10   16 1
  20   10   15 1
  21   12   13 1
  22   13   14 2
  23   13   28 1
  24   14   29 1
  25   15   19 1
  26   15   30 1
  27   15   31 1
  28   16   17 1
  29   16   32 1
  30   16   33 1
  31   17   18 1
  32   17   34 1
  33   17   35 1
  34   18   19 1
  35   18   20 1
  36   18   21 1
  37   19   36 1
  38   19   37 1
  39   20   38 1
  40   20   39 1
  41   20   40 1
  42   21   41 1
  43   21   42 1
  44   21   43 1
  45   22   23 3

#	End of record

