#	Name: ASD01001139
#	Creating user name:	WinNT
#	Creation time:	15. 06. 2019 18:55

#	Modifying user name:	WinNT
#	Modification time:	15. 06. 2019 18:55

#	Program:	/corina/corina34_cracker 3.40 0067  02.08.2006

@<TRIPOS>MOLECULE
ASD01001139
  45   47    0    0    0
SMALL
NO_CHARGES


@<TRIPOS>ATOM
   1 C1             0.3016     0.9192     0.6136 C.2     
   2 S2             0.0173    -0.8145     0.5445 S.3     
   3 C3             1.6822    -1.1419     0.7225 C.2     
   4 C4             2.3849    -0.0076     0.8252 C.2     
   5 C5             1.6406     1.1467     0.7674 C.2     
   6 C6            -0.7307     1.9544     0.5156 C.2     
   7 O7            -0.4212     3.1300     0.5755 O.2     
   8 N8            -2.0229     1.6049     0.3592 N.am    
   9 C9            -4.3978     4.6547     0.1482 C.2     
  10 C10           -5.1363     3.5422     0.0400 C.2     
  11 C11           -4.3351     2.3366     0.1071 C.2     
  12 C12           -2.9987     2.5836     0.2666 C.2     
  13 S13           -2.6993     4.2586     0.3362 S.3     
  14 C14           -4.9000     0.9871     0.0140 C.2     
  15 O15           -5.1048     0.4870    -1.0766 O.2     
  16 N16           -5.1927     0.3002     1.1360 N.am    
  17 C17           -5.8575    -1.0021     1.0452 C.3     
  18 C18           -4.8037    -2.1072     0.9498 C.3     
  19 C19           -6.0506     1.6069     3.0170 C.3     
  20 C20           -4.8459     0.8558     2.4465 C.3     
  21 C21           -4.9765     6.0552     0.1045 C.3     
  22 N22           -6.3339     5.9840    -0.4566 N.3     
  23 C23           -7.1410     4.9747     0.2438 C.3     
  24 C24           -6.6470     3.5756    -0.1320 C.3     
  25 H25            2.1117    -2.1325     0.7494 H       
  26 H26            3.4582     0.0003     0.9451 H       
  27 H27            2.0710     2.1348     0.8366 H       
  28 H28           -2.2695     0.6680     0.3114 H       
  29 H29           -6.4702    -1.1600     1.9328 H       
  30 H30           -6.4903    -1.0259     0.1580 H       
  31 H31           -4.1709    -2.0834     1.8370 H       
  32 H32           -5.2984    -3.0761     0.8822 H       
  33 H33           -4.1910    -1.9493     0.0622 H       
  34 H34           -5.8262     1.9364     4.0315 H       
  35 H35           -6.2669     2.4740     2.3929 H       
  36 H36           -6.9168     0.9455     3.0329 H       
  37 H37           -4.5689     0.0467     3.1224 H       
  38 H38           -4.0067     1.5430     2.3392 H       
  39 H39           -5.0186     6.4655     1.1135 H       
  40 H40           -4.3528     6.6894    -0.5256 H       
  41 H41           -6.7832     6.8871    -0.4318 H       
  42 H42           -7.0435     5.1142     1.3204 H       
  43 H43           -8.1868     5.0817    -0.0440 H       
  44 H44           -6.8983     3.3635    -1.1712 H       
  45 H45           -7.1118     2.8344     0.5181 H       
@<TRIPOS>BOND
   1    1    2 1
   2    1    5 2
   3    1    6 1
   4    2    3 1
   5    3    4 2
   6    3   25 1
   7    4    5 1
   8    4   26 1
   9    5   27 1
  10    6    7 2
  11    6    8 am
  12    8   12 1
  13    8   28 1
  14    9   10 2
  15    9   13 1
  16    9   21 1
  17   10   11 1
  18   10   24 1
  19   11   12 2
  20   11   14 1
  21   12   13 1
  22   14   15 2
  23   14   16 am
  24   16   17 1
  25   16   20 1
  26   17   18 1
  27   17   29 1
  28   17   30 1
  29   18   31 1
  30   18   32 1
  31   18   33 1
  32   19   20 1
  33   19   34 1
  34   19   35 1
  35   19   36 1
  36   20   37 1
  37   20   38 1
  38   21   22 1
  39   21   39 1
  40   21   40 1
  41   22   23 1
  42   22   41 1
  43   23   24 1
  44   23   42 1
  45   23   43 1
  46   24   44 1
  47   24   45 1

#	End of record

