#	Name: ASD05720017
#	Creating user name:	WinNT
#	Creation time:	15. 06. 2019 21:01

#	Modifying user name:	WinNT
#	Modification time:	15. 06. 2019 21:01

#	Program:	/corina/corina34_cracker 3.40 0067  02.08.2006

@<TRIPOS>MOLECULE
ASD05720017
  70   74    0    0    0
SMALL
NO_CHARGES


@<TRIPOS>ATOM
   1 O1            -0.1051     1.1934     0.1307 O.3     
   2 C2             0.0754    -0.1221    -0.0314 C.2     
   3 N3             1.3620    -0.4855    -0.1221 N.am    
   4 C4             2.2047     0.7150    -0.0116 C.3     
   5 C5             1.1895     1.8612     0.1615 C.3     
   6 O6            -0.8433    -0.9150    -0.0902 O.2     
   7 C7             3.0272     0.9135    -1.2864 C.3     
   8 C8             2.0855     1.0575    -2.4837 C.3     
   9 C9             3.8786     2.1776    -1.1523 C.3     
  10 C10            3.5733    -3.2497    -0.6450 C.2     
  11 N11            3.1115    -2.0063    -0.4803 N.2     
  12 C12            1.8244    -1.7839    -0.2919 C.2     
  13 C13            0.9186    -2.8638    -0.2625 C.2     
  14 C14            1.3824    -4.1232    -0.4288 C.2     
  15 N15            2.7213    -4.3220    -0.6220 N.pl3   
  16 N16            3.4814    -5.4803    -0.8194 N.2     
  17 C17            4.7423    -5.1519    -0.9587 C.2     
  18 C18            4.8601    -3.7599    -0.8631 C.2     
  19 C19            6.1100    -2.9745    -0.9707 C.ar    
  20 C20            7.2277    -3.3342    -0.2156 C.ar    
  21 C21            8.3912    -2.6027    -0.3168 C.ar    
  22 C22            8.4515    -1.5025    -1.1742 C.ar    
  23 C23            7.3347    -1.1437    -1.9282 C.ar    
  24 C24            6.1732    -1.8774    -1.8316 C.ar    
  25 N25           11.2040     0.7673    -1.8446 N.pl3   
  26 N26            9.8833     0.3371    -2.0515 N.2     
  27 C27            9.7034    -0.7150    -1.2827 C.2     
  28 N28           10.8391    -0.9571    -0.6137 N.2     
  29 C29           11.7437    -0.0738    -0.9443 C.2     
  30 C30           11.8660     1.9049    -2.4878 C.3     
  31 O31           13.2081     2.0086    -2.0081 O.3     
  32 C32           13.9462     3.0925    -2.5759 C.3     
  33 C33           15.3609     3.1067    -1.9933 C.3     
  34 Si34          16.3231     4.5199    -2.7335 Si      
  35 C35           15.4710     6.1278    -2.3344 C.3     
  36 C36           18.0457     4.5371    -2.0241 C.3     
  37 C37           16.4148     4.3078    -4.5821 C.3     
  38 Cl38           9.7815    -3.0488     0.6222 Cl      
  39 H39            2.8567     0.6463     0.8591 H       
  40 H40            1.2722     2.5723    -0.6605 H       
  41 H41            1.3383     2.3623     1.1180 H       
  42 H42            3.6774     0.0517    -1.4371 H       
  43 H43            1.3797     1.8666    -2.2956 H       
  44 H44            2.6666     1.2828    -3.3779 H       
  45 H45            1.5393     0.1257    -2.6304 H       
  46 H46            3.2358     3.0252    -0.9149 H       
  47 H47            4.6089     2.0408    -0.3548 H       
  48 H48            4.3978     2.3673    -2.0918 H       
  49 H49           -0.1356    -2.6870    -0.1083 H       
  50 H50            0.7030    -4.9625    -0.4088 H       
  51 H51            5.5567    -5.8416    -1.1241 H       
  52 H52            7.1805    -4.1851     0.4478 H       
  53 H53            7.3818    -0.2923    -2.5910 H       
  54 H54            5.3100    -1.6017    -2.4192 H       
  55 H55           12.7522    -0.0273    -0.5605 H       
  56 H56           11.8765     1.7562    -3.5675 H       
  57 H57           11.3243     2.8211    -2.2524 H       
  58 H58           13.9999     2.9684    -3.6574 H       
  59 H59           13.4476     4.0333    -2.3424 H       
  60 H60           15.3072     3.2308    -0.9117 H       
  61 H61           15.8594     2.1659    -2.2268 H       
  62 H62           15.4173     6.2518    -1.2528 H       
  63 H63           16.0340     6.9546    -2.7675 H       
  64 H64           14.4632     6.1177    -2.7494 H       
  65 H65           18.5442     3.5964    -2.2577 H       
  66 H66           18.6087     5.3639    -2.4572 H       
  67 H67           17.9920     4.6612    -0.9426 H       
  68 H68           15.4070     4.2977    -4.9971 H       
  69 H69           16.9778     5.1346    -5.0152 H       
  70 H70           16.9134     3.3670    -4.8156 H       
@<TRIPOS>BOND
   1    1    2 1
   2    1    5 1
   3    2    3 am
   4    2    6 2
   5    3    4 1
   6    3   12 1
   7    4    5 1
   8    4    7 1
   9    4   39 1
  10    5   40 1
  11    5   41 1
  12    7    8 1
  13    7    9 1
  14    7   42 1
  15    8   43 1
  16    8   44 1
  17    8   45 1
  18    9   46 1
  19    9   47 1
  20    9   48 1
  21   10   11 1
  22   10   15 1
  23   10   18 2
  24   11   12 2
  25   12   13 1
  26   13   14 2
  27   13   49 1
  28   14   15 1
  29   14   50 1
  30   15   16 1
  31   16   17 2
  32   17   18 1
  33   17   51 1
  34   18   19 1
  35   19   20 ar
  36   19   24 ar
  37   20   21 ar
  38   20   52 1
  39   21   22 ar
  40   21   38 1
  41   22   23 ar
  42   22   27 1
  43   23   24 ar
  44   23   53 1
  45   24   54 1
  46   25   26 1
  47   25   29 1
  48   25   30 1
  49   26   27 2
  50   27   28 1
  51   28   29 2
  52   29   55 1
  53   30   31 1
  54   30   56 1
  55   30   57 1
  56   31   32 1
  57   32   33 1
  58   32   58 1
  59   32   59 1
  60   33   34 1
  61   33   60 1
  62   33   61 1
  63   34   35 1
  64   34   36 1
  65   34   37 1
  66   35   62 1
  67   35   63 1
  68   35   64 1
  69   36   65 1
  70   36   66 1
  71   36   67 1
  72   37   68 1
  73   37   69 1
  74   37   70 1

#	End of record

