#	Name: ASD03090908
#	Creating user name:	WinNT
#	Creation time:	15. 06. 2019 20:29

#	Modifying user name:	WinNT
#	Modification time:	15. 06. 2019 20:29

#	Program:	/corina/corina34_cracker 3.40 0067  02.08.2006

@<TRIPOS>MOLECULE
ASD03090908
  59   63    0    0    0
SMALL
NO_CHARGES


@<TRIPOS>ATOM
   1 N1             0.6648     2.3827    -0.6850 N.am    
   2 C2             0.5405     1.0407    -0.6811 C.2     
   3 O3             1.5354     0.3365    -0.6843 O.2     
   4 N4            -0.6732     0.4822    -0.6738 N.2     
   5 S5             0.4724    -2.0003    -0.8384 S.3     
   6 C6            -0.7978    -0.8402    -0.7591 C.2     
   7 N7            -1.9519    -1.5526    -0.8009 N.pl3   
   8 C8            -1.8373    -2.9066    -0.8887 C.2     
   9 C9            -0.6077    -3.4025    -0.9250 C.2     
  10 O10           -6.8960     0.9320    -0.5960 O.3     
  11 C11           -7.5849     1.1282    -1.8357 C.3     
  12 C12           -7.5209    -0.1815    -2.6332 C.3     
  13 O13           -6.1439    -0.5007    -2.8606 O.3     
  14 C14           -5.3075    -0.3990    -1.7916 C.ar    
  15 C15           -5.6819     0.3183    -0.6609 C.ar    
  16 C16           -4.0694    -1.0203    -1.8366 C.ar    
  17 C17           -3.2043    -0.9238    -0.7555 C.ar    
  18 C18           -3.5798    -0.2048     0.3709 C.ar    
  19 C19           -4.8144     0.4136     0.4169 C.ar    
  20 F20           -8.1290    -1.2085    -1.9034 F       
  21 F21           -8.1766    -0.0203    -3.8585 F       
  22 F22           -8.9199     1.4635    -1.5856 F       
  23 F23           -6.9682     2.1530    -2.5612 F       
  24 C24           -0.2122    -4.8536    -1.0196 C.3     
  25 C25            1.9898     2.9960    -0.5647 C.3     
  26 C26            2.5803     3.1896    -1.9376 C.ar    
  27 C27            2.3531     4.3658    -2.6276 C.ar    
  28 C28            2.8944     4.5446    -3.8865 C.ar    
  29 C29            3.6646     3.5452    -4.4567 C.ar    
  30 C30            3.8915     2.3676    -3.7647 C.ar    
  31 C31            3.3534     2.1931    -2.5037 C.ar    
  32 F32            4.1939     3.7188    -5.6875 F       
  33 C33           -0.5245     3.2281    -0.8156 C.3     
  34 C34           -1.2954     2.8593    -2.0952 C.3     
  35 C35           -2.6969     2.3958    -1.6471 C.3     
  36 C36           -2.8958     3.0679    -0.2659 C.3     
  37 C37           -1.4844     2.9758     0.3654 C.3     
  38 H38           -2.7065    -3.5464    -0.9269 H       
  39 H39           -3.7774    -1.5791    -2.7135 H       
  40 H40           -2.9064    -0.1287     1.2118 H       
  41 H41           -5.1045     0.9728     1.2941 H       
  42 H42            0.8748    -4.9341    -1.0279 H       
  43 H43           -0.6101    -5.3953    -0.1615 H       
  44 H44           -0.6151    -5.2809    -1.9378 H       
  45 H45            1.8992     3.9623    -0.0686 H       
  46 H46            2.6392     2.3459     0.0217 H       
  47 H47            1.7520     5.1450    -2.1828 H       
  48 H48            2.7165     5.4634    -4.4255 H       
  49 H49            4.4920     1.5874    -4.2085 H       
  50 H50            3.5337     1.2763    -1.9621 H       
  51 H51           -0.2344     4.2784    -0.8441 H       
  52 H52           -1.3802     3.7308    -2.7443 H       
  53 H53           -0.7847     2.0513    -2.6190 H       
  54 H54           -3.4553     2.7387    -2.3510 H       
  55 H55           -2.7272     1.3104    -1.5511 H       
  56 H56           -3.1996     4.1082    -0.3828 H       
  57 H57           -3.6226     2.5168     0.3308 H       
  58 H58           -1.3189     1.9841     0.7865 H       
  59 H59           -1.3579     3.7420     1.1302 H       
@<TRIPOS>BOND
   1    1    2 am
   2    1   25 1
   3    1   33 1
   4    2    3 2
   5    2    4 1
   6    4    6 2
   7    5    6 1
   8    5    9 1
   9    6    7 1
  10    7    8 1
  11    7   17 1
  12    8    9 2
  13    8   38 1
  14    9   24 1
  15   10   11 1
  16   10   15 1
  17   11   12 1
  18   11   22 1
  19   11   23 1
  20   12   13 1
  21   12   20 1
  22   12   21 1
  23   13   14 1
  24   14   15 ar
  25   14   16 ar
  26   15   19 ar
  27   16   17 ar
  28   16   39 1
  29   17   18 ar
  30   18   19 ar
  31   18   40 1
  32   19   41 1
  33   24   42 1
  34   24   43 1
  35   24   44 1
  36   25   26 1
  37   25   45 1
  38   25   46 1
  39   26   27 ar
  40   26   31 ar
  41   27   28 ar
  42   27   47 1
  43   28   29 ar
  44   28   48 1
  45   29   30 ar
  46   29   32 1
  47   30   31 ar
  48   30   49 1
  49   31   50 1
  50   33   34 1
  51   33   37 1
  52   33   51 1
  53   34   35 1
  54   34   52 1
  55   34   53 1
  56   35   36 1
  57   35   54 1
  58   35   55 1
  59   36   37 1
  60   36   56 1
  61   36   57 1
  62   37   58 1
  63   37   59 1

#	End of record

