#	Name: ASD05730106
#	Creating user name:	WinNT
#	Creation time:	15. 06. 2019 21:02

#	Modifying user name:	WinNT
#	Modification time:	15. 06. 2019 21:02

#	Program:	/corina/corina34_cracker 3.40 0067  02.08.2006

@<TRIPOS>MOLECULE
ASD05730106
  66   70    0    0    0
SMALL
NO_CHARGES


@<TRIPOS>ATOM
   1 N1            -0.0125     1.3947     0.0610 N.3     
   2 C2             0.0055    -0.0044     0.0404 C.ar    
   3 C3            -1.0324    -0.7035    -0.5619 C.ar    
   4 C4            -1.0146    -2.0839    -0.5821 C.ar    
   5 C5             0.0409    -2.7733     0.0003 C.ar    
   6 C6             1.0785    -2.0744     0.6030 C.ar    
   7 C7             1.0641    -0.6938     0.6174 C.ar    
   8 N8             0.0586    -4.1738    -0.0198 N.pl3   
   9 C9             1.2585    -4.8476    -0.1387 C.ar    
  10 N10            1.2606    -6.1684    -0.0423 N.ar    
  11 C11            2.3948    -6.8511    -0.1513 C.ar    
  12 C12            3.5950    -6.1411    -0.3715 C.ar    
  13 C13            3.5398    -4.7424    -0.4661 C.ar    
  14 N14            2.3674    -4.1473    -0.3508 N.ar    
  15 N15            2.4063    -8.2195    -0.0522 N.am    
  16 C16            3.5594    -8.9067    -0.1627 C.2     
  17 C17            4.8221    -8.2010    -0.3913 C.2     
  18 C18            4.8202    -6.8356    -0.4928 C.2     
  19 C19            1.1517    -8.9405     0.1764 C.3     
  20 C20            0.5155    -9.2963    -1.1688 C.3     
  21 O21            3.5521   -10.1214    -0.0715 O.2     
  22 C22            6.0900    -8.9578    -0.5127 C.ar    
  23 C23            6.3758    -9.6641    -1.6829 C.ar    
  24 C24            7.0057    -8.9631     0.5389 C.ar    
  25 C25            8.1849    -9.6697     0.4202 C.ar    
  26 C26            8.4610   -10.3728    -0.7391 C.ar    
  27 C27            7.5608   -10.3680    -1.7889 C.ar    
  28 C28            1.1748     1.9267     0.7442 C.3     
  29 C29            1.1574     3.4556     0.6756 C.3     
  30 N30           -0.0748     3.9573     1.2998 N.3     
  31 C31           -1.2622     3.4253     0.6166 C.3     
  32 C32           -1.2447     1.8964     0.6852 C.3     
  33 S33            9.9695   -11.2722    -0.8813 S.o     
  34 C34            9.5308   -12.9095    -0.2353 C.3     
  35 O35           10.1619   -11.3535    -2.2869 O.2     
  36 C36           -0.0937     5.4260     1.3214 C.3     
  37 F37            5.4964    -9.6599    -2.7085 F       
  38 H38           -1.8537    -0.1673    -1.0141 H       
  39 H39           -1.8218    -2.6276    -1.0505 H       
  40 H40            1.8990    -2.6106     1.0565 H       
  41 H41            1.8712    -0.1502     1.0858 H       
  42 H42           -0.7717    -4.6704     0.0497 H       
  43 H43            4.4371    -4.1653    -0.6341 H       
  44 H44            5.7411    -6.2972    -0.6617 H       
  45 H45            1.3543    -9.8541     0.7354 H       
  46 H46            0.4688    -8.3100     0.7458 H       
  47 H47            0.3128    -8.3828    -1.7278 H       
  48 H48            1.1983    -9.9269    -1.7382 H       
  49 H49           -0.4180    -9.8328    -0.9987 H       
  50 H50            6.7925    -8.4148     1.4445 H       
  51 H51            8.8945    -9.6738     1.2344 H       
  52 H52            7.7820   -10.9186    -2.6912 H       
  53 H53            1.1672     1.6093     1.7869 H       
  54 H54            2.0741     1.5510     0.2560 H       
  55 H55            2.0221     3.8533     1.2067 H       
  56 H56            1.1925     3.7733    -0.3665 H       
  57 H57           -2.1615     3.8009     1.1048 H       
  58 H58           -1.2545     3.7426    -0.4261 H       
  59 H59           -2.1095     1.4987     0.1540 H       
  60 H60           -1.2799     1.5787     1.7273 H       
  61 H61            8.7302   -13.3360    -0.8397 H       
  62 H62           10.4033   -13.5617    -0.2755 H       
  63 H63            9.1953   -12.8147     0.7974 H       
  64 H64           -0.0395     5.8051     0.3008 H       
  65 H65           -1.0163     5.7707     1.7885 H       
  66 H66            0.7606     5.7920     1.8908 H       
@<TRIPOS>BOND
   1    1    2 1
   2    1   28 1
   3    1   32 1
   4    2    3 ar
   5    2    7 ar
   6    3    4 ar
   7    3   38 1
   8    4    5 ar
   9    4   39 1
  10    5    6 ar
  11    5    8 1
  12    6    7 ar
  13    6   40 1
  14    7   41 1
  15    8    9 1
  16    8   42 1
  17    9   10 ar
  18    9   14 ar
  19   10   11 ar
  20   11   12 ar
  21   11   15 1
  22   12   13 ar
  23   12   18 1
  24   13   14 ar
  25   13   43 1
  26   15   16 am
  27   15   19 1
  28   16   17 1
  29   16   21 2
  30   17   18 2
  31   17   22 1
  32   18   44 1
  33   19   20 1
  34   19   45 1
  35   19   46 1
  36   20   47 1
  37   20   48 1
  38   20   49 1
  39   22   24 ar
  40   22   23 ar
  41   23   37 1
  42   23   27 ar
  43   24   25 ar
  44   24   50 1
  45   25   26 ar
  46   25   51 1
  47   26   27 ar
  48   26   33 1
  49   27   52 1
  50   28   29 1
  51   28   53 1
  52   28   54 1
  53   29   30 1
  54   29   55 1
  55   29   56 1
  56   30   31 1
  57   30   36 1
  58   31   32 1
  59   31   57 1
  60   31   58 1
  61   32   59 1
  62   32   60 1
  63   33   34 1
  64   33   35 2
  65   34   61 1
  66   34   62 1
  67   34   63 1
  68   36   64 1
  69   36   65 1
  70   36   66 1

#	End of record

