#	Name: ASD07932196
#	Creating user name:	WinNT
#	Creation time:	15. 06. 2019 21:14

#	Modifying user name:	WinNT
#	Modification time:	15. 06. 2019 21:14

#	Program:	/corina/corina34_cracker 3.40 0067  02.08.2006

@<TRIPOS>MOLECULE
ASD07932196
  69   71    0    0    0
SMALL
NO_CHARGES


@<TRIPOS>ATOM
   1 Cl1            0.0000     0.0000     0.0000 Cl      
   2 H2             0.0000     1.3700     0.0000 H       
   3 Cl3            5.0000     6.3700     5.0000 Cl      
   4 H4             5.0000     7.7400     5.0000 H       
   5 C5            10.9496    19.7472    13.0849 C.ar    
   6 C6            10.9798    18.3544    13.0813 C.ar    
   7 C7            12.1600    17.6795    12.9993 C.ar    
   8 C8            13.3654    18.3938    12.9166 C.ar    
   9 C9            13.3407    19.8130    12.9193 C.ar    
  10 C10           12.0986    20.4754    13.0061 C.ar    
  11 C11           14.6039    17.7298    12.8312 C.ar    
  12 C12           15.7377    18.4854    12.7538 C.ar    
  13 C13           15.6448    19.8855    12.7611 C.ar    
  14 N14           14.4801    20.4988    12.8420 N.ar    
  15 C15           16.8845    20.6939    12.6769 C.2     
  16 N16           16.8131    22.0397    12.6827 N.am    
  17 O17           17.9651    20.1431    12.6028 O.2     
  18 C18           18.0383    22.8386    12.5996 C.3     
  19 C19           17.7951    24.2122    13.2282 C.3     
  20 C20           19.0747    25.0465    13.1413 C.3     
  21 C21           19.4716    25.2203    11.6740 C.3     
  22 C22           19.7148    23.8467    11.0454 C.3     
  23 C23           18.4353    23.0123    11.1322 C.3     
  24 O24           17.4244    24.0499    14.5987 O.3     
  25 C25           14.6757    16.2245    12.8257 C.3     
  26 N26           14.4667    15.7193    14.1892 N.3     
  27 C27           14.1643    14.2824    14.1775 C.3     
  28 C28           13.8105    13.8226    15.5936 C.3     
  29 C29           14.9904    14.1073    16.5271 C.3     
  30 C30           15.3159    15.6029    16.4840 C.3     
  31 C31           15.6260    16.0111    15.0420 C.3     
  32 C32           14.6256    13.7118    17.9348 C.ar    
  33 F33           12.0482    21.8255    13.0106 F       
  34 C34           15.6079    13.5779    18.9037 C.ar    
  35 N35           13.3629    13.4928    18.2640 N.ar    
  36 C36           13.0357    13.1465    19.4929 C.ar    
  37 N37           13.9428    13.0045    20.4383 N.ar    
  38 C38           15.2250    13.2122    20.1844 C.ar    
  39 C39           16.1638    13.3356    16.0863 C.1     
  40 N40           17.0693    12.7400    15.7462 N.1     
  41 H41           10.0000    20.2579    13.1467 H       
  42 H42           10.0541    17.8018    13.1449 H       
  43 H43           12.1684    16.5996    12.9983 H       
  44 H44           16.7038    18.0072    12.6875 H       
  45 H45           15.9505    22.4794    12.7420 H       
  46 H46           18.8403    22.3308    13.1353 H       
  47 H47           16.9931    24.7201    12.6925 H       
  48 H48           18.9014    26.0251    13.5891 H       
  49 H49           19.8767    24.5387    13.6770 H       
  50 H50           18.6696    25.7281    11.1383 H       
  51 H51           20.3832    25.8147    11.6121 H       
  52 H52           19.9976    23.9705    10.0000 H       
  53 H53           20.5168    23.3388    11.5811 H       
  54 H54           18.6085    22.0338    10.6844 H       
  55 H55           17.6333    23.5202    10.5965 H       
  56 H56           17.2544    24.8819    15.0613 H       
  57 H57           13.9030    15.8262    12.1682 H       
  58 H58           15.6556    15.9088    12.4676 H       
  59 H59           13.3209    14.0942    13.5132 H       
  60 H60           15.0353    13.7309    13.8236 H       
  61 H61           12.9312    14.3639    15.9429 H       
  62 H62           13.6013    12.7529    15.5873 H       
  63 H63           14.4603    16.1722    16.8473 H       
  64 H64           16.1822    15.8051    17.1138 H       
  65 H65           16.4902    15.4514    14.6840 H       
  66 H66           15.8443    17.0784    15.0056 H       
  67 H67           16.6466    13.7540    18.6662 H       
  68 H68           11.9965    12.9748    19.7316 H       
  69 H69           15.9633    13.0942    20.9637 H       
@<TRIPOS>BOND
   1    1    2 1
   2    3    4 1
   3    5    6 ar
   4    5   10 ar
   5    5   41 1
   6    6    7 ar
   7    6   42 1
   8    7    8 ar
   9    7   43 1
  10    8    9 ar
  11    8   11 ar
  12    9   10 ar
  13    9   14 ar
  14   10   33 1
  15   11   12 ar
  16   11   25 1
  17   12   13 ar
  18   12   44 1
  19   13   14 ar
  20   13   15 1
  21   15   16 am
  22   15   17 2
  23   16   18 1
  24   16   45 1
  25   18   19 1
  26   18   23 1
  27   18   46 1
  28   19   20 1
  29   19   24 1
  30   19   47 1
  31   20   21 1
  32   20   48 1
  33   20   49 1
  34   21   22 1
  35   21   50 1
  36   21   51 1
  37   22   23 1
  38   22   52 1
  39   22   53 1
  40   23   54 1
  41   23   55 1
  42   24   56 1
  43   25   26 1
  44   25   57 1
  45   25   58 1
  46   26   27 1
  47   26   31 1
  48   27   28 1
  49   27   59 1
  50   27   60 1
  51   28   29 1
  52   28   61 1
  53   28   62 1
  54   29   30 1
  55   29   32 1
  56   29   39 1
  57   30   31 1
  58   30   63 1
  59   30   64 1
  60   31   65 1
  61   31   66 1
  62   32   34 ar
  63   32   35 ar
  64   34   38 ar
  65   34   67 1
  66   35   36 ar
  67   36   37 ar
  68   36   68 1
  69   37   38 ar
  70   38   69 1
  71   39   40 3

#	End of record

