#	Name: ASD01209269
#	Creating user name:	WinNT
#	Creation time:	15. 06. 2019 19:11

#	Modifying user name:	WinNT
#	Modification time:	15. 06. 2019 19:11

#	Program:	/corina/corina34_cracker 3.40 0067  02.08.2006

@<TRIPOS>MOLECULE
ASD01209269
  47   48    0    0    0
SMALL
NO_CHARGES


@<TRIPOS>ATOM
   1 O1             0.2386     1.4221    -0.2044 O.3     
   2 O2             2.5464     2.1122     0.8492 O.3     
   3 C3            -1.1414    12.1033    -0.7475 C.ar    
   4 C4            -0.3260    13.0665    -0.1802 C.ar    
   5 C5             0.8261    12.6982     0.4916 C.ar    
   6 C6             1.1687    11.3663     0.6008 C.ar    
   7 C7             0.3505    10.3895     0.0308 C.ar    
   8 C8            -0.8132    10.7677    -0.6412 C.ar    
   9 C9             0.7116     8.9606     0.1434 C.2     
  10 N10           -0.0805     8.0199    -0.4081 N.am    
  11 O11            1.7229     8.6340     0.7334 O.2     
  12 C12            0.3131     6.6836    -0.3962 C.ar    
  13 P13            1.5343     2.3619    -0.3778 P.3     
  14 O14            2.2134     2.0358    -1.6517 O.2     
  15 C15            3.2092     0.8656     1.0701 C.3     
  16 C16            4.0925     0.9712     2.3149 C.3     
  17 C17            0.2991    -0.0046    -0.2584 C.3     
  18 C18           -1.1031    -0.5825    -0.0571 C.3     
  19 N19            1.5080     6.3466     0.0700 N.ar    
  20 C20            1.8782     5.0774     0.0797 C.ar    
  21 C21            1.0215     4.1018    -0.3941 C.ar    
  22 N22           -0.1710     4.4335    -0.8599 N.ar    
  23 C23           -0.5495     5.6976    -0.8684 C.ar    
  24 C24            1.7084    13.7542     1.1059 C.3     
  25 F25            1.2985    13.9971     2.4213 F       
  26 F26            3.0355    13.3113     1.1054 F       
  27 F27            1.6105    14.9346     0.3614 F       
  28 C28           -2.3940    12.5139    -1.4778 C.3     
  29 F29           -2.0982    12.7250    -2.8288 F       
  30 F30           -3.3535    11.5023    -1.3631 F       
  31 F31           -2.8932    13.6956    -0.9196 F       
  32 H32           -0.5898    14.1106    -0.2625 H       
  33 H33            2.0686    11.0802     1.1249 H       
  34 H34           -1.4505    10.0168    -1.0845 H       
  35 H35           -0.9246     8.2733    -0.8133 H       
  36 H36            2.4673     0.0807     1.2166 H       
  37 H37            3.8273     0.6245     0.2053 H       
  38 H38            4.8344     1.7562     2.1684 H       
  39 H39            3.4743     1.2123     3.1797 H       
  40 H40            4.5980     0.0204     2.4834 H       
  41 H41            0.6842    -0.3154    -1.2296 H       
  42 H42            0.9592    -0.3703     0.5281 H       
  43 H43           -1.0570    -1.6708    -0.0983 H       
  44 H44           -1.4882    -0.2717     0.9141 H       
  45 H45           -1.7632    -0.2168    -0.8436 H       
  46 H46            2.8514     4.8025     0.4589 H       
  47 H47           -1.5236     5.9680    -1.2485 H       
@<TRIPOS>BOND
   1    1   17 1
   2    1   13 1
   3    2   15 1
   4    2   13 1
   5    3    4 ar
   6    3   28 1
   7    3    8 ar
   8    4    5 ar
   9    4   32 1
  10    5    6 ar
  11    5   24 1
  12    6    7 ar
  13    6   33 1
  14    7    8 ar
  15    7    9 1
  16    8   34 1
  17    9   10 am
  18    9   11 2
  19   10   12 1
  20   10   35 1
  21   12   19 ar
  22   12   23 ar
  23   13   14 2
  24   13   21 1
  25   15   16 1
  26   15   36 1
  27   15   37 1
  28   16   38 1
  29   16   39 1
  30   16   40 1
  31   17   18 1
  32   17   41 1
  33   17   42 1
  34   18   43 1
  35   18   44 1
  36   18   45 1
  37   19   20 ar
  38   20   21 ar
  39   20   46 1
  40   21   22 ar
  41   22   23 ar
  42   23   47 1
  43   24   25 1
  44   24   26 1
  45   24   27 1
  46   28   29 1
  47   28   30 1
  48   28   31 1

#	End of record

