#	Name: ASD04910476
#	Creating user name:	WinNT
#	Creation time:	15. 06. 2019 20:56

#	Modifying user name:	WinNT
#	Modification time:	15. 06. 2019 20:56

#	Program:	/corina/corina34_cracker 3.40 0067  02.08.2006

@<TRIPOS>MOLECULE
ASD04910476
  65   67    0    0    0
SMALL
NO_CHARGES


@<TRIPOS>ATOM
   1 C1             0.9969     1.3911     1.1659 C.2     
   2 C2             0.9376    -0.1100     1.0462 C.3     
   3 C3             2.3438    -0.6573     0.7932 C.3     
   4 O4             2.0552     1.9643     1.0598 O.2     
   5 O5            -0.1269     2.0918     1.3849 O.3     
   6 C6             3.4138    -2.8196     0.4515 C.2     
   7 C7             3.3557    -4.2923     0.3340 C.ar    
   8 C8             4.5215    -5.0233     0.1006 C.ar    
   9 C9             4.4604    -6.3973    -0.0074 C.ar    
  10 C10            3.2469    -7.0506     0.1146 C.ar    
  11 C11            2.0875    -6.3319     0.3460 C.ar    
  12 C12            2.1356    -4.9580     0.4619 C.ar    
  13 O13            4.4785    -2.2430     0.3447 O.2     
  14 N14            2.2862    -2.1166     0.6769 N.am    
  15 C15            3.1876    -8.5517    -0.0056 C.3     
  16 C16            3.1254    -9.1730     1.3912 C.3     
  17 C17            3.1909   -10.6972     1.2747 C.3     
  18 C18            3.1288   -11.3186     2.6714 C.3     
  19 O19            2.0231    -8.9247    -0.7451 O.3     
  20 C20            2.1217   -10.0244    -1.5380 C.ar    
  21 C21            1.0118   -10.4768    -2.2363 C.ar    
  22 C22            1.1124   -11.5972    -3.0440 C.ar    
  23 C23            2.3290   -12.2675    -3.1532 C.ar    
  24 C24            3.4357   -11.8113    -2.4531 C.ar    
  25 C25            3.3336   -10.6898    -1.6525 C.ar    
  26 N26            2.4342   -13.4039    -3.9709 N.pl3   
  27 N27            3.4464   -13.6559    -4.9060 N.2     
  28 C28            3.2033   -14.8118    -5.4707 C.2     
  29 C29            2.0305   -15.3326    -4.9145 C.2     
  30 C30            1.5801   -14.4513    -3.9909 C.2     
  31 C31            1.3855   -16.6460    -5.2751 C.3     
  32 F32            2.1434   -17.2816    -6.2645 F       
  33 F33            1.3223   -17.4616    -4.1402 F       
  34 F34            0.0922   -16.4142    -5.7554 F       
  35 C35            4.7520   -12.5357    -2.5700 C.3     
  36 O36            0.0259   -12.0425    -3.7289 O.3     
  37 C37           -1.1883   -11.3063    -3.5689 C.3     
  38 H38            0.5439    -0.5329     1.9704 H       
  39 H39            0.2867    -0.3828     0.2155 H       
  40 H40            2.7375    -0.2344    -0.1310 H       
  41 H41            2.9948    -0.3845     1.6239 H       
  42 H42           -0.0389     3.0522     1.4543 H       
  43 H43            5.4693    -4.5145     0.0045 H       
  44 H44            5.3618    -6.9642    -0.1880 H       
  45 H45            1.1434    -6.8478     0.4403 H       
  46 H46            1.2306    -4.3985     0.6469 H       
  47 H47            1.4366    -2.5767     0.7621 H       
  48 H48            4.0772    -8.9101    -0.5235 H       
  49 H49            3.9676    -8.8175     1.9848 H       
  50 H50            2.1923    -8.8855     1.8756 H       
  51 H51            2.3488   -11.0527     0.6810 H       
  52 H52            4.1241   -10.9848     0.7902 H       
  53 H53            3.1754   -12.4044     2.5884 H       
  54 H54            3.9709   -10.9630     3.2651 H       
  55 H55            2.1956   -11.0310     3.1558 H       
  56 H56            0.0698    -9.9558    -2.1498 H       
  57 H57            4.1976   -10.3333    -1.1114 H       
  58 H58            3.8047   -15.2819    -6.2347 H       
  59 H59            0.6955   -14.5636    -3.3816 H       
  60 H60            5.3522   -12.0745    -3.3543 H       
  61 H61            5.2854   -12.4755    -1.6213 H       
  62 H62            4.5704   -13.5813    -2.8189 H       
  63 H63           -1.9740   -11.7667    -4.1679 H       
  64 H64           -1.4812   -11.3122    -2.5190 H       
  65 H65           -1.0360   -10.2783    -3.8977 H       
@<TRIPOS>BOND
   1    1    2 1
   2    1    4 2
   3    1    5 1
   4    2    3 1
   5    2   38 1
   6    2   39 1
   7    3   14 1
   8    3   40 1
   9    3   41 1
  10    5   42 1
  11    6    7 1
  12    6   13 2
  13    6   14 am
  14    7    8 ar
  15    7   12 ar
  16    8    9 ar
  17    8   43 1
  18    9   10 ar
  19    9   44 1
  20   10   11 ar
  21   10   15 1
  22   11   12 ar
  23   11   45 1
  24   12   46 1
  25   14   47 1
  26   15   16 1
  27   15   19 1
  28   15   48 1
  29   16   17 1
  30   16   49 1
  31   16   50 1
  32   17   18 1
  33   17   51 1
  34   17   52 1
  35   18   53 1
  36   18   54 1
  37   18   55 1
  38   19   20 1
  39   20   21 ar
  40   20   25 ar
  41   21   22 ar
  42   21   56 1
  43   22   23 ar
  44   22   36 1
  45   23   24 ar
  46   23   26 1
  47   24   25 ar
  48   24   35 1
  49   25   57 1
  50   26   27 1
  51   26   30 1
  52   27   28 2
  53   28   29 1
  54   28   58 1
  55   29   30 2
  56   29   31 1
  57   30   59 1
  58   31   32 1
  59   31   33 1
  60   31   34 1
  61   35   60 1
  62   35   61 1
  63   35   62 1
  64   36   37 1
  65   37   63 1
  66   37   64 1
  67   37   65 1

#	End of record

