#	Name: ASD01816020
#	Creating user name:	WinNT
#	Creation time:	15. 06. 2019 19:34

#	Modifying user name:	WinNT
#	Modification time:	15. 06. 2019 19:34

#	Program:	/corina/corina34_cracker 3.40 0067  02.08.2006

@<TRIPOS>MOLECULE
ASD01816020
  45   50    0    0    0
SMALL
NO_CHARGES


@<TRIPOS>ATOM
   1 C1            -0.0167     1.3813     0.0096 C.ar    
   2 C2             0.0021    -0.0041     0.0020 C.ar    
   3 C3             1.1984    -0.6908    -0.0126 C.ar    
   4 C4             2.4014     0.0060    -0.0203 C.ar    
   5 C5             2.3791     1.4105    -0.0130 C.ar    
   6 C6             1.1663     2.0916     0.0022 C.ar    
   7 N7             3.6065    -0.6779    -0.0345 N.pl3   
   8 C8             4.7993    -0.0573    -0.0420 C.2     
   9 C9             4.9004     1.3119    -0.0365 C.2     
  10 C10            3.6668     2.1305    -0.0214 C.2     
  11 C11            5.9968     2.2757    -0.0420 C.2     
  12 N12            5.4232     3.4983    -0.0314 N.am    
  13 N13            4.0310     3.3809    -0.0192 N.2     
  14 C14            6.1240     4.7110    -0.0326 C.ar    
  15 O15            7.1913     2.0267    -0.0534 O.2     
  16 C16            3.5810    -2.0749    -0.0408 C.ar    
  17 C17            6.5519     5.2664    -1.2310 C.ar    
  18 C18            7.2423     6.4627    -1.2291 C.ar    
  19 C19            7.5087     7.1082    -0.0354 C.ar    
  20 C20            7.0852     6.5592     1.1608 C.ar    
  21 C21            6.3879     5.3648     1.1662 C.ar    
  22 F22            5.9736     4.8283     2.3349 F       
  23 C23            3.5574    -2.7660    -1.2391 C.ar    
  24 C24            3.5322    -4.1528    -1.2466 C.ar    
  25 C25            3.5301    -4.8636    -0.0664 C.ar    
  26 C26            3.5536    -4.1918     1.1526 C.ar    
  27 C27            3.5851    -2.7869     1.1673 C.ar    
  28 N28            3.5581    -4.6119     2.4640 N.pl3   
  29 C29            3.5860    -3.5280     3.2994 C.2     
  30 C30            3.6041    -2.3957     2.5780 C.2     
  31 H31           -0.9602     1.9069     0.0169 H       
  32 H32           -0.9288    -0.5516     0.0079 H       
  33 H33            1.2005    -1.7708    -0.0177 H       
  34 H34            1.1506     3.1715     0.0077 H       
  35 H35            5.7013    -0.6513    -0.0523 H       
  36 H36            6.3453     4.7632    -2.1640 H       
  37 H37            7.5751     6.8945    -2.1614 H       
  38 H38            8.0491     8.0433    -0.0376 H       
  39 H39            7.2951     7.0657     2.0913 H       
  40 H40            3.5583    -2.2233    -2.1729 H       
  41 H41            3.5135    -4.6814    -2.1882 H       
  42 H42            3.5100    -5.9433    -0.0869 H       
  43 H43            3.5437    -5.5379     2.7527 H       
  44 H44            3.5952    -3.5764     4.3783 H       
  45 H45            3.6274    -1.3877     2.9649 H       
@<TRIPOS>BOND
   1    1    2 ar
   2    1    6 ar
   3    1   31 1
   4    2    3 ar
   5    2   32 1
   6    3    4 ar
   7    3   33 1
   8    4    5 ar
   9    4    7 1
  10    5    6 ar
  11    5   10 1
  12    6   34 1
  13    7    8 1
  14    7   16 1
  15    8    9 2
  16    8   35 1
  17    9   10 1
  18    9   11 1
  19   10   13 2
  20   11   12 am
  21   11   15 2
  22   12   13 1
  23   12   14 1
  24   14   17 ar
  25   14   21 ar
  26   16   23 ar
  27   16   27 ar
  28   17   18 ar
  29   17   36 1
  30   18   19 ar
  31   18   37 1
  32   19   20 ar
  33   19   38 1
  34   20   21 ar
  35   20   39 1
  36   21   22 1
  37   23   24 ar
  38   23   40 1
  39   24   25 ar
  40   24   41 1
  41   25   26 ar
  42   25   42 1
  43   26   27 ar
  44   26   28 1
  45   27   30 1
  46   28   29 1
  47   28   43 1
  48   29   30 2
  49   29   44 1
  50   30   45 1

#	End of record

