#	Name: ASD01410631
#	Creating user name:	WinNT
#	Creation time:	15. 06. 2019 19:18

#	Modifying user name:	WinNT
#	Modification time:	15. 06. 2019 19:18

#	Program:	/corina/corina34_cracker 3.40 0067  02.08.2006

@<TRIPOS>MOLECULE
ASD01410631
  54   56    0    0    0
SMALL
NO_CHARGES


@<TRIPOS>ATOM
   1 C1             1.7750     3.6532     2.8559 C.ar    
   2 C2             2.4792     3.2174     3.9697 C.ar    
   3 C3             3.6077     2.4410     3.7944 C.ar    
   4 N4             4.0209     2.1119     2.5855 N.ar    
   5 C5             3.3768     2.5080     1.4999 C.ar    
   6 C6             2.2338     3.2907     1.6014 C.ar    
   7 O7             3.8369     2.1462     0.2760 O.3     
   8 C8             5.0108     1.4631     0.2117 C.ar    
   9 C9             5.0856     0.1666     0.7067 C.ar    
  10 C10            6.2721    -0.5358     0.6464 C.ar    
  11 C11            7.4011     0.0496     0.0898 C.ar    
  12 C12            7.3321     1.3586    -0.4117 C.ar    
  13 C13            6.1248     2.0589    -0.3510 C.ar    
  14 N14            8.5985    -0.6597     0.0297 N.am    
  15 C15            8.9159    -1.3531    -1.0815 C.2     
  16 C16            9.5128    -0.6518     1.1744 C.3     
  17 O17            9.9239    -2.0316    -1.1072 O.2     
  18 C18            8.0366    -1.2883    -2.2711 C.ar    
  19 N19            6.9984    -0.4606    -2.2777 N.ar    
  20 C20            6.1934    -0.3720    -3.3134 C.ar    
  21 C21            6.4016    -1.1463    -4.4454 C.ar    
  22 C22            7.4748    -2.0243    -4.4802 C.ar    
  23 C23            8.3092    -2.0921    -3.3759 C.ar    
  24 Br24           5.2336    -1.0067    -5.9260 Br      
  25 C25           10.8832    -0.1373     0.7290 C.3     
  26 C26            9.6552    -2.0728     1.7232 C.3     
  27 O27            8.3996    -2.5088     2.2480 O.3     
  28 C28            8.4233    -3.8314     2.7886 C.3     
  29 C29            1.5033     3.7395     0.3620 C.3     
  30 F30            0.3941     4.5097     0.7277 F       
  31 F31            2.3616     4.5063    -0.4333 F       
  32 F32            1.0760     2.6193    -0.3589 F       
  33 C33            8.5252     1.9887    -1.0045 C.2     
  34 O34            9.5460     1.3447    -1.1452 O.2     
  35 O35            8.4842     3.2792    -1.3905 O.3     
  36 H36            0.8868     4.2578     2.9658 H       
  37 H37            2.1482     3.4829     4.9629 H       
  38 H38            4.1592     2.0993     4.6578 H       
  39 H39            4.2105    -0.2937     1.1411 H       
  40 H40            6.3224    -1.5428     1.0334 H       
  41 H41            6.0639     3.0665    -0.7349 H       
  42 H42            9.1153     0.0000     1.9524 H       
  43 H43            5.3587     0.3125    -3.2823 H       
  44 H44            7.6582    -2.6382    -5.3496 H       
  45 H45            9.1542    -2.7646    -3.3687 H       
  46 H46           10.8054     0.9154     0.4575 H       
  47 H47           11.5965    -0.2503     1.5454 H       
  48 H48           11.2238    -0.7107    -0.1331 H       
  49 H49            9.9661    -2.7425     0.9213 H       
  50 H50           10.4035    -2.0830     2.5156 H       
  51 H51            9.1461    -3.8780     3.6032 H       
  52 H52            7.4334    -4.0874     3.1662 H       
  53 H53            8.7086    -4.5376     2.0089 H       
  54 H54            9.2914     3.6486    -1.7739 H       
@<TRIPOS>BOND
   1    1    2 ar
   2    1    6 ar
   3    1   36 1
   4    2    3 ar
   5    2   37 1
   6    3    4 ar
   7    3   38 1
   8    4    5 ar
   9    5    6 ar
  10    5    7 1
  11    6   29 1
  12    7    8 1
  13    8    9 ar
  14    8   13 ar
  15    9   10 ar
  16    9   39 1
  17   10   11 ar
  18   10   40 1
  19   11   12 ar
  20   11   14 1
  21   12   13 ar
  22   12   33 1
  23   13   41 1
  24   14   15 am
  25   14   16 1
  26   15   17 2
  27   15   18 1
  28   16   25 1
  29   16   26 1
  30   16   42 1
  31   18   19 ar
  32   18   23 ar
  33   19   20 ar
  34   20   21 ar
  35   20   43 1
  36   21   22 ar
  37   21   24 1
  38   22   23 ar
  39   22   44 1
  40   23   45 1
  41   25   46 1
  42   25   47 1
  43   25   48 1
  44   26   27 1
  45   26   49 1
  46   26   50 1
  47   27   28 1
  48   28   51 1
  49   28   52 1
  50   28   53 1
  51   29   30 1
  52   29   31 1
  53   29   32 1
  54   33   34 2
  55   33   35 1
  56   35   54 1

#	End of record

