#	Name: ASD01028500
#	Creating user name:	WinNT
#	Creation time:	15. 06. 2019 18:57

#	Modifying user name:	WinNT
#	Modification time:	15. 06. 2019 18:57

#	Program:	/corina/corina34_cracker 3.40 0067  02.08.2006

@<TRIPOS>MOLECULE
ASD01028500
  32   35    0    0    0
SMALL
NO_CHARGES


@<TRIPOS>ATOM
   1 C1            -0.0171     1.4129     0.0098 C.ar    
   2 C2             0.0021    -0.0041     0.0020 C.ar    
   3 C3             1.1937     2.1233     0.0021 C.ar    
   4 C4             2.3731     1.4427    -0.0129 C.ar    
   5 C5             2.3944     0.0497    -0.0206 C.ar    
   6 C6             1.2395    -0.6705    -0.0139 C.ar    
   7 C7             4.1192     2.4536     1.3961 C.2     
   8 N8             4.9137     1.6397     2.1427 N.pl3   
   9 C9             5.0539     2.2631     3.3582 C.2     
  10 N10            4.3608     3.3885     3.2940 N.2     
  11 N11            3.8187     3.4928     2.1316 N.2     
  12 C12            5.5225     0.4422     1.9053 C.2     
  13 C13            6.2713    -0.1474     2.8620 C.2     
  14 C14            6.4328     0.4666     4.1166 C.2     
  15 C15            5.8325     1.6614     4.3655 C.2     
  16 N16           -1.1484    -0.6849     0.0103 N.ar    
  17 C17           -2.3050    -0.0683     0.0256 C.ar    
  18 C18           -2.3946     1.3222     0.0339 C.ar    
  19 C19           -1.2574     2.0785     0.0311 C.ar    
  20 Br20           7.1063    -1.8077     2.5128 Br      
  21 C21            3.6723     2.2063    -0.0217 C.3     
  22 H22            1.1899     3.2032     0.0076 H       
  23 H23            3.3427    -0.4671    -0.0325 H       
  24 H24            1.2738    -1.7499    -0.0200 H       
  25 H25            5.4046    -0.0380     0.9452 H       
  26 H26            7.0323    -0.0082     4.8792 H       
  27 H27            5.9497     2.1420     5.3255 H       
  28 H28           -3.2127    -0.6535     0.0315 H       
  29 H29           -3.3624     1.8014     0.0461 H       
  30 H30           -1.3083     3.1573     0.0374 H       
  31 H31            4.4314     1.6258    -0.5459 H       
  32 H32            3.5295     3.1603    -0.5293 H       
@<TRIPOS>BOND
   1    1    2 ar
   2    1    3 ar
   3    1   19 ar
   4    2   16 ar
   5    2    6 ar
   6    3    4 ar
   7    3   22 1
   8    4    5 ar
   9    4   21 1
  10    5    6 ar
  11    5   23 1
  12    6   24 1
  13    7    8 1
  14    7   21 1
  15    7   11 2
  16    8    9 1
  17    8   12 1
  18    9   10 2
  19    9   15 1
  20   10   11 1
  21   12   13 2
  22   12   25 1
  23   13   14 1
  24   13   20 1
  25   14   15 2
  26   14   26 1
  27   15   27 1
  28   16   17 ar
  29   17   18 ar
  30   17   28 1
  31   18   19 ar
  32   18   29 1
  33   19   30 1
  34   21   31 1
  35   21   32 1

#	End of record

