#	Name: ASD02039063
#	Creating user name:	WinNT
#	Creation time:	15. 06. 2019 20:17

#	Modifying user name:	WinNT
#	Modification time:	15. 06. 2019 20:17

#	Program:	/corina/corina34_cracker 3.40 0067  02.08.2006

@<TRIPOS>MOLECULE
ASD02039063
  50   53    0    0    0
SMALL
NO_CHARGES


@<TRIPOS>ATOM
   1 N1            -0.0154     1.2823     0.0091 N.2     
   2 N2             0.0021    -0.0041     0.0020 N.2     
   3 C3             1.2155     1.7327    -0.0002 C.2     
   4 O4             2.0320     0.6629    -0.0138 O.3     
   5 C5             1.2335    -0.4225    -0.0120 C.2     
   6 N6             1.6029     3.0599     0.0032 N.pl3   
   7 C7             1.2700     5.4636     0.0197 C.ar    
   8 C8             1.6853    -1.8601    -0.0233 C.3     
   9 O9             1.8159    -2.3078    -1.3740 O.3     
  10 C10            2.2184    -3.5929    -1.5623 C.ar    
  11 C11            2.3658    -4.0924    -2.8482 C.ar    
  12 C12            2.4871    -4.4027    -0.4688 C.ar    
  13 C13            2.9027    -5.7057    -0.6601 C.ar    
  14 C14            3.0523    -6.2061    -1.9462 C.ar    
  15 C15            2.7742    -5.3974    -3.0402 C.ar    
  16 C16            1.5695     6.0866    -1.1771 C.ar    
  17 C17            1.5883     6.0763     1.2176 C.ar    
  18 C18            2.2064     7.3124     1.2196 C.ar    
  19 C19            2.5069     7.9375     0.0225 C.ar    
  20 C20            2.1882     7.3240    -1.1769 C.ar    
  21 Cl21           3.2828     9.4905     0.0245 Cl      
  22 N22            3.4762    -7.5259    -2.1396 N.am    
  23 C23            3.8881    -7.9454    -3.3483 C.2     
  24 C24            4.0223    -6.9750    -4.4921 C.3     
  25 C25            2.8924    -5.9497    -4.4374 C.3     
  26 C26            5.3663    -6.2509    -4.3899 C.3     
  27 C27            3.9563    -7.7378    -5.8167 C.3     
  28 O28            4.1546    -9.1163    -3.5192 O.2     
  29 Cl29           2.5651     8.1067    -2.6799 Cl      
  30 C30            0.5904     4.1185     0.0191 C.3     
  31 H31            2.5452     3.2900    -0.0049 H       
  32 H32            2.6479    -1.9425     0.4815 H       
  33 H33            0.9499    -2.4762     0.4942 H       
  34 H34            2.1606    -3.4603    -3.6995 H       
  35 H35            2.3717    -4.0142     0.5323 H       
  36 H36            3.1118    -6.3358     0.1917 H       
  37 H37            1.3208     5.6073    -2.1124 H       
  38 H38            1.3535     5.5888     2.1523 H       
  39 H39            2.4544     7.7906     2.1557 H       
  40 H40            3.4730    -8.1448    -1.3927 H       
  41 H41            1.9541    -6.4288    -4.7171 H       
  42 H42            3.1056    -5.1377    -5.1327 H       
  43 H43            6.1758    -6.9794    -4.4340 H       
  44 H44            5.4642    -5.5483    -5.2174 H       
  45 H45            5.4161    -5.7091    -3.4454 H       
  46 H46            3.0004    -8.2565    -5.8900 H       
  47 H47            4.0533    -7.0361    -6.6452 H       
  48 H48            4.7680    -8.4640    -5.8587 H       
  49 H49           -0.0409     4.0308    -0.8651 H       
  50 H50           -0.0232     4.0210     0.9147 H       
@<TRIPOS>BOND
   1    1    2 1
   2    1    3 2
   3    2    5 2
   4    3    4 1
   5    3    6 1
   6    4    5 1
   7    5    8 1
   8    6   30 1
   9    6   31 1
  10    7   16 ar
  11    7   17 ar
  12    7   30 1
  13    8    9 1
  14    8   32 1
  15    8   33 1
  16    9   10 1
  17   10   11 ar
  18   10   12 ar
  19   11   15 ar
  20   11   34 1
  21   12   13 ar
  22   12   35 1
  23   13   14 ar
  24   13   36 1
  25   14   15 ar
  26   14   22 1
  27   15   25 1
  28   16   20 ar
  29   16   37 1
  30   17   18 ar
  31   17   38 1
  32   18   19 ar
  33   18   39 1
  34   19   20 ar
  35   19   21 1
  36   20   29 1
  37   22   23 am
  38   22   40 1
  39   23   24 1
  40   23   28 2
  41   24   25 1
  42   24   26 1
  43   24   27 1
  44   25   41 1
  45   25   42 1
  46   26   43 1
  47   26   44 1
  48   26   45 1
  49   27   46 1
  50   27   47 1
  51   27   48 1
  52   30   49 1
  53   30   50 1

#	End of record

