#	Name: ASD05062001
#	Creating user name:	WinNT
#	Creation time:	15. 06. 2019 20:56

#	Modifying user name:	WinNT
#	Modification time:	15. 06. 2019 20:56

#	Program:	/corina/corina34_cracker 3.40 0067  02.08.2006

@<TRIPOS>MOLECULE
ASD05062001
  73   74    0    0    0
SMALL
NO_CHARGES


@<TRIPOS>ATOM
   1 C1            -0.1539     1.2057     0.1609 C.2     
   2 C2            -0.1083    -0.1843     0.4389 C.2     
   3 C3             0.9071    -0.9357    -0.0392 C.2     
   4 O4             0.7215     1.7211    -0.5082 O.2     
   5 O5            -1.1712     1.9553     0.6338 O.3     
   6 C6             0.8568    -2.4000     0.0790 C.ar    
   7 C7             1.9626    -3.1028     0.5712 C.ar    
   8 C8             1.9094    -4.4786     0.6798 C.ar    
   9 C9             0.7558    -5.1643     0.2997 C.ar    
  10 C10           -0.3416    -4.4678    -0.1885 C.ar    
  11 C11           -0.2990    -3.0949    -0.2948 C.ar    
  12 O12            0.7060    -6.5174     0.4071 O.3     
  13 C13            0.3087    -7.0211     1.5867 C.2     
  14 O14            0.1031    -6.2824     2.5206 O.2     
  15 C15            0.1193    -8.5076     1.7460 C.3     
  16 O16            2.9819    -5.1648     1.1571 O.3     
  17 C17            3.8607    -5.6272     0.2538 C.2     
  18 O18            3.7287    -5.3493    -0.9147 O.2     
  19 C19            5.0118    -6.4930     0.6970 C.3     
  20 C20           -1.1534     3.3482     0.3153 C.3     
  21 C21           -1.9903    -1.2218     3.5817 C.2     
  22 N22            0.3801    -1.3245     3.0721 N.am    
  23 C23           -0.8747    -0.6390     2.7530 C.3     
  24 C24           -1.1928    -0.8229     1.2678 C.3     
  25 O25           -1.7609    -2.1178     4.3591 O.2     
  26 O26           -3.2390    -0.7454     3.4561 O.3     
  27 C27            1.0901    -0.9596     4.1580 C.2     
  28 C28            2.3431    -1.6441     4.4767 C.2     
  29 C29            3.0540    -1.2787     5.5640 C.2     
  30 O30            0.6888    -0.0604     4.8736 O.2     
  31 C31            4.3133    -1.9668     5.8843 C.ar    
  32 C32            5.0521    -1.5894     7.0113 C.ar    
  33 C33            6.2344    -2.2394     7.3071 C.ar    
  34 C34            6.6893    -3.2690     6.4835 C.ar    
  35 C35            5.9568    -3.6438     5.3653 C.ar    
  36 C36            4.7735    -3.0045     5.0663 C.ar    
  37 O37            7.8525    -3.9065     6.7761 O.3     
  38 C38            7.8038    -4.8618     7.7184 C.2     
  39 O39            6.7787    -5.0583     8.3270 O.2     
  40 C40            9.0277    -5.6889     8.0168 C.3     
  41 O41            6.9551    -1.8752     8.4011 O.3     
  42 C42            7.9195    -0.9594     8.2183 C.2     
  43 O43            8.0541    -0.4307     7.1402 O.2     
  44 C44            8.8342    -0.5908     9.3578 C.3     
  45 H45            1.7560    -0.4606    -0.5083 H       
  46 H46            2.8554    -2.5706     0.8648 H       
  47 H47           -1.2325    -5.0033    -0.4816 H       
  48 H48           -1.1559    -2.5553    -0.6704 H       
  49 H49            1.0617    -9.0175     1.5459 H       
  50 H50           -0.2028    -8.7259     2.7641 H       
  51 H51           -0.6379    -8.8548     1.0430 H       
  52 H52            4.7104    -7.5401     0.6699 H       
  53 H53            5.8590    -6.3413     0.0282 H       
  54 H54            5.2986    -6.2236     1.7135 H       
  55 H55           -0.2458     3.8007     0.7149 H       
  56 H56           -1.1757     3.4737    -0.7672 H       
  57 H57           -2.0250     3.8327     0.7553 H       
  58 H58            0.6999    -2.0411     2.5019 H       
  59 H59           -0.7746     0.4236     2.9743 H       
  60 H60           -2.1491    -0.3519     1.0401 H       
  61 H61           -1.2477    -1.8867     1.0370 H       
  62 H62           -3.9211    -1.1509     4.0087 H       
  63 H63            2.6991    -2.4420     3.8418 H       
  64 H64            2.6979    -0.4809     6.1989 H       
  65 H65            4.6989    -0.7918     7.6481 H       
  66 H66            6.3134    -4.4414     4.7304 H       
  67 H67            4.2036    -3.3012     4.1982 H       
  68 H68            9.6126    -5.2035     8.7981 H       
  69 H69            8.7232    -6.6799     8.3536 H       
  70 H70            9.6324    -5.7816     7.1147 H       
  71 H71            8.5624    -1.1663    10.2427 H       
  72 H72            9.8652    -0.8128     9.0825 H       
  73 H73            8.7366     0.4734     9.5724 H       
@<TRIPOS>BOND
   1    1    2 1
   2    1    4 2
   3    1    5 1
   4    2    3 2
   5    2   24 1
   6    3    6 1
   7    3   45 1
   8    5   20 1
   9    6    7 ar
  10    6   11 ar
  11    7    8 ar
  12    7   46 1
  13    8    9 ar
  14    8   16 1
  15    9   10 ar
  16    9   12 1
  17   10   11 ar
  18   10   47 1
  19   11   48 1
  20   12   13 1
  21   13   14 2
  22   13   15 1
  23   15   49 1
  24   15   50 1
  25   15   51 1
  26   16   17 1
  27   17   18 2
  28   17   19 1
  29   19   52 1
  30   19   53 1
  31   19   54 1
  32   20   55 1
  33   20   56 1
  34   20   57 1
  35   21   23 1
  36   21   25 2
  37   21   26 1
  38   22   27 am
  39   22   23 1
  40   22   58 1
  41   23   24 1
  42   23   59 1
  43   24   60 1
  44   24   61 1
  45   26   62 1
  46   27   28 1
  47   27   30 2
  48   28   29 2
  49   28   63 1
  50   29   31 1
  51   29   64 1
  52   31   32 ar
  53   31   36 ar
  54   32   33 ar
  55   32   65 1
  56   33   34 ar
  57   33   41 1
  58   34   35 ar
  59   34   37 1
  60   35   36 ar
  61   35   66 1
  62   36   67 1
  63   37   38 1
  64   38   39 2
  65   38   40 1
  66   40   68 1
  67   40   69 1
  68   40   70 1
  69   41   42 1
  70   42   43 2
  71   42   44 1
  72   44   71 1
  73   44   72 1
  74   44   73 1

#	End of record

