#	Name: ASD09610093
#	Creating user name:	WinNT
#	Creation time:	15. 06. 2019 21:22

#	Modifying user name:	WinNT
#	Modification time:	15. 06. 2019 21:22

#	Program:	/corina/corina34_cracker 3.40 0067  02.08.2006

@<TRIPOS>MOLECULE
ASD09610093
  31   31    0    0    0
SMALL
NO_CHARGES


@<TRIPOS>ATOM
   1 C1            -0.0184     1.5028     0.0103 C.2     
   2 C2             0.0021    -0.0041     0.0020 C.3     
   3 C3             1.4513    -0.4944    -0.0145 C.3     
   4 C4             1.4717    -2.0012    -0.0227 C.2     
   5 O5             1.0197     2.1211     0.0037 O.2     
   6 O6            -1.1898     2.1580     0.0194 O.3     
   7 N7             2.6479    -2.6591    -0.0375 N.am    
   8 C8             2.6678    -4.1240    -0.0456 C.3     
   9 C9             4.1170    -4.6143    -0.0620 C.3     
  10 C10            4.1374    -6.1211    -0.0703 C.ar    
  11 C11            4.1354    -6.8058    -1.2712 C.ar    
  12 C12            4.1541    -8.1880    -1.2788 C.ar    
  13 C13            4.1753    -8.8855    -0.0855 C.ar    
  14 C14            4.1783    -8.2008     1.1153 C.ar    
  15 C15            4.1639    -6.8186     1.1229 C.ar    
  16 O16            0.4298    -2.6219    -0.0161 O.2     
  17 H17           -0.4983    -0.3791     0.8948 H       
  18 H18           -0.5153    -0.3696    -0.8850 H       
  19 H19            1.9516    -0.1193    -0.9073 H       
  20 H20            1.9686    -0.1289     0.8726 H       
  21 H21           -1.1523     3.1243     0.0245 H       
  22 H22            3.4813    -2.1628    -0.0428 H       
  23 H23            2.1674    -4.4990     0.8472 H       
  24 H24            2.1504    -4.4895    -0.9326 H       
  25 H25            4.6173    -4.2392    -0.9548 H       
  26 H26            4.6343    -4.2488     0.8250 H       
  27 H27            4.1188    -6.2608    -2.2035 H       
  28 H28            4.1517    -8.7229    -2.2170 H       
  29 H29            4.1892    -9.9654    -0.0915 H       
  30 H30            4.1945    -8.7458     2.0476 H       
  31 H31            4.1700    -6.2836     2.0611 H       
@<TRIPOS>BOND
   1    1    2 1
   2    1    5 2
   3    1    6 1
   4    2    3 1
   5    2   17 1
   6    2   18 1
   7    3    4 1
   8    3   19 1
   9    3   20 1
  10    4    7 am
  11    4   16 2
  12    6   21 1
  13    7    8 1
  14    7   22 1
  15    8    9 1
  16    8   23 1
  17    8   24 1
  18    9   10 1
  19    9   25 1
  20    9   26 1
  21   10   11 ar
  22   10   15 ar
  23   11   12 ar
  24   11   27 1
  25   12   13 ar
  26   12   28 1
  27   13   14 ar
  28   13   29 1
  29   14   15 ar
  30   14   30 1
  31   15   31 1

#	End of record

