#	Name: ASD01810092
#	Creating user name:	WinNT
#	Creation time:	15. 06. 2019 19:23

#	Modifying user name:	WinNT
#	Modification time:	15. 06. 2019 19:23

#	Program:	/corina/corina34_cracker 3.40 0067  02.08.2006

@<TRIPOS>MOLECULE
ASD01810092
  61   65    0    0    0
SMALL
NO_CHARGES


@<TRIPOS>ATOM
   1 C1            -0.7185     1.9330    -0.5145 C.ar    
   2 C2            -0.8236     0.5573    -0.6361 C.ar    
   3 C3             0.3138    -0.2220    -0.7367 C.ar    
   4 C4             1.5640     0.3765    -0.7163 C.ar    
   5 C5             1.6694     1.7638    -0.5941 C.ar    
   6 C6             0.5236     2.5373    -0.4933 C.ar    
   7 N7             2.8628    -0.1203    -0.7962 N.am    
   8 C8             3.7189     0.9164    -0.7260 C.2     
   9 N9             3.0295     2.0664    -0.6037 N.am    
  10 O10            4.9318     0.8275    -0.7668 O.2     
  11 C11            3.6103     3.4073    -0.4993 C.3     
  12 C12            4.5092     3.4807     0.7381 C.3     
  13 C13            5.1605     4.8638     0.8081 C.3     
  14 N14            5.9507     5.0962    -0.4076 N.3     
  15 C15            5.1009     5.0774    -1.6050 C.3     
  16 C16            4.4478     3.7007    -1.7471 C.3     
  17 C17            6.7016     6.3554    -0.3146 C.3     
  18 C18            7.6057     6.5016    -1.5407 C.3     
  19 C19            8.4125     7.7985    -1.4236 C.3     
  20 N20            7.4821     8.9178    -1.2231 N.am    
  21 C21            6.5077     8.8387    -0.1263 C.3     
  22 C22            5.7222     7.5300    -0.2580 C.3     
  23 C23            7.5219     9.9968    -2.0297 C.2     
  24 O24            6.6802    10.8671    -1.9226 O.2     
  25 C25            8.5895    10.1218    -3.0449 C.ar    
  26 C26            8.2883    10.5904    -4.3245 C.ar    
  27 C27            9.2894    10.7051    -5.2671 C.ar    
  28 C28           10.5891    10.3565    -4.9462 C.ar    
  29 C29           10.8944     9.8913    -3.6792 C.ar    
  30 C30            9.9041     9.7772    -2.7258 C.ar    
  31 C31            8.9661    11.2109    -6.6494 C.3     
  32 Cl32          -2.3897    -0.1913    -0.6616 Cl      
  33 H33           -1.6113     2.5361    -0.4405 H       
  34 H34            0.2286    -1.2945    -0.8307 H       
  35 H35            0.6017     3.6103    -0.3991 H       
  36 H36            3.1087    -1.0543    -0.8865 H       
  37 H37            2.8119     4.1444    -0.4138 H       
  38 H38            3.9101     3.3148     1.6334 H       
  39 H39            5.2837     2.7167     0.6711 H       
  40 H40            4.3858     5.6264     0.8890 H       
  41 H41            5.8123     4.9145     1.6802 H       
  42 H42            4.3266     5.8389    -1.5128 H       
  43 H43            5.7095     5.2833    -2.4855 H       
  44 H44            5.2214     2.9401    -1.8532 H       
  45 H45            3.8049     3.6920    -2.6273 H       
  46 H46            7.3124     6.3482     0.5881 H       
  47 H47            8.2873     5.6526    -1.5934 H       
  48 H48            6.9938     6.5339    -2.4422 H       
  49 H49            9.0915     7.7310    -0.5735 H       
  50 H50            8.9837     7.9575    -2.3383 H       
  51 H51            7.0313     8.8559     0.8296 H       
  52 H52            5.8220     9.6839    -0.1850 H       
  53 H53            5.1281     7.5527    -1.1715 H       
  54 H54            5.0633     7.4131     0.6024 H       
  55 H55            7.2739    10.8622    -4.5765 H       
  56 H56           11.3689    10.4476    -5.6879 H       
  57 H57           11.9111     9.6208    -3.4350 H       
  58 H58           10.1437     9.4143    -1.7373 H       
  59 H59            9.0695    12.2957    -6.6728 H       
  60 H60            9.6524    10.7648    -7.3692 H       
  61 H61            7.9425    10.9379    -6.9060 H       
@<TRIPOS>BOND
   1    1    2 ar
   2    1    6 ar
   3    1   33 1
   4    2    3 ar
   5    2   32 1
   6    3    4 ar
   7    3   34 1
   8    4    5 ar
   9    4    7 1
  10    5    6 ar
  11    5    9 1
  12    6   35 1
  13    7    8 am
  14    7   36 1
  15    8    9 am
  16    8   10 2
  17    9   11 1
  18   11   12 1
  19   11   16 1
  20   11   37 1
  21   12   13 1
  22   12   38 1
  23   12   39 1
  24   13   14 1
  25   13   40 1
  26   13   41 1
  27   14   15 1
  28   14   17 1
  29   15   16 1
  30   15   42 1
  31   15   43 1
  32   16   44 1
  33   16   45 1
  34   17   18 1
  35   17   22 1
  36   17   46 1
  37   18   19 1
  38   18   47 1
  39   18   48 1
  40   19   20 1
  41   19   49 1
  42   19   50 1
  43   20   21 1
  44   20   23 am
  45   21   22 1
  46   21   51 1
  47   21   52 1
  48   22   53 1
  49   22   54 1
  50   23   24 2
  51   23   25 1
  52   25   26 ar
  53   25   30 ar
  54   26   27 ar
  55   26   55 1
  56   27   28 ar
  57   27   31 1
  58   28   29 ar
  59   28   56 1
  60   29   30 ar
  61   29   57 1
  62   30   58 1
  63   31   59 1
  64   31   60 1
  65   31   61 1

#	End of record

