#	Name: ASD01882465
#	Creating user name:	WinNT
#	Creation time:	15. 06. 2019 19:44

#	Modifying user name:	WinNT
#	Modification time:	15. 06. 2019 19:44

#	Program:	/corina/corina34_cracker 3.40 0067  02.08.2006

@<TRIPOS>MOLECULE
ASD01882465
  61   66    0    0    0
SMALL
NO_CHARGES


@<TRIPOS>ATOM
   1 C1            -0.2450    -0.0639    -2.2563 C.3     
   2 N2            -0.2223    -1.3339    -3.0077 N.3     
   3 C3             1.0276    -1.6700    -2.2984 C.3     
   4 C4             1.2772    -0.1688    -2.1492 C.3     
   5 C5             2.0293     0.4587    -3.3183 C.3     
   6 N6             2.0495     1.9199    -3.1550 N.3     
   7 C7             2.6985     2.3033    -1.8951 C.3     
   8 C8             1.8887     1.7690    -0.7117 C.3     
   9 C9             1.8351     0.2386    -0.7883 C.3     
  10 C10           -1.2670    -2.1722    -2.6066 C.ar    
  11 C11           -2.4768    -1.6278    -2.1958 C.ar    
  12 C12           -3.5076    -2.4578    -1.8004 C.ar    
  13 C13           -3.3354    -3.8317    -1.8134 C.ar    
  14 C14           -2.1301    -4.3766    -2.2226 C.ar    
  15 C15           -1.0983    -3.5506    -2.6238 C.ar    
  16 F16           -4.3449    -4.6416    -1.4259 F       
  17 C17            2.7003     2.5688    -4.3011 C.3     
  18 C18            2.9933     6.3356    -4.2645 C.2     
  19 C19            3.3390     4.9706    -4.2528 C.2     
  20 C20            2.3532     4.0353    -4.3118 C.2     
  21 C21            1.0097     4.4417    -4.3832 C.2     
  22 C22            0.6934     5.7536    -4.3940 C.2     
  23 N23            1.6716     6.7021    -4.3354 N.pl3   
  24 N24            2.9042     8.4649    -4.2555 N.2     
  25 N25            3.6989     7.4537    -4.2146 N.2     
  26 C26            1.6617     8.0627    -4.3286 C.2     
  27 C27            4.7844     4.5509    -4.1759 C.3     
  28 F28            5.2031     4.0890    -5.4283 F       
  29 F29            5.5683     5.6458    -3.7967 F       
  30 F30            4.9234     3.5283    -3.2313 F       
  31 C31            0.4417     8.9452    -4.3912 C.3     
  32 C32           -0.0507     9.2361    -2.9721 C.3     
  33 C33           -1.2159    10.2151    -2.8154 C.3     
  34 C34           -1.4378     8.7188    -2.5857 C.3     
  35 H35           -0.5814     0.7862    -2.8498 H       
  36 H36           -0.7544    -0.1364    -1.2954 H       
  37 H37            0.8648    -2.1801    -1.3489 H       
  38 H38            1.7626    -2.1724    -2.9273 H       
  39 H39            3.0515     0.0807    -3.3383 H       
  40 H40            1.5282     0.2039    -4.2521 H       
  41 H41            3.7047     1.8853    -1.8639 H       
  42 H42            2.7566     3.3900    -1.8333 H       
  43 H43            2.3649     2.0706     0.2213 H       
  44 H44            0.8765     2.1714    -0.7517 H       
  45 H45            1.1879    -0.1439     0.0010 H       
  46 H46            2.8392    -0.1683    -0.6687 H       
  47 H47           -2.6114    -0.5563    -2.1852 H       
  48 H48           -4.4485    -2.0349    -1.4806 H       
  49 H49           -1.9979    -5.4484    -2.2316 H       
  50 H50           -0.1597    -3.9762    -2.9468 H       
  51 H51            3.7809     2.4518    -4.2195 H       
  52 H52            2.3535     2.1066    -5.2253 H       
  53 H53            0.2260     3.7000    -4.4301 H       
  54 H54           -0.3423     6.0547    -4.4495 H       
  55 H55            0.6961     9.8822    -4.8867 H       
  56 H56           -0.3442     8.4393    -4.9519 H       
  57 H57            0.7182     9.2410    -2.1995 H       
  58 H58           -1.2139    10.8639    -1.9395 H       
  59 H59           -1.6318    10.6520    -3.7233 H       
  60 H60           -1.9995     8.1713    -3.3425 H       
  61 H61           -1.5817     8.3832    -1.5587 H       
@<TRIPOS>BOND
   1    1    2 1
   2    1    4 1
   3    1   35 1
   4    1   36 1
   5    2    3 1
   6    2   10 1
   7    3    4 1
   8    3   37 1
   9    3   38 1
  10    4    5 1
  11    4    9 1
  12    5    6 1
  13    5   39 1
  14    5   40 1
  15    6    7 1
  16    6   17 1
  17    7    8 1
  18    7   41 1
  19    7   42 1
  20    8    9 1
  21    8   43 1
  22    8   44 1
  23    9   45 1
  24    9   46 1
  25   10   11 ar
  26   10   15 ar
  27   11   12 ar
  28   11   47 1
  29   12   13 ar
  30   12   48 1
  31   13   14 ar
  32   13   16 1
  33   14   15 ar
  34   14   49 1
  35   15   50 1
  36   17   20 1
  37   17   51 1
  38   17   52 1
  39   18   19 1
  40   18   23 1
  41   18   25 2
  42   19   20 2
  43   19   27 1
  44   20   21 1
  45   21   22 2
  46   21   53 1
  47   22   23 1
  48   22   54 1
  49   23   26 1
  50   24   25 1
  51   24   26 2
  52   26   31 1
  53   27   28 1
  54   27   29 1
  55   27   30 1
  56   31   32 1
  57   31   55 1
  58   31   56 1
  59   32   33 1
  60   32   34 1
  61   32   57 1
  62   33   34 1
  63   33   58 1
  64   33   59 1
  65   34   60 1
  66   34   61 1

#	End of record

