#	Name: ASD02500099
#	Creating user name:	WinNT
#	Creation time:	15. 06. 2019 20:22

#	Modifying user name:	WinNT
#	Modification time:	15. 06. 2019 20:22

#	Program:	/corina/corina34_cracker 3.40 0067  02.08.2006

@<TRIPOS>MOLECULE
ASD02500099
  64   68    0    0    0
SMALL
NO_CHARGES


@<TRIPOS>ATOM
   1 N1            -3.5924     5.5512     0.1271 N.ar    
   2 C2            -4.7215     6.1846    -0.0781 C.ar    
   3 C3            -5.8444     5.9573     0.7149 C.ar    
   4 C4            -5.7852     5.0538     1.7373 C.ar    
   5 C5            -4.5711     4.3751     1.9545 C.ar    
   6 C6            -4.4346     3.4329     2.9862 C.ar    
   7 C7            -3.2433     2.7977     3.1641 C.ar    
   8 C8            -2.1569     3.0707     2.3358 C.ar    
   9 C9            -2.2542     3.9782     1.3261 C.ar    
  10 C10           -3.4674     4.6545     1.1106 C.ar    
  11 S11           -0.8643     4.3048     0.2936 S.o2    
  12 O12           -0.7170     5.7176     0.2539 O.2     
  13 O13            0.1684     3.4274     0.7214 O.2     
  14 N14           -1.2720     3.8339    -1.2408 N.am    
  15 C15           -1.4677     2.4871    -1.5259 C.ar    
  16 C16           -1.1227     1.9847    -2.7778 C.ar    
  17 C17           -1.3151     0.6525    -3.0629 C.ar    
  18 C18           -1.8578    -0.1970    -2.0940 C.ar    
  19 C19           -2.2031     0.3105    -0.8382 C.ar    
  20 C20           -2.0029     1.6428    -0.5572 C.ar    
  21 C21           -0.5383     2.9011    -3.8217 C.3     
  22 C22           -2.0659    -1.6257    -2.3965 C.2     
  23 O23           -2.4832    -1.9615    -3.4882 O.2     
  24 N24           -1.7934    -2.5589    -1.4630 N.am    
  25 C25           -1.9057    -3.9922    -1.7732 C.3     
  26 C26           -0.6037    -4.6841    -1.3554 C.3     
  27 N27           -0.3176    -4.3735     0.0516 N.3     
  28 C28           -0.0949    -2.9345     0.2450 C.3     
  29 C29           -1.3701    -2.1710    -0.1089 C.3     
  30 C30            0.6868    -6.5050     0.6330 C.ar    
  31 C31            0.7730    -5.1169     0.5175 C.ar    
  32 C32            1.9580    -4.4843     0.8717 C.ar    
  33 C33            3.0121    -5.2636     1.3279 C.ar    
  34 C34            2.8534    -6.6318     1.4156 C.ar    
  35 N35            1.7157    -7.2074     1.0722 N.ar    
  36 O36           -0.4661    -7.1383     0.2964 O.3     
  37 C37           -0.4903    -8.5601     0.4371 C.3     
  38 H38           -4.7830     6.9020    -0.8831 H       
  39 H39           -6.7606     6.4954     0.5215 H       
  40 H40           -6.6458     4.8655     2.3621 H       
  41 H41           -5.2694     3.2134     3.6353 H       
  42 H42           -3.1391     2.0730     3.9581 H       
  43 H43           -1.2223     2.5542     2.4977 H       
  44 H44           -1.3743     4.4977    -1.9408 H       
  45 H45           -1.0476     0.2634    -4.0342 H       
  46 H46           -2.6225    -0.3432    -0.0877 H       
  47 H47           -2.2651     2.0346     0.4145 H       
  48 H48            0.5477     2.9120    -3.7286 H       
  49 H49           -0.8143     2.5442    -4.8139 H       
  50 H50           -0.9255     3.9097    -3.6775 H       
  51 H51           -2.7419    -4.4218    -1.2216 H       
  52 H52           -2.0632    -4.1240    -2.8436 H       
  53 H53           -0.7100    -5.7622    -1.4756 H       
  54 H54            0.2147    -4.3269    -1.9805 H       
  55 H55            0.1678    -2.7437     1.2855 H       
  56 H56            0.7164    -2.6017    -0.4023 H       
  57 H57           -1.1737    -1.0992    -0.0796 H       
  58 H58           -2.1539    -2.4221     0.6057 H       
  59 H59            2.0569    -3.4117     0.7935 H       
  60 H60            3.9474    -4.8039     1.6112 H       
  61 H61            3.6720    -7.2406     1.7699 H       
  62 H62           -1.4669    -8.9386     0.1353 H       
  63 H63            0.2811    -9.0009    -0.1944 H       
  64 H64           -0.3035    -8.8255     1.4777 H       
@<TRIPOS>BOND
   1    1    2 ar
   2    1   10 ar
   3    2    3 ar
   4    2   38 1
   5    3    4 ar
   6    3   39 1
   7    4    5 ar
   8    4   40 1
   9    5    6 ar
  10    5   10 ar
  11    6    7 ar
  12    6   41 1
  13    7    8 ar
  14    7   42 1
  15    8    9 ar
  16    8   43 1
  17    9   10 ar
  18    9   11 1
  19   11   12 2
  20   11   13 2
  21   11   14 am
  22   14   15 1
  23   14   44 1
  24   15   16 ar
  25   15   20 ar
  26   16   17 ar
  27   16   21 1
  28   17   18 ar
  29   17   45 1
  30   18   19 ar
  31   18   22 1
  32   19   20 ar
  33   19   46 1
  34   20   47 1
  35   21   48 1
  36   21   49 1
  37   21   50 1
  38   22   23 2
  39   22   24 am
  40   24   25 1
  41   24   29 1
  42   25   26 1
  43   25   51 1
  44   25   52 1
  45   26   27 1
  46   26   53 1
  47   26   54 1
  48   27   28 1
  49   27   31 1
  50   28   29 1
  51   28   55 1
  52   28   56 1
  53   29   57 1
  54   29   58 1
  55   30   31 ar
  56   30   35 ar
  57   30   36 1
  58   31   32 ar
  59   32   33 ar
  60   32   59 1
  61   33   34 ar
  62   33   60 1
  63   34   35 ar
  64   34   61 1
  65   36   37 1
  66   37   62 1
  67   37   63 1
  68   37   64 1

#	End of record

