#	Name: ASD02560269
#	Creating user name:	WinNT
#	Creation time:	15. 06. 2019 20:25

#	Modifying user name:	WinNT
#	Modification time:	15. 06. 2019 20:25

#	Program:	/corina/corina34_cracker 3.40 0067  02.08.2006

@<TRIPOS>MOLECULE
ASD02560269
  48   50    0    0    0
SMALL
NO_CHARGES


@<TRIPOS>ATOM
   1 N1            -0.0476     1.3400    -0.0056 N.ar    
   2 C2            -0.0510     0.0116    -0.0127 C.ar    
   3 C3             1.1666    -0.6668    -0.0090 C.ar    
   4 C4             2.3321     0.0766     0.0020 C.ar    
   5 N5             2.2546     1.3992     0.0086 N.ar    
   6 C6             1.0868     2.0100     0.0048 C.ar    
   7 O7            -1.2203    -0.6735    -0.0230 O.3     
   8 C8            -2.3762     0.0387    -0.0257 C.ar    
   9 C9            -4.7352     1.4924    -0.0312 C.ar    
  10 C10           -4.1428     1.1226     1.1794 C.ar    
  11 C11           -2.9699     0.4005     1.1776 C.ar    
  12 C12           -2.9594     0.4085    -1.2317 C.ar    
  13 C13           -4.1317     1.1313    -1.2390 C.ar    
  14 C14           -2.3297     0.0020     2.4823 C.3     
  15 C15           -2.3077     0.0185    -2.5334 C.3     
  16 C16           -5.9546     2.2431    -0.0341 C.1     
  17 N17           -6.9220     2.8386    -0.0364 N.1     
  18 S18            1.0413     3.7714     0.0133 S.o2    
  19 C19            1.0187     4.2152     1.7720 C.3     
  20 C20            0.9791     5.7152     1.9112 C.2     
  21 N21            0.9569     6.2780     3.1356 N.am    
  22 C22            1.0053     7.6708     3.2667 C.ar    
  23 O23            0.9674     6.4160     0.9213 O.2     
  24 C24            0.6042     9.8571     2.3669 C.ar    
  25 C25            0.5556     8.4827     2.2344 C.ar    
  26 C26            1.4984     8.2440     4.4330 C.ar    
  27 C27            1.5442     9.6193     4.5588 C.ar    
  28 C28            1.1000    10.4246     3.5259 C.ar    
  29 O29            2.2726     4.1567    -0.5824 O.2     
  30 O30           -0.2005     4.0929    -0.5981 O.2     
  31 Cl31           2.0555     7.2334     5.7299 Cl      
  32 H32            1.1987    -1.7463    -0.0142 H       
  33 H33            3.2939    -0.4147     0.0055 H       
  34 H34           -4.6059     1.3996     2.1149 H       
  35 H35           -4.5862     1.4152    -2.1767 H       
  36 H36           -2.7141    -0.9693     2.7939 H       
  37 H37           -1.2492    -0.0594     2.3531 H       
  38 H38           -2.5629     0.7463     3.2438 H       
  39 H39           -2.6896    -0.9504    -2.8549 H       
  40 H40           -2.5339     0.7681    -3.2918 H       
  41 H41           -1.2284    -0.0441    -2.3949 H       
  42 H42            0.1366     3.7830     2.2445 H       
  43 H43            1.9159     3.8289     2.2558 H       
  44 H44            0.9073     5.7179     3.9260 H       
  45 H45            0.2547    10.4889     1.5638 H       
  46 H46            0.1684     8.0404     1.3285 H       
  47 H47            1.9269    10.0658     5.4648 H       
  48 H48            1.1371    11.4993     3.6265 H       
@<TRIPOS>BOND
   1    1    2 ar
   2    1    6 ar
   3    2    3 ar
   4    2    7 1
   5    3    4 ar
   6    3   32 1
   7    4    5 ar
   8    4   33 1
   9    5    6 ar
  10    6   18 1
  11    7    8 1
  12    8   12 ar
  13    8   11 ar
  14    9   10 ar
  15    9   13 ar
  16    9   16 1
  17   10   11 ar
  18   10   34 1
  19   11   14 1
  20   12   13 ar
  21   12   15 1
  22   13   35 1
  23   14   36 1
  24   14   37 1
  25   14   38 1
  26   15   39 1
  27   15   40 1
  28   15   41 1
  29   16   17 3
  30   18   19 1
  31   18   29 2
  32   18   30 2
  33   19   20 1
  34   19   42 1
  35   19   43 1
  36   20   21 am
  37   20   23 2
  38   21   22 1
  39   21   44 1
  40   22   26 ar
  41   22   25 ar
  42   24   25 ar
  43   24   28 ar
  44   24   45 1
  45   25   46 1
  46   26   27 ar
  47   26   31 1
  48   27   28 ar
  49   27   47 1
  50   28   48 1

#	End of record

