#	Name: ASD03091029
#	Creating user name:	WinNT
#	Creation time:	15. 06. 2019 20:29

#	Modifying user name:	WinNT
#	Modification time:	15. 06. 2019 20:29

#	Program:	/corina/corina34_cracker 3.40 0067  02.08.2006

@<TRIPOS>MOLECULE
ASD03091029
  49   53    0    0    0
SMALL
NO_CHARGES


@<TRIPOS>ATOM
   1 N1             0.0208     1.3797     0.0751 N.am    
   2 C2             0.0185    -0.0048     0.0306 C.2     
   3 N3             0.9398    -0.6994    -0.5573 N.2     
   4 C4             2.0579    -0.2344    -1.1746 C.ar    
   5 C5             2.4822     1.0888    -0.9992 C.ar    
   6 S6             1.5191     2.1199     0.0685 S.o2    
   7 O7             1.3618     3.3685    -0.5913 O.2     
   8 C8             2.8080    -1.0766    -2.0035 C.ar    
   9 C9             3.9363    -0.5982    -2.6324 C.ar    
  10 C10            4.3409     0.7196    -2.4528 C.ar    
  11 C11            3.6028     1.5649    -1.6280 C.ar    
  12 N12            5.4862     1.1950    -3.0982 N.3     
  13 C13            6.6688     1.0663    -2.2352 C.3     
  14 C14            5.3082     2.5872    -3.5278 C.3     
  15 C15            6.4524     3.0740    -4.4034 C.3     
  16 N16            7.7205     3.0561    -3.6584 N.3     
  17 C17            7.6420     3.3895    -2.2523 C.3     
  18 C18            6.8606     2.3559    -1.4581 C.3     
  19 C19            7.8849     0.6668    -3.0574 C.3     
  20 C20            8.4326     1.7947    -3.9085 C.3     
  21 C21           -1.0908    -0.7254     0.6874 C.ar    
  22 O22            2.0571     1.9803     1.3763 O.2     
  23 C23           -1.1312    -2.1233     0.6658 C.ar    
  24 C24           -2.1013    -0.0148     1.3378 C.ar    
  25 C25           -3.1342    -0.6939     1.9497 C.ar    
  26 C26           -3.1717    -2.0770     1.9211 C.ar    
  27 C27           -2.1728    -2.7898     1.2834 C.ar    
  28 F28           -0.1555    -2.8199     0.0429 F       
  29 H29           -0.8025     1.8918     0.1044 H       
  30 H30            2.5022    -2.1020    -2.1498 H       
  31 H31            4.5118    -1.2526    -3.2703 H       
  32 H32            3.9119     2.5898    -1.4847 H       
  33 H33            6.4739     0.2742    -1.5122 H       
  34 H34            4.3764     2.6675    -4.0877 H       
  35 H35            5.2436     3.2235    -2.6452 H       
  36 H36            6.5388     2.4252    -5.2750 H       
  37 H37            6.2441     4.0918    -4.7333 H       
  38 H38            8.6521     3.4564    -1.8480 H       
  39 H39            7.1556     4.3591    -2.1456 H       
  40 H40            5.8828     2.7670    -1.2071 H       
  41 H41            7.3985     2.1370    -0.5357 H       
  42 H42            8.6687     0.3279    -2.3800 H       
  43 H43            7.6087    -0.1612    -3.7102 H       
  44 H44            8.3281     1.5296    -4.9606 H       
  45 H45            9.4896     1.9315    -3.6805 H       
  46 H46           -2.0740     1.0645     1.3622 H       
  47 H47           -3.9160    -0.1445     2.4529 H       
  48 H48           -3.9832    -2.6025     2.4025 H       
  49 H49           -2.2085    -3.8691     1.2650 H       
@<TRIPOS>BOND
   1    1    2 1
   2    1    6 am
   3    1   29 1
   4    2    3 2
   5    2   21 1
   6    3    4 1
   7    4    5 ar
   8    4    8 ar
   9    5    6 1
  10    5   11 ar
  11    6    7 2
  12    6   22 2
  13    8    9 ar
  14    8   30 1
  15    9   10 ar
  16    9   31 1
  17   10   11 ar
  18   10   12 1
  19   11   32 1
  20   12   14 1
  21   12   13 1
  22   13   19 1
  23   13   18 1
  24   13   33 1
  25   14   15 1
  26   14   34 1
  27   14   35 1
  28   15   16 1
  29   15   36 1
  30   15   37 1
  31   16   17 1
  32   16   20 1
  33   17   18 1
  34   17   38 1
  35   17   39 1
  36   18   40 1
  37   18   41 1
  38   19   20 1
  39   19   42 1
  40   19   43 1
  41   20   44 1
  42   20   45 1
  43   21   23 ar
  44   21   24 ar
  45   23   28 1
  46   23   27 ar
  47   24   25 ar
  48   24   46 1
  49   25   26 ar
  50   25   47 1
  51   26   27 ar
  52   26   48 1
  53   27   49 1

#	End of record

