#	Name: ASD01884641
#	Creating user name:	WinNT
#	Creation time:	15. 06. 2019 19:48

#	Modifying user name:	WinNT
#	Modification time:	15. 06. 2019 19:48

#	Program:	/corina/corina34_cracker 3.40 0067  02.08.2006

@<TRIPOS>MOLECULE
ASD01884641
  57   60    0    0    0
SMALL
NO_CHARGES


@<TRIPOS>ATOM
   1 C1            -0.0168     1.3884     0.0097 C.2     
   2 C2             0.0021    -0.0041     0.0020 C.2     
   3 C3            -1.2095    -0.6965     0.0104 C.2     
   4 C4            -2.3831    -0.0157     0.0252 C.2     
   5 N5            -2.4093     1.3392     0.0327 N.am    
   6 C6            -1.2693     2.0558     0.0312 C.2     
   7 O7            -1.3129     3.2741     0.0383 O.2     
   8 C8            -3.6983     2.0352     0.0483 C.3     
   9 C9             1.2059     2.1337     0.0020 C.1     
  10 N10            2.1759     2.7249    -0.0041 N.1     
  11 C11            1.3105    -0.7515    -0.0155 C.3     
  12 N12            1.6901    -1.1066     1.3585 N.3     
  13 C13            2.8290    -2.0352     1.3670 C.3     
  14 C14            3.2431    -2.3172     2.8131 C.3     
  15 N15            2.1012    -2.8822     3.5456 N.3     
  16 C16            0.9623    -1.9536     3.5371 C.3     
  17 C17            0.5482    -1.6716     2.0910 C.3     
  18 C18            2.4621    -3.2198     4.8520 C.ar    
  19 C19           -4.1338     2.2698     1.4962 C.3     
  20 O20           -3.2152     3.1611     2.1314 O.3     
  21 C21           -3.4593     3.4758     3.4308 C.ar    
  22 C22           -2.6079     4.3357     4.1092 C.ar    
  23 C23           -2.8582     4.6540     5.4300 C.ar    
  24 C24           -3.9563     4.1164     6.0757 C.ar    
  25 C25           -4.8061     3.2588     5.4019 C.ar    
  26 C26           -4.5636     2.9423     4.0792 C.ar    
  27 C27            1.5222    -3.7716     5.7133 C.ar    
  28 C28            1.8825    -4.1047     7.0042 C.ar    
  29 C29            3.1772    -3.8895     7.4398 C.ar    
  30 C30            4.1154    -3.3404     6.5850 C.ar    
  31 C31            3.7632    -3.0099     5.2911 C.ar    
  32 H32           -1.2130    -1.7765     0.0046 H       
  33 H33           -3.3137    -0.5638     0.0308 H       
  34 H34           -3.5999     2.9937    -0.4613 H       
  35 H35           -4.4456     1.4275    -0.4619 H       
  36 H36            1.2023    -1.6595    -0.6087 H       
  37 H37            2.0835    -0.1207    -0.4544 H       
  38 H38            2.5411    -2.9683     0.8826 H       
  39 H39            3.6659    -1.5892     0.8295 H       
  40 H40            4.0692    -3.0283     2.8228 H       
  41 H41            3.5569    -1.3883     3.2893 H       
  42 H42            0.1254    -2.3996     4.0746 H       
  43 H43            1.2502    -1.0205     4.0215 H       
  44 H44           -0.2779    -0.9605     2.0813 H       
  45 H45            0.2344    -2.6005     1.6148 H       
  46 H46           -5.1322     2.7071     1.5090 H       
  47 H47           -4.1465     1.3197     2.0302 H       
  48 H48           -1.7499     4.7556     3.6054 H       
  49 H49           -2.1955     5.3231     5.9587 H       
  50 H50           -4.1503     4.3665     7.1083 H       
  51 H51           -5.6628     2.8396     5.9087 H       
  52 H52           -5.2277     2.2724     3.5533 H       
  53 H53            0.5108    -3.9395     5.3739 H       
  54 H54            1.1522    -4.5334     7.6745 H       
  55 H55            3.4563    -4.1506     8.4499 H       
  56 H56            5.1257    -3.1737     6.9283 H       
  57 H57            4.4964    -2.5814     4.6239 H       
@<TRIPOS>BOND
   1    1    2 2
   2    1    9 1
   3    1    6 1
   4    2    3 1
   5    2   11 1
   6    3    4 2
   7    3   32 1
   8    4    5 1
   9    4   33 1
  10    5    8 1
  11    5    6 am
  12    6    7 2
  13    8   19 1
  14    8   34 1
  15    8   35 1
  16    9   10 3
  17   11   12 1
  18   11   36 1
  19   11   37 1
  20   12   13 1
  21   12   17 1
  22   13   14 1
  23   13   38 1
  24   13   39 1
  25   14   15 1
  26   14   40 1
  27   14   41 1
  28   15   16 1
  29   15   18 1
  30   16   17 1
  31   16   42 1
  32   16   43 1
  33   17   44 1
  34   17   45 1
  35   18   27 ar
  36   18   31 ar
  37   19   20 1
  38   19   46 1
  39   19   47 1
  40   20   21 1
  41   21   22 ar
  42   21   26 ar
  43   22   23 ar
  44   22   48 1
  45   23   24 ar
  46   23   49 1
  47   24   25 ar
  48   24   50 1
  49   25   26 ar
  50   25   51 1
  51   26   52 1
  52   27   28 ar
  53   27   53 1
  54   28   29 ar
  55   28   54 1
  56   29   30 ar
  57   29   55 1
  58   30   31 ar
  59   30   56 1
  60   31   57 1

#	End of record

