#	Name: ASD01880419
#	Creating user name:	WinNT
#	Creation time:	15. 06. 2019 19:40

#	Modifying user name:	WinNT
#	Modification time:	15. 06. 2019 19:40

#	Program:	/corina/corina34_cracker 3.40 0067  02.08.2006

@<TRIPOS>MOLECULE
ASD01880419
  26   26    0    0    0
SMALL
NO_CHARGES


@<TRIPOS>ATOM
   1 O1             0.4973     0.3204    -1.4090 O.3     
   2 C2            -0.0082    -0.0006    -0.2076 C.2     
   3 O3             0.5715     0.3300     0.7996 O.2     
   4 C4            -1.2988    -0.7731    -0.1152 C.3     
   5 C5            -2.0190    -0.4424     1.2083 C.3     
   6 C6            -2.6474    -1.7889     1.6455 C.3     
   7 C7            -1.5619    -2.8187     1.2450 C.3     
   8 C8            -1.0081    -2.2840    -0.0919 C.3     
   9 C9             0.4775    -2.5252    -0.1686 C.2     
  10 O10            1.1396    -2.5431     0.8419 O.2     
  11 O11            1.0652    -2.7200    -1.3596 O.3     
  12 N12           -3.8979    -2.0408     0.9171 N.3     
  13 C13           -2.8810    -1.8109     3.1341 C.2     
  14 O14           -2.2147    -1.1120     3.8606 O.2     
  15 O15           -3.8292    -2.6067     3.6531 O.3     
  16 H16            1.3273     0.8165    -1.4177 H       
  17 H17           -1.9413    -0.5288    -0.9612 H       
  18 H18           -1.3049    -0.0945     1.9546 H       
  19 H19           -2.7951     0.3051     1.0438 H       
  20 H20           -0.7739    -2.8545     1.9973 H       
  21 H21           -2.0043    -3.8053     1.1073 H       
  22 H22           -1.5099    -2.7737    -0.9264 H       
  23 H23            2.0203    -2.8707    -1.3584 H       
  24 H24           -4.3105    -2.9173     1.1992 H       
  25 H25           -4.5479    -1.2789     1.0403 H       
  26 H26           -3.9421    -2.5866     4.6132 H       
@<TRIPOS>BOND
   1    1    2 1
   2    1   16 1
   3    2    3 2
   4    2    4 1
   5    4    5 1
   6    4    8 1
   7    4   17 1
   8    5    6 1
   9    5   18 1
  10    5   19 1
  11    6    7 1
  12    6   12 1
  13    6   13 1
  14    7    8 1
  15    7   20 1
  16    7   21 1
  17    8    9 1
  18    8   22 1
  19    9   10 2
  20    9   11 1
  21   11   23 1
  22   12   24 1
  23   12   25 1
  24   13   14 2
  25   13   15 1
  26   15   26 1

#	End of record

