#	Name: ASD01903110
#	Creating user name:	WinNT
#	Creation time:	15. 06. 2019 19:54

#	Modifying user name:	WinNT
#	Modification time:	15. 06. 2019 19:54

#	Program:	/corina/corina34_cracker 3.40 0067  02.08.2006

@<TRIPOS>MOLECULE
ASD01903110
  45   48    0    0    0
SMALL
NO_CHARGES


@<TRIPOS>ATOM
   1 C1            -0.0125     1.3775    -0.0096 C.ar    
   2 C2            -0.0106     0.0074    -0.2398 C.ar    
   3 C3            -1.1991    -0.6967    -0.2254 C.ar    
   4 C4            -2.3951    -0.0346     0.0191 C.ar    
   5 C5            -2.3960     1.3354     0.2492 C.ar    
   6 C6            -1.2078     2.0379     0.2401 C.ar    
   7 N7            -3.5992    -0.7473     0.0333 N.am    
   8 C8            -3.6329    -2.0038     0.5198 C.2     
   9 C9            -4.9244    -2.7207     0.6307 C.ar    
  10 N10           -6.0451    -2.1205     0.2493 N.ar    
  11 C11           -7.2120    -2.7218     0.3309 C.ar    
  12 C12           -7.3143    -4.0133     0.8221 C.ar    
  13 C13           -6.1683    -4.6774     1.2317 C.ar    
  14 C14           -4.9519    -4.0215     1.1290 C.ar    
  15 O15           -2.6036    -2.5486     0.8675 O.2     
  16 Cl16           1.4849    -0.8194    -0.5459 Cl      
  17 N17            1.1948     2.0931    -0.0236 N.am    
  18 C18            1.9407     2.2772     1.0728 C.2     
  19 C19            3.1674     3.0856     0.7104 C.3     
  20 C20            2.9993     3.3394    -0.8016 C.3     
  21 C21            1.6982     2.6429    -1.1357 C.2     
  22 O22            1.6751     1.8624     2.1805 O.2     
  23 O23            1.1887     2.5963    -2.2347 O.2     
  24 C24            3.1870     4.3882     1.4679 C.ar    
  25 C25            4.2529     4.6911     2.2943 C.ar    
  26 C26            4.2708     5.8860     2.9892 C.ar    
  27 C27            3.2232     6.7781     2.8573 C.ar    
  28 C28            2.1578     6.4756     2.0301 C.ar    
  29 C29            2.1418     5.2826     1.3318 C.ar    
  30 H30           -1.1981    -1.7618    -0.4046 H       
  31 H31           -3.3261     1.8503     0.4394 H       
  32 H32           -1.2090     3.1030     0.4190 H       
  33 H33           -4.4096    -0.3371    -0.3070 H       
  34 H34           -8.1027    -2.2016     0.0109 H       
  35 H35           -8.2774    -4.4979     0.8856 H       
  36 H36           -6.2219    -5.6845     1.6181 H       
  37 H37           -4.0391    -4.5089     1.4384 H       
  38 H38            4.0748     2.5138     0.9048 H       
  39 H39            2.9299     4.4078    -1.0058 H       
  40 H40            3.8231     2.8939    -1.3593 H       
  41 H41            5.0714     3.9941     2.3974 H       
  42 H42            5.1032     6.1224     3.6355 H       
  43 H43            3.2369     7.7113     3.4007 H       
  44 H44            1.3391     7.1724     1.9273 H       
  45 H45            1.3095     5.0463     0.6856 H       
@<TRIPOS>BOND
   1    1    2 ar
   2    1   17 1
   3    1    6 ar
   4    2    3 ar
   5    2   16 1
   6    3    4 ar
   7    3   30 1
   8    4    5 ar
   9    4    7 1
  10    5    6 ar
  11    5   31 1
  12    6   32 1
  13    7    8 am
  14    7   33 1
  15    8    9 1
  16    8   15 2
  17    9   10 ar
  18    9   14 ar
  19   10   11 ar
  20   11   12 ar
  21   11   34 1
  22   12   13 ar
  23   12   35 1
  24   13   14 ar
  25   13   36 1
  26   14   37 1
  27   17   18 am
  28   17   21 am
  29   18   19 1
  30   18   22 2
  31   19   20 1
  32   19   24 1
  33   19   38 1
  34   20   21 1
  35   20   39 1
  36   20   40 1
  37   21   23 2
  38   24   25 ar
  39   24   29 ar
  40   25   26 ar
  41   25   41 1
  42   26   27 ar
  43   26   42 1
  44   27   28 ar
  45   27   43 1
  46   28   29 ar
  47   28   44 1
  48   29   45 1

#	End of record

