#	Name: ASD01190116
#	Creating user name:	WinNT
#	Creation time:	15. 06. 2019 19:07

#	Modifying user name:	WinNT
#	Modification time:	15. 06. 2019 19:07

#	Program:	/corina/corina34_cracker 3.40 0067  02.08.2006

@<TRIPOS>MOLECULE
ASD01190116
  55   59    0    0    0
SMALL
NO_CHARGES


@<TRIPOS>ATOM
   1 C1            -0.1426     1.7231    -1.1030 C.2     
   2 C2            -0.1521     0.2322    -0.8838 C.3     
   3 O3             0.9031     2.3358    -1.0597 O.2     
   4 N4            -1.2956     2.3749    -1.3526 N.am    
   5 C5             3.6235    -0.5023     2.6185 C.2     
   6 N6             3.9842    -0.8725     1.4241 N.2     
   7 C7             3.1370    -0.7591     0.3734 C.2     
   8 C8             1.8553    -0.2362     0.5774 C.2     
   9 C9             1.4886     0.1574     1.8809 C.2     
  10 N10            2.3926     0.0119     2.8743 N.am    
  11 N11            1.2151    -0.2342    -0.6399 N.pl3   
  12 C12            3.2334    -1.0655    -1.0008 C.2     
  13 C13            2.0605    -0.7375    -1.5806 C.2     
  14 C14            4.4335    -1.6539    -1.6969 C.3     
  15 C15            4.8463    -2.9489    -0.9945 C.3     
  16 O16            4.1040    -1.9349    -3.0587 O.3     
  17 N17            8.6992     1.9815    -1.2537 N.pl3   
  18 N18            8.8879     1.9249     0.1311 N.2     
  19 C19            8.0346     1.0980     0.6658 C.2     
  20 C20            7.2095     0.5518    -0.4070 C.ar    
  21 C21            6.1505    -0.3618    -0.4506 C.ar    
  22 C22            5.5744    -0.6705    -1.6487 C.ar    
  23 C23            6.0301    -0.0870    -2.8246 C.ar    
  24 C24            7.0628     0.8073    -2.8075 C.ar    
  25 C25            7.6698     1.1420    -1.6001 C.ar    
  26 C26            9.4379     2.7724    -2.1433 C.ar    
  27 C27            9.8868     4.0265    -1.7507 C.ar    
  28 C28           10.6148     4.8045    -2.6292 C.ar    
  29 C29           10.8973     4.3348    -3.9010 C.ar    
  30 C30           10.4507     3.0845    -4.2945 C.ar    
  31 C31            9.7272     2.3009    -3.4171 C.ar    
  32 F32           11.6093     5.0977    -4.7591 F       
  33 F33            3.7872    -3.8618    -1.0392 F       
  34 F34            5.9605    -3.4952    -1.6406 F       
  35 F35            5.1689    -2.6738     0.3388 F       
  36 O36            0.3823     0.6188     2.1059 O.2     
  37 C37            2.0420     0.4117     4.2394 C.3     
  38 H38           -0.7759    -0.0044    -0.0218 H       
  39 H39           -0.5523    -0.2626    -1.7687 H       
  40 H40           -2.1315     1.8842    -1.3912 H       
  41 H41           -1.2896     3.3345    -1.4937 H       
  42 H42            4.3239    -0.6115     3.4333 H       
  43 H43            1.8281    -0.8562    -2.6285 H       
  44 H44            3.8325    -1.1577    -3.5661 H       
  45 H45            7.9527     0.8591     1.7158 H       
  46 H46            5.7911    -0.8202     0.4589 H       
  47 H47            5.5625    -0.3439    -3.7636 H       
  48 H48            7.4077     1.2534    -3.7286 H       
  49 H49            9.6664     4.3932    -0.7591 H       
  50 H50           10.9638     5.7800    -2.3243 H       
  51 H51           10.6717     2.7202    -5.2869 H       
  52 H52            9.3832     1.3239    -3.7227 H       
  53 H53            2.8870     0.2231     4.9016 H       
  54 H54            1.7979     1.4739     4.2555 H       
  55 H55            1.1803    -0.1643     4.5768 H       
@<TRIPOS>BOND
   1    1    2 1
   2    1    3 2
   3    1    4 am
   4    2   11 1
   5    2   38 1
   6    2   39 1
   7    4   40 1
   8    4   41 1
   9    5    6 2
  10    5   10 1
  11    5   42 1
  12    6    7 1
  13    7    8 2
  14    7   12 1
  15    8    9 1
  16    8   11 1
  17    9   10 am
  18    9   36 2
  19   10   37 1
  20   11   13 1
  21   12   13 2
  22   12   14 1
  23   13   43 1
  24   14   15 1
  25   14   16 1
  26   14   22 1
  27   15   33 1
  28   15   34 1
  29   15   35 1
  30   16   44 1
  31   17   18 1
  32   17   25 1
  33   17   26 1
  34   18   19 2
  35   19   20 1
  36   19   45 1
  37   20   21 ar
  38   20   25 ar
  39   21   22 ar
  40   21   46 1
  41   22   23 ar
  42   23   24 ar
  43   23   47 1
  44   24   25 ar
  45   24   48 1
  46   26   27 ar
  47   26   31 ar
  48   27   28 ar
  49   27   49 1
  50   28   29 ar
  51   28   50 1
  52   29   30 ar
  53   29   32 1
  54   30   31 ar
  55   30   51 1
  56   31   52 1
  57   37   53 1
  58   37   54 1
  59   37   55 1

#	End of record

