#	Name: ASD01870118
#	Creating user name:	WinNT
#	Creation time:	15. 06. 2019 19:38

#	Modifying user name:	WinNT
#	Modification time:	15. 06. 2019 19:38

#	Program:	/corina/corina34_cracker 3.40 0067  02.08.2006

@<TRIPOS>MOLECULE
ASD01870118
  42   45    0    0    0
SMALL
NO_CHARGES


@<TRIPOS>ATOM
   1 C1             1.9377    -2.2546     1.4612 C.ar    
   2 C2             0.9312    -1.7328     0.6641 C.ar    
   3 C3             1.1788    -0.5920    -0.0831 C.ar    
   4 N4             2.3531    -0.0015    -0.0451 N.ar    
   5 C5             3.3437    -0.4689     0.7050 C.ar    
   6 C6             3.1653    -1.6111     1.4820 C.ar    
   7 C7             4.6498     0.2299     0.7155 C.2     
   8 N8             4.8287     1.3353    -0.0346 N.am    
   9 O9             5.5601    -0.1937     1.4003 O.2     
  10 C10            6.0282     2.0509     0.0491 C.ar    
  11 C11            7.2275     1.3766     0.2379 C.ar    
  12 C12            6.0202     3.4357    -0.0625 C.ar    
  13 C13            7.2033     4.1419     0.0195 C.ar    
  14 C14            8.4019     3.4688     0.2140 C.ar    
  15 C15            8.4115     2.0836     0.3205 C.ar    
  16 Cl16           9.9102     1.2419     0.5638 Cl      
  17 N17            9.6046     4.1873     0.2969 N.am    
  18 C18           10.0951     4.6480     1.4543 C.2     
  19 C19           10.3588     4.4635    -0.7741 C.2     
  20 C20           11.5775     5.2464    -0.3364 C.3     
  21 C21           11.3968     5.3727     1.1901 C.3     
  22 O22           10.1057     4.1376    -1.9141 O.2     
  23 O23            9.5780     4.5072     2.5417 O.2     
  24 C24           12.5711     4.5816     0.6185 C.3     
  25 C25           12.5200     3.0573     0.7395 C.3     
  26 C26           13.9636     5.2051     0.7326 C.3     
  27 H27            1.7681    -3.1399     2.0560 H       
  28 H28           -0.0366    -2.2106     0.6252 H       
  29 H29            0.3967    -0.1827    -0.7053 H       
  30 H30            3.9720    -1.9900     2.0921 H       
  31 H31            4.1259     1.6348    -0.6323 H       
  32 H32            7.2345     0.2998     0.3206 H       
  33 H33            5.0881     3.9597    -0.2138 H       
  34 H34            7.1967     5.2183    -0.0680 H       
  35 H35           11.8935     6.0839    -0.9583 H       
  36 H36           11.5749     6.3072     1.7221 H       
  37 H37           11.6386     2.6809     0.2204 H       
  38 H38           13.4162     2.6271     0.2926 H       
  39 H39           12.4688     2.7779     1.7919 H       
  40 H40           14.2061     5.3626     1.7835 H       
  41 H41           14.6991     4.5357     0.2864 H       
  42 H42           13.9777     6.1611     0.2092 H       
@<TRIPOS>BOND
   1    1    2 ar
   2    1    6 ar
   3    1   27 1
   4    2    3 ar
   5    2   28 1
   6    3    4 ar
   7    3   29 1
   8    4    5 ar
   9    5    6 ar
  10    5    7 1
  11    6   30 1
  12    7    8 am
  13    7    9 2
  14    8   10 1
  15    8   31 1
  16   10   11 ar
  17   10   12 ar
  18   11   15 ar
  19   11   32 1
  20   12   13 ar
  21   12   33 1
  22   13   14 ar
  23   13   34 1
  24   14   15 ar
  25   14   17 1
  26   15   16 1
  27   17   18 am
  28   17   19 am
  29   18   23 2
  30   18   21 1
  31   19   22 2
  32   19   20 1
  33   20   21 1
  34   20   24 1
  35   20   35 1
  36   21   24 1
  37   21   36 1
  38   24   25 1
  39   24   26 1
  40   25   37 1
  41   25   38 1
  42   25   39 1
  43   26   40 1
  44   26   41 1
  45   26   42 1

#	End of record

