#	Name: ASD00071046
#	Creating user name:	WinNT
#	Creation time:	15. 06. 2019 18:30

#	Modifying user name:	WinNT
#	Modification time:	15. 06. 2019 18:30

#	Program:	/corina/corina34_cracker 3.40 0067  02.08.2006

@<TRIPOS>MOLECULE
ASD00071046
  36   38    0    0    0
SMALL
NO_CHARGES


@<TRIPOS>ATOM
   1 N1             2.6309     1.0884    -0.0586 N.ar    
   2 C2             2.4060    -0.1912     0.1587 C.ar    
   3 C3             1.1045    -0.7122     0.1903 C.ar    
   4 C4             0.0381     0.1124    -0.0062 C.ar    
   5 C5             0.2852     1.4810    -0.2378 C.ar    
   6 C6            -0.7673     2.3852    -0.4474 C.ar    
   7 C7            -0.4923     3.7007    -0.6678 C.ar    
   8 C8             0.8239     4.1618    -0.6885 C.ar    
   9 C9             1.8697     3.3092    -0.4889 C.ar    
  10 C10            1.6231     1.9461    -0.2583 C.ar    
  11 N11            3.4816    -1.0431     0.3605 N.pl3   
  12 C12            0.8858    -2.1821     0.4408 C.3     
  13 C13            0.8592    -2.4401     1.9253 C.ar    
  14 C14           -0.3027    -2.2128     2.6489 C.ar    
  15 C15           -0.3240    -2.4512     4.0152 C.ar    
  16 C16            0.8112    -2.9144     4.6522 C.ar    
  17 C17            1.9677    -3.1397     3.9291 C.ar    
  18 C18            1.9897    -2.9086     2.5659 C.ar    
  19 O19           -1.4179    -1.7568     2.0201 O.3     
  20 C20           -2.5775    -1.5452     2.8279 C.3     
  21 F21            1.0666     5.4723    -0.9100 F       
  22 H22           -0.9708    -0.2724     0.0146 H       
  23 H23           -1.7904     2.0396    -0.4343 H       
  24 H24           -1.3034     4.3954    -0.8289 H       
  25 H25            2.8835     3.6809    -0.5085 H       
  26 H26            4.3779    -0.6815     0.4426 H       
  27 H27            3.3376    -2.0005     0.4194 H       
  28 H28           -0.0637    -2.4882     0.0017 H       
  29 H29            1.6965    -2.7525    -0.0126 H       
  30 H30           -1.2271    -2.2747     4.5806 H       
  31 H31            0.7951    -3.1002     5.7160 H       
  32 H32            2.8542    -3.5011     4.4290 H       
  33 H33            2.8930    -3.0900     2.0024 H       
  34 H34           -2.8695    -2.4846     3.2974 H       
  35 H35           -2.3537    -0.8078     3.5987 H       
  36 H36           -3.3938    -1.1819     2.2036 H       
@<TRIPOS>BOND
   1    1    2 ar
   2    1   10 ar
   3    2    3 ar
   4    2   11 1
   5    3    4 ar
   6    3   12 1
   7    4    5 ar
   8    4   22 1
   9    5    6 ar
  10    5   10 ar
  11    6    7 ar
  12    6   23 1
  13    7    8 ar
  14    7   24 1
  15    8    9 ar
  16    8   21 1
  17    9   10 ar
  18    9   25 1
  19   11   26 1
  20   11   27 1
  21   12   13 1
  22   12   28 1
  23   12   29 1
  24   13   14 ar
  25   13   18 ar
  26   14   15 ar
  27   14   19 1
  28   15   16 ar
  29   15   30 1
  30   16   17 ar
  31   16   31 1
  32   17   18 ar
  33   17   32 1
  34   18   33 1
  35   19   20 1
  36   20   34 1
  37   20   35 1
  38   20   36 1

#	End of record

