#	Name: ASD02198500
#	Creating user name:	WinNT
#	Creation time:	15. 06. 2019 20:19

#	Modifying user name:	WinNT
#	Modification time:	15. 06. 2019 20:19

#	Program:	/corina/corina34_cracker 3.40 0067  02.08.2006

@<TRIPOS>MOLECULE
ASD02198500
  52   57    0    0    0
SMALL
NO_CHARGES


@<TRIPOS>ATOM
   1 C1            -0.3012     0.9581    -1.1621 C.2     
   2 C2             0.2319    -0.2894    -1.1699 C.2     
   3 N3             1.5592    -0.4771    -0.9917 N.pl3   
   4 N4             2.3877     0.4835    -0.8070 N.2     
   5 C5             2.0038     1.7413    -0.7770 C.2     
   6 C6             0.5765     2.0507    -0.9618 C.2     
   7 C7             2.0531    -1.7857    -1.0093 C.ar    
   8 C8             3.9077    -3.3106    -1.0067 C.ar    
   9 C9             3.0244    -4.3803    -1.0453 C.ar    
  10 C10            1.6612    -4.1528    -1.0711 C.ar    
  11 C11            1.1735    -2.8609    -1.0533 C.ar    
  12 C12            2.9864     2.8229    -0.5614 C.2     
  13 N13            4.0435     2.7988     0.3044 N.pl3   
  14 N14            4.7145     4.0230     0.1925 N.2     
  15 C15            4.0993     4.7604    -0.6974 C.2     
  16 C16            3.0132     4.0435    -1.1995 C.2     
  17 C17            4.3930     1.7399     1.1520 C.ar    
  18 C18            3.4082     1.0534     1.8501 C.ar    
  19 O19            0.1668     3.2017    -0.9431 O.2     
  20 C20            5.7244     1.3707     1.2915 C.ar    
  21 C21            6.0657     0.3258     2.1277 C.ar    
  22 C22            5.0832    -0.3525     2.8256 C.ar    
  23 C23            3.7560     0.0094     2.6847 C.ar    
  24 C24            3.4224    -2.0122    -0.9887 C.ar    
  25 O25            5.2477    -3.5360    -0.9813 O.3     
  26 C26            5.8271    -4.0464    -2.0922 C.2     
  27 N27            7.1343    -4.4236    -2.1909 N.pl3   
  28 N28            5.2156    -4.2565    -3.2289 N.2     
  29 C29            6.0911    -4.7758    -4.1290 C.ar    
  30 C30            7.3311    -4.8904    -3.4792 C.ar    
  31 C31            5.9733    -5.1782    -5.4617 C.ar    
  32 C32            7.0712    -5.6786    -6.1244 C.ar    
  33 C33            8.2944    -5.7866    -5.4790 C.ar    
  34 C34            8.4265    -5.3975    -4.1623 C.ar    
  35 H35           -1.3600     1.1130    -1.3083 H       
  36 H36           -0.4119    -1.1434    -1.3200 H       
  37 H37            3.4025    -5.3919    -1.0556 H       
  38 H38            0.9761    -4.9871    -1.1012 H       
  39 H39            0.1079    -2.6859    -1.0731 H       
  40 H40            4.3879     5.7572    -0.9966 H       
  41 H41            2.3148     4.3865    -1.9485 H       
  42 H42            2.3716     1.3358     1.7408 H       
  43 H43            6.4921     1.8998     0.7465 H       
  44 H44            7.1009     0.0379     2.2364 H       
  45 H45            5.3526    -1.1694     3.4786 H       
  46 H46            2.9911    -0.5220     3.2314 H       
  47 H47            4.1083    -1.1785    -0.9590 H       
  48 H48            7.8020    -4.3734    -1.4890 H       
  49 H49            5.0239    -5.0972    -5.9702 H       
  50 H50            6.9795    -5.9898    -7.1545 H       
  51 H51            9.1481    -6.1812    -6.0099 H       
  52 H52            9.3816    -5.4839    -3.6655 H       
@<TRIPOS>BOND
   1    1    2 2
   2    1    6 1
   3    1   35 1
   4    2    3 1
   5    2   36 1
   6    3    4 1
   7    3    7 1
   8    4    5 2
   9    5    6 1
  10    5   12 1
  11    6   19 2
  12    7   24 ar
  13    7   11 ar
  14    8    9 ar
  15    8   25 1
  16    8   24 ar
  17    9   10 ar
  18    9   37 1
  19   10   11 ar
  20   10   38 1
  21   11   39 1
  22   12   13 1
  23   12   16 2
  24   13   14 1
  25   13   17 1
  26   14   15 2
  27   15   16 1
  28   15   40 1
  29   16   41 1
  30   17   20 ar
  31   17   18 ar
  32   18   23 ar
  33   18   42 1
  34   20   21 ar
  35   20   43 1
  36   21   22 ar
  37   21   44 1
  38   22   23 ar
  39   22   45 1
  40   23   46 1
  41   24   47 1
  42   25   26 1
  43   26   27 1
  44   26   28 2
  45   27   30 1
  46   27   48 1
  47   28   29 1
  48   29   30 ar
  49   29   31 ar
  50   30   34 ar
  51   31   32 ar
  52   31   49 1
  53   32   33 ar
  54   32   50 1
  55   33   34 ar
  56   33   51 1
  57   34   52 1

#	End of record

