#	Name: ASD00111042
#	Creating user name:	WinNT
#	Creation time:	15. 06. 2019 18:30

#	Modifying user name:	WinNT
#	Modification time:	15. 06. 2019 18:30

#	Program:	/corina/corina34_cracker 3.40 0067  02.08.2006

@<TRIPOS>MOLECULE
ASD00111042
  41   43    0    0    0
SMALL
NO_CHARGES


@<TRIPOS>ATOM
   1 C1            -0.0168     1.3889     0.0097 C.ar    
   2 C2             0.0021    -0.0041     0.0020 C.ar    
   3 C3             1.2212    -0.6808    -0.0127 C.ar    
   4 C4             2.3989     0.0391    -0.0194 C.ar    
   5 C5             2.3747     1.4135    -0.0130 C.ar    
   6 C6             1.1705     2.0947     0.0021 C.ar    
   7 C7             3.7256    -0.6921    -0.0336 C.3     
   8 C8             4.3819    -0.4715    -1.4001 C.3     
   9 N9             5.1227     0.7792    -1.4226 N.3     
  10 C10            4.3383     2.0027    -1.3897 C.3     
  11 C11            3.6758     2.1898    -0.0221 C.3     
  12 C12            3.3921     3.6745     0.2148 C.3     
  13 C13           -1.2716    -0.7655     0.0100 C.ar    
  14 C14           -2.4892    -0.0896     0.0251 C.ar    
  15 C15           -1.2528    -2.1587    -0.0035 C.ar    
  16 C16           -2.4391    -2.8650     0.0035 C.ar    
  17 C17           -3.6472    -2.1939     0.0233 C.ar    
  18 C18           -3.6746    -0.8059     0.0320 C.ar    
  19 O19           -4.8648    -0.1500     0.0516 O.3     
  20 C20           -6.0474    -0.9520     0.0624 C.3     
  21 H21           -0.9591     1.9166     0.0170 H       
  22 H22            1.2438    -1.7606    -0.0184 H       
  23 H23            1.1589     3.1746     0.0071 H       
  24 H24            4.3707    -0.2980     0.7517 H       
  25 H25            3.5597    -1.7574     0.1267 H       
  26 H26            5.0641    -1.2960    -1.6073 H       
  27 H27            3.6095    -0.4446    -2.1686 H       
  28 H28            5.8377     0.7888    -0.7107 H       
  29 H29            4.9908     2.8523    -1.5912 H       
  30 H30            3.5666     1.9544    -2.1580 H       
  31 H31            4.3343     1.8117     0.7599 H       
  32 H32            2.7253     4.0457    -0.5635 H       
  33 H33            2.9207     3.8034     1.1890 H       
  34 H34            4.3283     4.2321     0.1875 H       
  35 H35           -2.5091     0.9902     0.0319 H       
  36 H36           -0.3104    -2.6860    -0.0198 H       
  37 H37           -2.4231    -3.9449    -0.0070 H       
  38 H38           -4.5725    -2.7508     0.0280 H       
  39 H39           -6.0715    -1.5758    -0.8311 H       
  40 H40           -6.0481    -1.5865     0.9486 H       
  41 H41           -6.9248    -0.3054     0.0778 H       
@<TRIPOS>BOND
   1    1    2 ar
   2    1    6 ar
   3    1   21 1
   4    2    3 ar
   5    2   13 1
   6    3    4 ar
   7    3   22 1
   8    4    5 ar
   9    4    7 1
  10    5    6 ar
  11    5   11 1
  12    6   23 1
  13    7    8 1
  14    7   24 1
  15    7   25 1
  16    8    9 1
  17    8   26 1
  18    8   27 1
  19    9   10 1
  20    9   28 1
  21   10   11 1
  22   10   29 1
  23   10   30 1
  24   11   12 1
  25   11   31 1
  26   12   32 1
  27   12   33 1
  28   12   34 1
  29   13   14 ar
  30   13   15 ar
  31   14   18 ar
  32   14   35 1
  33   15   16 ar
  34   15   36 1
  35   16   17 ar
  36   16   37 1
  37   17   18 ar
  38   17   38 1
  39   18   19 1
  40   19   20 1
  41   20   39 1
  42   20   40 1
  43   20   41 1

#	End of record

