#	Name: ASD07301208
#	Creating user name:	WinNT
#	Creation time:	15. 06. 2019 21:11

#	Modifying user name:	WinNT
#	Modification time:	15. 06. 2019 21:11

#	Program:	/corina/corina34_cracker 3.40 0067  02.08.2006

@<TRIPOS>MOLECULE
ASD07301208
  36   37    0    0    0
SMALL
NO_CHARGES


@<TRIPOS>ATOM
   1 C1            -0.0178     1.4648     0.0101 C.2     
   2 C2             0.0021    -0.0041     0.0020 C.2     
   3 C3             1.2768    -0.6367    -0.0136 C.2     
   4 C4             2.3782     0.1590    -0.0198 C.2     
   5 N5             2.2576     1.5098    -0.0114 N.pl3   
   6 N6             1.1283     2.1157     0.0026 N.2     
   7 C7            -1.2986     2.1987     0.0202 C.2     
   8 O8            -2.3495     1.5874     0.0218 O.2     
   9 N9            -1.3029     3.5464     0.0275 N.am    
  10 O10           -1.0317    -0.6549     0.0088 O.2     
  11 C11           -2.5739     4.2748     0.0375 C.3     
  12 O12            1.3888    -1.9916    -0.0215 O.3     
  13 C13            2.7111    -2.5332    -0.0370 C.3     
  14 O14           -0.0789     4.2584     0.0256 O.3     
  15 C15            0.4173     4.5577    -1.2807 C.3     
  16 C16            3.4249     2.2808    -0.0179 C.ar    
  17 C17            3.6350     3.2361     0.9719 C.ar    
  18 C18            4.7899     3.9963     0.9631 C.ar    
  19 C19            5.7362     3.8080    -0.0284 C.ar    
  20 C20            5.5297     2.8575    -1.0154 C.ar    
  21 C21            4.3788     2.0904    -1.0088 C.ar    
  22 F22            6.4557     2.6766    -1.9824 F       
  23 F23            2.7112     3.4208     1.9403 F       
  24 Br24           7.3141     4.8502    -0.0373 Br      
  25 H25            3.3607    -0.2893    -0.0312 H       
  26 H26           -2.8843     4.4499     1.0676 H       
  27 H27           -2.4491     5.2305    -0.4717 H       
  28 H28           -3.3341     3.6861    -0.4759 H       
  29 H29            3.2334    -2.1910    -0.9304 H       
  30 H30            3.2507    -2.1999     0.8494 H       
  31 H31            2.6578    -3.6219    -0.0420 H       
  32 H32            1.3570     5.1036    -1.1961 H       
  33 H33            0.5842     3.6296    -1.8274 H       
  34 H34           -0.3107     5.1682    -1.8148 H       
  35 H35            4.9534     4.7381     1.7309 H       
  36 H36            4.2204     1.3469    -1.7759 H       
@<TRIPOS>BOND
   1    1    2 1
   2    1    6 2
   3    1    7 1
   4    2    3 1
   5    2   10 2
   6    3    4 2
   7    3   12 1
   8    4    5 1
   9    4   25 1
  10    5    6 1
  11    5   16 1
  12    7    8 2
  13    7    9 am
  14    9   11 1
  15    9   14 1
  16   11   26 1
  17   11   27 1
  18   11   28 1
  19   12   13 1
  20   13   29 1
  21   13   30 1
  22   13   31 1
  23   14   15 1
  24   15   32 1
  25   15   33 1
  26   15   34 1
  27   16   17 ar
  28   16   21 ar
  29   17   18 ar
  30   17   23 1
  31   18   19 ar
  32   18   35 1
  33   19   20 ar
  34   19   24 1
  35   20   21 ar
  36   20   22 1
  37   21   36 1

#	End of record

