#	Name: ASD01410954
#	Creating user name:	WinNT
#	Creation time:	15. 06. 2019 19:19

#	Modifying user name:	WinNT
#	Modification time:	15. 06. 2019 19:19

#	Program:	/corina/corina34_cracker 3.40 0067  02.08.2006

@<TRIPOS>MOLECULE
ASD01410954
  64   67    0    0    0
SMALL
NO_CHARGES


@<TRIPOS>ATOM
   1 C1            -1.4023     3.0589     0.2081 C.ar    
   2 C2            -1.3244     0.7014    -0.2518 C.ar    
   3 C3            -2.7115     0.6574    -0.2870 C.ar    
   4 C4            -3.4518     1.8279    -0.0600 C.ar    
   5 C5            -2.7847     3.0312     0.1821 C.ar    
   6 O6            -0.7525     4.2287     0.4492 O.3     
   7 C7            -0.0553     4.7917    -0.5693 C.ar    
   8 N8            -3.3665    -0.5469    -0.5354 N.am    
   9 C9            -3.6649    -1.3748     0.4854 C.2     
  10 C10           -3.4461    -0.9378     1.8781 C.ar    
  11 O11           -4.1142    -2.4816     0.2590 O.2     
  12 C12           -2.7970     0.2712     2.1406 C.ar    
  13 C13           -3.6839    -1.3130     4.2429 C.ar    
  14 C14           -3.0351    -0.1169     4.4932 C.ar    
  15 C15           -2.5956     0.6739     3.4429 C.ar    
  16 Cl16          -2.7764     0.3995     6.1303 Cl      
  17 N17           -0.1183     4.2598    -1.7791 N.ar    
  18 C18           -3.7310    -0.9132    -1.9062 C.3     
  19 C19           -4.4957     0.2414    -2.5565 C.3     
  20 C20            0.7132     5.9244    -0.3334 C.ar    
  21 C21            1.4197     6.4891    -1.3813 C.ar    
  22 C22            1.3317     5.8977    -2.6338 C.ar    
  23 C23            0.5436     4.7755    -2.7972 C.ar    
  24 C24           -3.8928    -1.7295     2.9413 C.ar    
  25 C25            2.0829     6.4778    -3.8043 C.3     
  26 C26           -2.4624    -1.2023    -2.7113 C.3     
  27 O27           -1.8102    -2.3550    -2.1748 O.3     
  28 C28           -0.6075    -2.7132    -2.8585 C.3     
  29 C29           -0.6750     1.8940    -0.0057 C.ar    
  30 N30            3.4121     5.8669    -3.8827 N.pl3   
  31 N31            3.6883     4.8011    -4.5472 N.2     
  32 C32            4.9663     4.5331    -4.4021 C.2     
  33 C33            5.4766     5.5377    -3.5767 C.2     
  34 N34            4.4629     6.3265    -3.3009 N.2     
  35 F35           -4.5268    -2.8972     2.6970 F       
  36 C36           -4.9247     1.7914    -0.0952 C.2     
  37 O37           -5.5049     0.7253    -0.1511 O.2     
  38 O38           -5.6280     2.9405    -0.0653 O.3     
  39 C39            0.7766     6.5307     1.0448 C.3     
  40 F40            1.6102     7.6540     1.0221 F       
  41 F41           -0.5083     6.9114     1.4463 F       
  42 F42            1.2869     5.5894     1.9453 F       
  43 H43           -0.7522    -0.1978    -0.4261 H       
  44 H44           -3.3474     3.9378     0.3489 H       
  45 H45           -2.4533     0.8890     1.3241 H       
  46 H46           -4.0238    -1.9244     5.0657 H       
  47 H47           -2.0936     1.6082     3.6459 H       
  48 H48           -4.3611    -1.8025    -1.8893 H       
  49 H49           -3.8849     1.1438    -2.5275 H       
  50 H50           -4.7224    -0.0107    -3.5925 H       
  51 H51           -5.4246     0.4139    -2.0129 H       
  52 H52            2.0253     7.3700    -1.2278 H       
  53 H53            0.4720     4.3112    -3.7697 H       
  54 H54            1.5349     6.2747    -4.7244 H       
  55 H55            2.1852     7.5549    -3.6726 H       
  56 H56           -2.7270    -1.3862    -3.7526 H       
  57 H57           -1.7917    -0.3451    -2.6527 H       
  58 H58           -0.8336    -2.9284    -3.9028 H       
  59 H59            0.1017    -1.8873    -2.8030 H       
  60 H60           -0.1733    -3.5970    -2.3911 H       
  61 H61            0.4043     1.9223     0.0205 H       
  62 H62            5.5106     3.7055    -4.8325 H       
  63 H63            6.4965     5.6463    -3.2383 H       
  64 H64           -6.5919     2.8661    -0.0904 H       
@<TRIPOS>BOND
   1    1   29 ar
   2    1    6 1
   3    1    5 ar
   4    2    3 ar
   5    2   29 ar
   6    2   43 1
   7    3    4 ar
   8    3    8 1
   9    4    5 ar
  10    4   36 1
  11    5   44 1
  12    6    7 1
  13    7   20 ar
  14    7   17 ar
  15    8    9 am
  16    8   18 1
  17    9   10 1
  18    9   11 2
  19   10   12 ar
  20   10   24 ar
  21   12   15 ar
  22   12   45 1
  23   13   14 ar
  24   13   24 ar
  25   13   46 1
  26   14   15 ar
  27   14   16 1
  28   15   47 1
  29   17   23 ar
  30   18   19 1
  31   18   26 1
  32   18   48 1
  33   19   49 1
  34   19   50 1
  35   19   51 1
  36   20   21 ar
  37   20   39 1
  38   21   22 ar
  39   21   52 1
  40   22   23 ar
  41   22   25 1
  42   23   53 1
  43   24   35 1
  44   25   30 1
  45   25   54 1
  46   25   55 1
  47   26   27 1
  48   26   56 1
  49   26   57 1
  50   27   28 1
  51   28   58 1
  52   28   59 1
  53   28   60 1
  54   29   61 1
  55   30   31 1
  56   30   34 1
  57   31   32 2
  58   32   33 1
  59   32   62 1
  60   33   34 2
  61   33   63 1
  62   36   37 2
  63   36   38 1
  64   38   64 1
  65   39   40 1
  66   39   41 1
  67   39   42 1

#	End of record

