#	Name: ASD02198320
#	Creating user name:	WinNT
#	Creation time:	15. 06. 2019 20:19

#	Modifying user name:	WinNT
#	Modification time:	15. 06. 2019 20:19

#	Program:	/corina/corina34_cracker 3.40 0067  02.08.2006

@<TRIPOS>MOLECULE
ASD02198320
  56   60    0    0    0
SMALL
NO_CHARGES


@<TRIPOS>ATOM
   1 C1             1.4260     1.7994     0.6968 C.2     
   2 C2             1.6912     0.4575     0.8967 C.2     
   3 S3             2.3748     2.3321    -0.6887 S.3     
   4 C4             3.0213     0.7611    -0.8711 C.2     
   5 N5             2.5455    -0.0435     0.0353 N.2     
   6 N6             1.1101    -0.2880     1.9103 N.pl3   
   7 C7             0.5503     2.5957     1.4596 C.2     
   8 C8             0.4696     4.0510     1.2123 C.ar    
   9 O9            -0.1416     2.0849     2.3244 O.2     
  10 N10            3.9233     0.3952    -1.8453 N.pl3   
  11 C11           -0.7281     4.7338     1.4360 C.ar    
  12 C12            1.5925     4.7475     0.7598 C.ar    
  13 C13            1.5136     6.1033     0.5304 C.ar    
  14 C14            0.3185     6.7785     0.7491 C.ar    
  15 C15           -0.7996     6.0896     1.2044 C.ar    
  16 O16            0.2446     8.1147     0.5224 O.3     
  17 C17            0.0577     8.5354    -0.7561 C.ar    
  18 C18           -0.0101     7.6114    -1.7890 C.ar    
  19 C19           -0.2001     8.0418    -3.0878 C.ar    
  20 C20           -0.3223     9.3921    -3.3591 C.ar    
  21 C21           -0.2548    10.3150    -2.3317 C.ar    
  22 C22           -0.0715     9.8895    -1.0303 C.ar    
  23 C23            4.3883    -0.9236    -1.9088 C.ar    
  24 C24            3.5538    -1.9728    -1.5460 C.ar    
  25 C25            4.0132    -3.2734    -1.6089 C.ar    
  26 C26            5.3081    -3.5322    -2.0344 C.ar    
  27 C27            6.1424    -2.4846    -2.3971 C.ar    
  28 C28            5.6826    -1.1839    -2.3402 C.ar    
  29 O29            5.7600    -4.8131    -2.0957 O.3     
  30 C30            5.3803    -5.5734    -3.1559 C.ar    
  31 C31            4.6388    -5.0105    -4.1849 C.ar    
  32 C32            5.7382    -6.9128    -3.2143 C.ar    
  33 C33            5.3509    -7.6836    -4.2932 C.ar    
  34 C34            4.6076    -7.1214    -5.3147 C.ar    
  35 C35            4.2541    -5.7857    -5.2615 C.ar    
  36 H36            0.4838     0.1299     2.5218 H       
  37 H37            1.3298    -1.2277     2.0082 H       
  38 H38            4.2364     1.0513    -2.4874 H       
  39 H39           -1.5973     4.1992     1.7898 H       
  40 H40            2.5216     4.2236     0.5903 H       
  41 H41            2.3815     6.6425     0.1805 H       
  42 H42           -1.7265     6.6175     1.3733 H       
  43 H43            0.0861     6.5566    -1.5778 H       
  44 H44           -0.2529     7.3230    -3.8921 H       
  45 H45           -0.4705     9.7265    -4.3752 H       
  46 H46           -0.3502    11.3692    -2.5462 H       
  47 H47           -0.0192    10.6108    -0.2281 H       
  48 H48            2.5459    -1.7714    -1.2144 H       
  49 H49            3.3644    -4.0893    -1.3264 H       
  50 H50            7.1503    -2.6868    -2.7282 H       
  51 H51            6.3321    -0.3685    -2.6225 H       
  52 H52            4.3624    -3.9673    -4.1438 H       
  53 H53            6.3194    -7.3522    -2.4171 H       
  54 H54            5.6293    -8.7261    -4.3391 H       
  55 H55            4.3061    -7.7257    -6.1575 H       
  56 H56            3.6732    -5.3492    -6.0605 H       
@<TRIPOS>BOND
   1    1    2 2
   2    1    3 1
   3    1    7 1
   4    2    6 1
   5    2    5 1
   6    3    4 1
   7    4    5 2
   8    4   10 1
   9    6   36 1
  10    6   37 1
  11    7    8 1
  12    7    9 2
  13    8   11 ar
  14    8   12 ar
  15   10   23 1
  16   10   38 1
  17   11   15 ar
  18   11   39 1
  19   12   13 ar
  20   12   40 1
  21   13   14 ar
  22   13   41 1
  23   14   15 ar
  24   14   16 1
  25   15   42 1
  26   16   17 1
  27   17   18 ar
  28   17   22 ar
  29   18   19 ar
  30   18   43 1
  31   19   20 ar
  32   19   44 1
  33   20   21 ar
  34   20   45 1
  35   21   22 ar
  36   21   46 1
  37   22   47 1
  38   23   24 ar
  39   23   28 ar
  40   24   25 ar
  41   24   48 1
  42   25   26 ar
  43   25   49 1
  44   26   27 ar
  45   26   29 1
  46   27   28 ar
  47   27   50 1
  48   28   51 1
  49   29   30 1
  50   30   31 ar
  51   30   32 ar
  52   31   35 ar
  53   31   52 1
  54   32   33 ar
  55   32   53 1
  56   33   34 ar
  57   33   54 1
  58   34   35 ar
  59   34   55 1
  60   35   56 1

#	End of record

