#	Name: ASD05430222
#	Creating user name:	WinNT
#	Creation time:	15. 06. 2019 21:00

#	Modifying user name:	WinNT
#	Modification time:	15. 06. 2019 21:00

#	Program:	/corina/corina34_cracker 3.40 0067  02.08.2006

@<TRIPOS>MOLECULE
ASD05430222
  67   73    0    0    0
SMALL
NO_CHARGES


@<TRIPOS>ATOM
   1 C1            -0.0706     1.2183    -0.3185 C.ar    
   2 C2            -0.0153    -0.0174     0.3253 C.ar    
   3 C3            -1.1649    -0.5694     0.8759 C.ar    
   4 C4            -2.3652     0.1014     0.7886 C.ar    
   5 C5            -2.4282     1.3412     0.1443 C.ar    
   6 C6            -1.2701     1.8993    -0.4053 C.ar    
   7 C7            -4.8757    -0.1261    -0.2262 C.3     
   8 C8            -4.8620     1.3704    -0.0439 C.2     
   9 C9            -3.7098     2.0594     0.0500 C.2     
  10 C10           -5.9972    -0.5672    -1.1592 C.3     
  11 C11           -7.3784     0.0108    -0.8746 C.3     
  12 N12           -7.3258     1.3899    -0.4206 N.pl3   
  13 C13           -6.1737     2.0427     0.0262 C.2     
  14 N14            1.2029    -0.7043     0.4166 N.pl3   
  15 C15            2.0614    -0.9647    -0.6033 C.2     
  16 C16            1.7559    -1.2350     1.5532 C.2     
  17 C17            2.9222    -1.8027     1.1910 C.2     
  18 N18            3.0835    -1.6231    -0.1283 N.2     
  19 C19            3.8821    -2.5133     2.1100 C.3     
  20 C20           -8.3931     2.3833    -0.3562 C.3     
  21 O21           -7.8646     3.4250     0.4736 O.3     
  22 N22           -6.4583     3.2094     0.5029 N.2     
  23 C23           -8.7932     2.8890    -1.7023 C.ar    
  24 C24          -10.1573     2.6340    -1.8778 C.ar    
  25 N25          -10.7077     2.0015    -0.7734 N.pl3   
  26 C26           -9.6718     1.7942     0.2510 C.3     
  27 C27           -8.0356     3.5131    -2.6779 C.ar    
  28 C28           -8.6864     3.8829    -3.8500 C.ar    
  29 C29          -10.0354     3.6365    -4.0331 C.ar    
  30 C30          -10.8014     3.0105    -3.0603 C.ar    
  31 F31          -10.6223     4.0155    -5.1895 F       
  32 C32           -5.6057    -0.4313    -2.6395 C.3     
  33 S33           -6.6110    -1.8857    -3.0410 S.o2    
  34 C34           -6.0349    -2.0946    -1.3343 C.3     
  35 O35            1.0567     1.7558    -0.8559 O.3     
  36 C36            0.9268     3.0245    -1.5006 C.3     
  37 O37           -7.9986    -1.5901    -3.1207 O.2     
  38 O38           -5.9658    -2.7660    -3.9509 O.2     
  39 F39           -7.9869     4.4959    -4.8299 F       
  40 C40            2.2896     3.4649    -2.0390 C.3     
  41 H41           -1.1178    -1.5269     1.3733 H       
  42 H42           -3.2575    -0.3303     1.2173 H       
  43 H43           -1.3143     2.8564    -0.9036 H       
  44 H44           -3.9200    -0.4425    -0.6440 H       
  45 H45           -5.0130    -0.6017     0.7450 H       
  46 H46           -3.7253     3.1393     0.0561 H       
  47 H47           -7.9747    -0.0373    -1.7858 H       
  48 H48           -7.8620    -0.5941    -0.1076 H       
  49 H49            1.9217    -0.6754    -1.6344 H       
  50 H50            1.3370    -1.2036     2.5481 H       
  51 H51            3.6265    -3.5720     2.1542 H       
  52 H52            4.8982    -2.4003     1.7319 H       
  53 H53            3.8159    -2.0817     3.1087 H       
  54 H54          -11.6368     1.7361    -0.6885 H       
  55 H55           -9.5421     0.7302     0.4491 H       
  56 H56           -9.9342     2.3221     1.1678 H       
  57 H57           -6.9825     3.7054    -2.5348 H       
  58 H58          -11.8541     2.8214    -3.2105 H       
  59 H59           -5.9767     0.4853    -3.0980 H       
  60 H60           -4.5411    -0.5847    -2.8165 H       
  61 H61           -5.0503    -2.5576    -1.2684 H       
  62 H62           -6.7683    -2.5813    -0.6914 H       
  63 H63            0.2195     2.9421    -2.3258 H       
  64 H64            0.5642     3.7610    -0.7835 H       
  65 H65            2.6521     2.7284    -2.7561 H       
  66 H66            2.1905     4.4326    -2.5307 H       
  67 H67            2.9969     3.5473    -1.2138 H       
@<TRIPOS>BOND
   1    1    2 ar
   2    1   35 1
   3    1    6 ar
   4    2    3 ar
   5    2   14 1
   6    3    4 ar
   7    3   41 1
   8    4    5 ar
   9    4   42 1
  10    5    6 ar
  11    5    9 1
  12    6   43 1
  13    7    8 1
  14    7   10 1
  15    7   44 1
  16    7   45 1
  17    8    9 2
  18    8   13 1
  19    9   46 1
  20   10   11 1
  21   10   32 1
  22   10   34 1
  23   11   12 1
  24   11   47 1
  25   11   48 1
  26   12   13 1
  27   12   20 1
  28   13   22 2
  29   14   15 1
  30   14   16 1
  31   15   18 2
  32   15   49 1
  33   16   17 2
  34   16   50 1
  35   17   18 1
  36   17   19 1
  37   19   51 1
  38   19   52 1
  39   19   53 1
  40   20   21 1
  41   20   23 1
  42   20   26 1
  43   21   22 1
  44   23   24 ar
  45   23   27 ar
  46   24   25 1
  47   24   30 ar
  48   25   26 1
  49   25   54 1
  50   26   55 1
  51   26   56 1
  52   27   28 ar
  53   27   57 1
  54   28   29 ar
  55   28   39 1
  56   29   30 ar
  57   29   31 1
  58   30   58 1
  59   32   33 1
  60   32   59 1
  61   32   60 1
  62   33   34 1
  63   33   37 2
  64   33   38 2
  65   34   61 1
  66   34   62 1
  67   35   36 1
  68   36   40 1
  69   36   63 1
  70   36   64 1
  71   40   65 1
  72   40   66 1
  73   40   67 1

#	End of record

