#	Name: ASD06610062
#	Creating user name:	WinNT
#	Creation time:	15. 06. 2019 21:07

#	Modifying user name:	WinNT
#	Modification time:	15. 06. 2019 21:07

#	Program:	/corina/corina34_cracker 3.40 0067  02.08.2006

@<TRIPOS>MOLECULE
ASD06610062
 287  287    0    0    0
SMALL
NO_CHARGES


@<TRIPOS>ATOM
   1 C1           -11.2928    12.0559    11.9560 C.2     
   2 O2           -11.0502    11.2301    12.8105 O.2     
   3 N3           -10.7538    13.7226    13.6355 N.am    
   4 C4           -10.9852    13.5101    12.2046 C.3     
   5 C5            -9.7327    13.9076    11.4209 C.3     
   6 C6            -9.4921    15.4110    11.5725 C.3     
   7 C7            -8.5258    13.1405    11.9648 C.3     
   8 C8           -12.0583    10.0247     9.0147 C.2     
   9 O9           -12.3209    10.9409     8.2647 O.2     
  10 N10          -11.8323    11.6723    10.7820 N.am    
  11 C11          -12.0476    10.2500    10.5047 C.3     
  12 C12          -13.3890     9.8124    11.0964 C.3     
  13 C13          -13.3384     9.9351    12.6206 C.3     
  14 C14          -14.6799     9.4975    13.2122 C.3     
  15 N15          -14.6315     9.6150    14.6717 N.pl3   
  16 C16          -15.7299     9.2752    15.4255 C.2     
  17 N17          -16.8143     8.8485    14.8416 N.2     
  18 N18          -15.6844     9.3854    16.7951 N.pl3   
  19 C19          -13.2008     8.6498     6.5443 C.2     
  20 O20          -14.0782     9.0774     7.2641 O.2     
  21 N21          -11.7760     8.8050     8.5155 N.am    
  22 C22          -11.8149     8.4308     7.0943 C.3     
  23 C23          -11.4446     6.9354     7.0039 C.3     
  24 C24          -11.7694     6.4103     8.4273 C.3     
  25 C25          -11.3710     7.6268     9.3037 C.3     
  26 C26          -15.0312     7.6788     3.5328 C.2     
  27 O27          -14.0913     7.1011     3.0291 O.2     
  28 N28          -13.4651     8.3705     5.2526 N.am    
  29 C29          -14.8123     8.5834     4.7180 C.3     
  30 C30          -14.9631    10.0419     4.2810 C.3     
  31 C31          -14.8616    10.9542     5.5051 C.3     
  32 C32          -13.8529    10.3944     3.2889 C.3     
  33 C33          -17.7384     7.1651     1.1306 C.2     
  34 O34          -18.4110     8.0508     1.6146 O.2     
  35 N35          -16.2715     7.5117     3.0325 N.am    
  36 C36          -16.4696     6.7237     1.8135 C.3     
  37 C37          -16.5749     5.2410     2.1761 C.3     
  38 C38          -20.5055     6.1014     0.0157 C.2     
  39 O39          -20.2330     5.3037     0.8876 O.2     
  40 N40          -18.1258     6.5758    -0.0179 N.am    
  41 C41          -19.4147     6.9235    -0.6211 C.3     
  42 C42          -19.3694     6.6348    -2.1230 C.3     
  43 C43          -18.3583     7.5400    -2.7782 C.2     
  44 O44          -17.6836     8.2863    -2.1008 O.2     
  45 N45          -18.2038     7.5203    -4.1169 N.am    
  46 C46          -24.0007     5.3255    -0.7223 C.2     
  47 O47          -23.9447     5.8501    -1.8144 O.2     
  48 N48          -21.7838     6.2528    -0.3837 N.am    
  49 C49          -22.8442     5.4537     0.2353 C.3     
  50 C50          -23.3176     6.1405     1.5179 C.3     
  51 C51          -27.4899     4.2539    -0.5214 C.2     
  52 O52          -27.4578     4.1867     0.6892 O.2     
  53 N53          -25.0972     4.6280    -0.3651 N.am    
  54 C54          -26.2216     4.5035    -1.2960 C.3     
  55 C55          -25.9675     3.3337    -2.2490 C.3     
  56 C56          -24.7505     3.6432    -3.1232 C.3     
  57 C57          -24.4965     2.4734    -4.0761 C.3     
  58 N58          -23.3312     2.7697    -4.9131 N.pl3   
  59 C59          -22.9096     1.8581    -5.8519 C.2     
  60 N60          -23.5465     0.7302    -5.9973 N.2     
  61 N61          -21.8160     2.1362    -6.6375 N.pl3   
  62 C62          -30.9114     3.2023    -1.2370 C.2     
  63 O63          -30.8698     3.2490    -2.4482 O.2     
  64 N64          -28.6598     4.1054    -1.1738 N.am    
  65 C65          -29.9081     3.9732    -0.4184 C.3     
  66 C66          -30.4650     5.3636    -0.1063 C.3     
  67 C67          -31.7363     5.2270     0.7339 C.3     
  68 C68          -31.3874     4.6119     2.0907 C.3     
  69 C69          -32.3589     6.6085     0.9453 C.3     
  70 C70          -34.1156     1.5818    -0.5516 C.2     
  71 O71          -34.1103     1.9363     0.6083 O.2     
  72 N72          -31.8549     2.4610    -0.6232 N.am    
  73 C73          -32.8995     1.8046    -1.4132 C.3     
  74 C74          -32.3825     0.4582    -1.9239 C.3     
  75 C75          -31.2256     0.6921    -2.8974 C.3     
  76 C76          -30.7086    -0.6544    -3.4080 C.3     
  77 N77          -29.6009    -0.4304    -4.3401 N.pl3   
  78 C78          -28.9727    -1.5011    -4.9311 C.2     
  79 N79          -29.3627    -2.7153    -4.6621 N.2     
  80 N80          -27.9331    -1.2909    -5.8059 N.pl3   
  81 C81          -37.1893    -0.3840    -0.7787 C.2     
  82 O82          -36.8080    -0.9690    -1.7702 O.2     
  83 N83          -35.2092     0.9884    -1.0698 N.am    
  84 C84          -36.3914     0.7718    -0.2322 C.3     
  85 C85          -37.2557     2.0342    -0.2336 C.3     
  86 C86          -36.4898     3.1775     0.4352 C.3     
  87 C87          -37.3017     4.4694     0.3233 C.3     
  88 C88          -36.2624     2.8443     1.9111 C.3     
  89 C89          -40.5428    -1.7498    -0.2772 C.2     
  90 O90          -40.8876    -0.8039     0.3990 O.2     
  91 N91          -38.3266    -0.7674    -0.1655 N.am    
  92 C92          -39.1023    -1.8909    -0.6968 C.3     
  93 C93          -38.5381    -3.2039    -0.1502 C.3     
  94 C94          -37.1168    -3.4075    -0.6787 C.3     
  95 C95          -36.5527    -4.7204    -0.1321 C.3     
  96 N96          -35.1917    -4.9154    -0.6381 N.pl3   
  97 C97          -34.4785    -6.0346    -0.2790 C.2     
  98 N98          -33.2677    -6.2080    -0.7293 N.2     
  99 N99          -35.0425    -6.9708     0.5549 N.pl3   
 100 C100         -43.5021    -3.8953    -0.2293 C.2     
 101 O101         -42.9695    -4.8315    -0.7868 O.2     
 102 N102         -41.4480    -2.6748    -0.6534 N.am    
 103 C103         -42.8483    -2.5376    -0.2455 C.3     
 104 C104         -43.5814    -1.6304    -1.2357 C.3     
 105 C105         -42.9592    -0.2330    -1.2040 C.3     
 106 C106         -43.4597    -2.2110    -2.6460 C.3     
 107 C107         -46.0466    -5.7250    -0.7248 C.2     
 108 O108         -46.1181    -4.9128    -1.6165 O.2     
 109 N109         -44.6786    -4.0692     0.4048 N.am    
 110 C110         -45.2576    -5.4100     0.5199 C.3     
 111 C111         -46.1827    -5.4633     1.7373 C.3     
 112 O112         -47.2934    -4.5884     1.5302 O.3     
 113 O113         -46.6701    -6.9079    -0.8428 O.3     
 114 C114         -10.9580    14.9394    14.1777 C.2     
 115 O115         -11.3334    15.8585    13.4811 O.2     
 116 C116         -11.1521    26.9111    28.5940 C.3     
 117 C117         -11.3937    26.6892    27.0996 C.3     
 118 C118         -11.0903    25.2321    26.7448 C.3     
 119 C119         -11.3320    25.0102    25.2504 C.3     
 120 C120         -11.0286    23.5531    24.8956 C.3     
 121 C121         -11.2703    23.3311    23.4012 C.3     
 122 C122         -10.9669    21.8741    23.0464 C.3     
 123 C123         -11.2085    21.6521    21.5520 C.3     
 124 C124         -10.9052    20.1951    21.1972 C.3     
 125 C125         -11.1468    19.9731    19.7028 C.3     
 126 C126         -10.8434    18.5161    19.3481 C.3     
 127 C127         -11.0851    18.2941    17.8537 C.3     
 128 C128         -10.7817    16.8371    17.4989 C.3     
 129 C129         -11.0234    16.6151    16.0045 C.3     
 130 C130         -10.7200    15.1581    15.6497 C.3     
 131 H131         -10.4536    12.9875    14.1927 H       
 132 H132         -11.8271    14.1205    11.8781 H       
 133 H133          -9.8718    13.6664    10.3670 H       
 134 H134          -9.3531    15.6522    12.6263 H       
 135 H135          -8.5998    15.6942    11.0141 H       
 136 H136         -10.3519    15.9575    11.1850 H       
 137 H137          -8.4363    13.3167    13.0367 H       
 138 H138          -8.6604    12.0744    11.7818 H       
 139 H139          -7.6210    13.4839    11.4633 H       
 140 H140         -12.0780    12.3380    10.1207 H       
 141 H141         -11.2444     9.6664    10.9547 H       
 142 H142         -14.1830    10.4494    10.7067 H       
 143 H143         -13.5866     8.7763    10.8216 H       
 144 H144         -12.5444     9.2981    13.0102 H       
 145 H145         -13.1408    10.9712    12.8954 H       
 146 H146         -15.4739    10.1345    12.8226 H       
 147 H147         -14.8775     8.4614    12.9375 H       
 148 H148         -13.8244     9.9325    15.1062 H       
 149 H149         -17.5893     8.6088    15.3734 H       
 150 H150         -14.8774     9.7029    17.2297 H       
 151 H151         -16.4594     9.1456    17.3270 H       
 152 H152         -11.0953     9.0278     6.5340 H       
 153 H153         -12.0579     6.4307     6.2574 H       
 154 H154         -10.3848     6.8134     6.7803 H       
 155 H155         -12.8309     6.1835     8.5272 H       
 156 H156         -11.1608     5.5395     8.6708 H       
 157 H157         -10.2947     7.6371     9.4756 H       
 158 H158         -11.9074     7.6023    10.2523 H       
 159 H159         -12.7633     8.0286     4.6769 H       
 160 H160         -15.5491     8.3571     5.4888 H       
 161 H161         -15.9336    10.1800     3.8044 H       
 162 H162         -13.8648    10.8715     5.9383 H       
 163 H163         -15.0430    11.9863     5.2052 H       
 164 H164         -15.6048    10.6546     6.2441 H       
 165 H165         -13.9252     9.7445     2.4168 H       
 166 H166         -13.9603    11.4335     2.9776 H       
 167 H167         -12.8824    10.2564     3.7655 H       
 168 H168         -17.0329     7.9131     3.4796 H       
 169 H169         -15.6243     6.8744     1.1420 H       
 170 H170         -16.7223     4.6547     1.2691 H       
 171 H171         -15.6572     4.9217     2.6700 H       
 172 H172         -17.4202     5.0903     2.8475 H       
 173 H173         -17.5512     5.9214    -0.4450 H       
 174 H174         -19.6171     7.9824    -0.4607 H       
 175 H175         -19.0848     5.5951    -2.2847 H       
 176 H176         -20.3529     6.8140    -2.5573 H       
 177 H177         -18.7434     6.9234    -4.6587 H       
 178 H178         -17.5530     8.1030    -4.5387 H       
 179 H179         -22.0017     6.8908    -1.0811 H       
 180 H180         -22.4592     4.4624     0.4749 H       
 181 H181         -24.1066     5.5460     1.9785 H       
 182 H182         -22.4811     6.2332     2.2105 H       
 183 H183         -23.7026     7.1318     1.2783 H       
 184 H184         -25.1420     4.2085     0.5083 H       
 185 H185         -26.3217     5.4246    -1.8701 H       
 186 H186         -25.7792     2.4288    -1.6713 H       
 187 H187         -26.8417     3.1849    -2.8827 H       
 188 H188         -24.9388     4.5481    -3.7008 H       
 189 H189         -23.8763     3.7920    -2.4894 H       
 190 H190         -24.3082     1.5685    -3.4984 H       
 191 H191         -25.3707     2.3246    -4.7099 H       
 192 H192         -22.8572     3.6091    -4.8050 H       
 193 H193         -23.2490     0.0871    -6.6596 H       
 194 H194         -21.3420     2.9755    -6.5293 H       
 195 H195         -21.5185     1.4930    -7.2998 H       
 196 H196         -28.6754     4.0860    -2.1434 H       
 197 H197         -29.7144     3.4418     0.5134 H       
 198 H198         -29.7222     5.9363     0.4491 H       
 199 H199         -30.6988     5.8789    -1.0379 H       
 200 H200         -32.4472     4.5837     0.2154 H       
 201 H201         -30.7135     5.2782     2.6292 H       
 202 H202         -32.2992     4.4706     2.6709 H       
 203 H203         -30.9007     3.6485     1.9384 H       
 204 H204         -32.6075     7.0468    -0.0212 H       
 205 H205         -33.2646     6.5112     1.5439 H       
 206 H206         -31.6480     7.2519     1.4639 H       
 207 H207         -31.8423     2.3621     0.3416 H       
 208 H208         -33.1655     2.4367    -2.2605 H       
 209 H209         -32.0338    -0.1400    -1.0821 H       
 210 H210         -33.1872    -0.0694    -2.4359 H       
 211 H211         -31.5744     1.2903    -3.7392 H       
 212 H212         -30.4209     1.2197    -2.3853 H       
 213 H213         -30.3599    -1.2526    -2.5662 H       
 214 H214         -31.5133    -1.1820    -3.9200 H       
 215 H215         -29.3106     0.4732    -4.5403 H       
 216 H216         -28.9195    -3.4707    -5.0791 H       
 217 H217         -27.6428    -0.3873    -6.0061 H       
 218 H218         -27.4899    -2.0463    -6.2229 H       
 219 H219         -35.2135     0.7049    -1.9974 H       
 220 H220         -36.0780     0.5471     0.7874 H       
 221 H221         -37.4954     2.3093    -1.2607 H       
 222 H222         -38.1776     1.8440     0.3161 H       
 223 H223         -35.5278     3.3089    -0.0600 H       
 224 H224         -38.2638     4.3380     0.8185 H       
 225 H225         -36.7561     5.2839     0.7997 H       
 226 H226         -37.4638     4.7068    -0.7281 H       
 227 H227         -37.2244     2.7128     2.4063 H       
 228 H228         -35.6840     1.9239     1.9908 H       
 229 H229         -35.7167     3.6587     2.3875 H       
 230 H230         -38.6316    -0.2994     0.6275 H       
 231 H231         -39.0394    -1.8935    -1.7850 H       
 232 H232         -38.5188    -3.1655     0.9389 H       
 233 H233         -39.1681    -4.0325    -0.4735 H       
 234 H234         -37.1362    -3.4458    -1.7679 H       
 235 H235         -36.4868    -2.5788    -0.3554 H       
 236 H236         -36.5333    -4.6821     0.9570 H       
 237 H237         -37.1827    -5.5491    -0.4554 H       
 238 H238         -34.7938    -4.2548    -1.2266 H       
 239 H239         -32.7645    -6.9976    -0.4759 H       
 240 H240         -35.9436    -6.8417     0.8900 H       
 241 H241         -34.5394    -7.7604     0.8083 H       
 242 H242         -41.1722    -3.4313    -1.1943 H       
 243 H243         -42.8951    -2.0999     0.7516 H       
 244 H244         -44.6337    -1.5659    -0.9589 H       
 245 H245         -41.9278    -0.2865    -1.5524 H       
 246 H246         -43.5279     0.4328    -1.8533 H       
 247 H247         -42.9787     0.1504    -0.1839 H       
 248 H248         -43.9030    -3.2066    -2.6685 H       
 249 H249         -43.9819    -1.5647    -3.3514 H       
 250 H250         -42.4074    -2.2755    -2.9227 H       
 251 H251         -45.1421    -3.3065     0.7849 H       
 252 H252         -44.4585    -6.1418     0.6384 H       
 253 H253         -46.5437    -6.4825     1.8750 H       
 254 H254         -45.6335    -5.1493     2.6250 H       
 255 H255         -47.9229    -4.5714     2.2640 H       
 256 H256         -47.1639    -7.0643    -1.6593 H       
 257 H257         -11.8042    26.2538    29.1691 H       
 258 H258         -10.1116    26.6886    28.8308 H       
 259 H259         -11.3682    27.9491    28.8468 H       
 260 H260         -12.4342    26.9117    26.8628 H       
 261 H261         -10.7416    27.3465    26.5246 H       
 262 H262         -10.0499    25.0096    26.9816 H       
 263 H263         -11.7425    24.5748    27.3199 H       
 264 H264         -12.3724    25.2327    25.0136 H       
 265 H265         -10.6799    25.6675    24.6754 H       
 266 H266          -9.9882    23.3306    25.1324 H       
 267 H267         -11.6807    22.8958    25.4707 H       
 268 H268         -12.3107    23.5537    23.1644 H       
 269 H269         -10.6181    23.9885    22.8262 H       
 270 H270          -9.9264    21.6516    23.2832 H       
 271 H271         -11.6190    21.2168    23.6215 H       
 272 H272         -12.2490    21.8747    21.3153 H       
 273 H273         -10.5564    22.3095    20.9770 H       
 274 H274          -9.8647    19.9725    21.4340 H       
 275 H275         -11.5573    19.5377    21.7723 H       
 276 H276         -12.1873    20.1957    19.4661 H       
 277 H277         -10.4947    20.6305    19.1278 H       
 278 H278          -9.8030    18.2935    19.5848 H       
 279 H279         -11.4956    17.8587    19.9231 H       
 280 H280         -12.1255    18.5167    17.6169 H       
 281 H281         -10.4330    18.9515    17.2786 H       
 282 H282          -9.7413    16.6145    17.7356 H       
 283 H283         -11.4338    16.1797    18.0739 H       
 284 H284         -12.0638    16.8377    15.7677 H       
 285 H285         -10.3712    17.2725    15.4294 H       
 286 H286         -11.3721    14.5007    16.2247 H       
 287 H287          -9.6795    14.9355    15.8865 H       
@<TRIPOS>BOND
   1    1    2 2
   2    1    4 1
   3    1   10 am
   4    3  114 am
   5    3    4 1
   6    3  131 1
   7    4    5 1
   8    4  132 1
   9    5    6 1
  10    5    7 1
  11    5  133 1
  12    6  134 1
  13    6  135 1
  14    6  136 1
  15    7  137 1
  16    7  138 1
  17    7  139 1
  18    8    9 2
  19    8   11 1
  20    8   21 am
  21   10   11 1
  22   10  140 1
  23   11   12 1
  24   11  141 1
  25   12   13 1
  26   12  142 1
  27   12  143 1
  28   13   14 1
  29   13  144 1
  30   13  145 1
  31   14   15 1
  32   14  146 1
  33   14  147 1
  34   15   16 1
  35   15  148 1
  36   16   17 2
  37   16   18 1
  38   17  149 1
  39   18  150 1
  40   18  151 1
  41   19   20 2
  42   19   28 am
  43   19   22 1
  44   21   22 1
  45   21   25 1
  46   22   23 1
  47   22  152 1
  48   23   24 1
  49   23  153 1
  50   23  154 1
  51   24   25 1
  52   24  155 1
  53   24  156 1
  54   25  157 1
  55   25  158 1
  56   26   27 2
  57   26   29 1
  58   26   35 am
  59   28   29 1
  60   28  159 1
  61   29   30 1
  62   29  160 1
  63   30   31 1
  64   30   32 1
  65   30  161 1
  66   31  162 1
  67   31  163 1
  68   31  164 1
  69   32  165 1
  70   32  166 1
  71   32  167 1
  72   33   34 2
  73   33   36 1
  74   33   40 am
  75   35   36 1
  76   35  168 1
  77   36   37 1
  78   36  169 1
  79   37  170 1
  80   37  171 1
  81   37  172 1
  82   38   39 2
  83   38   41 1
  84   38   48 am
  85   40   41 1
  86   40  173 1
  87   41   42 1
  88   41  174 1
  89   42   43 1
  90   42  175 1
  91   42  176 1
  92   43   44 2
  93   43   45 am
  94   45  177 1
  95   45  178 1
  96   46   47 2
  97   46   49 1
  98   46   53 am
  99   48   49 1
 100   48  179 1
 101   49   50 1
 102   49  180 1
 103   50  181 1
 104   50  182 1
 105   50  183 1
 106   51   52 2
 107   51   54 1
 108   51   64 am
 109   53   54 1
 110   53  184 1
 111   54   55 1
 112   54  185 1
 113   55   56 1
 114   55  186 1
 115   55  187 1
 116   56   57 1
 117   56  188 1
 118   56  189 1
 119   57   58 1
 120   57  190 1
 121   57  191 1
 122   58   59 1
 123   58  192 1
 124   59   60 2
 125   59   61 1
 126   60  193 1
 127   61  194 1
 128   61  195 1
 129   62   63 2
 130   62   65 1
 131   62   72 am
 132   64   65 1
 133   64  196 1
 134   65   66 1
 135   65  197 1
 136   66   67 1
 137   66  198 1
 138   66  199 1
 139   67   68 1
 140   67   69 1
 141   67  200 1
 142   68  201 1
 143   68  202 1
 144   68  203 1
 145   69  204 1
 146   69  205 1
 147   69  206 1
 148   70   71 2
 149   70   73 1
 150   70   83 am
 151   72   73 1
 152   72  207 1
 153   73   74 1
 154   73  208 1
 155   74   75 1
 156   74  209 1
 157   74  210 1
 158   75   76 1
 159   75  211 1
 160   75  212 1
 161   76   77 1
 162   76  213 1
 163   76  214 1
 164   77   78 1
 165   77  215 1
 166   78   79 2
 167   78   80 1
 168   79  216 1
 169   80  217 1
 170   80  218 1
 171   81   82 2
 172   81   84 1
 173   81   91 am
 174   83   84 1
 175   83  219 1
 176   84   85 1
 177   84  220 1
 178   85   86 1
 179   85  221 1
 180   85  222 1
 181   86   87 1
 182   86   88 1
 183   86  223 1
 184   87  224 1
 185   87  225 1
 186   87  226 1
 187   88  227 1
 188   88  228 1
 189   88  229 1
 190   89   90 2
 191   89   92 1
 192   89  102 am
 193   91   92 1
 194   91  230 1
 195   92   93 1
 196   92  231 1
 197   93   94 1
 198   93  232 1
 199   93  233 1
 200   94   95 1
 201   94  234 1
 202   94  235 1
 203   95   96 1
 204   95  236 1
 205   95  237 1
 206   96   97 1
 207   96  238 1
 208   97   98 2
 209   97   99 1
 210   98  239 1
 211   99  240 1
 212   99  241 1
 213  100  101 2
 214  100  103 1
 215  100  109 am
 216  102  103 1
 217  102  242 1
 218  103  104 1
 219  103  243 1
 220  104  105 1
 221  104  106 1
 222  104  244 1
 223  105  245 1
 224  105  246 1
 225  105  247 1
 226  106  248 1
 227  106  249 1
 228  106  250 1
 229  107  108 2
 230  107  110 1
 231  107  113 1
 232  109  110 1
 233  109  251 1
 234  110  111 1
 235  110  252 1
 236  111  112 1
 237  111  253 1
 238  111  254 1
 239  112  255 1
 240  113  256 1
 241  114  115 2
 242  114  130 1
 243  116  117 1
 244  116  257 1
 245  116  258 1
 246  116  259 1
 247  117  118 1
 248  117  260 1
 249  117  261 1
 250  118  119 1
 251  118  262 1
 252  118  263 1
 253  119  120 1
 254  119  264 1
 255  119  265 1
 256  120  121 1
 257  120  266 1
 258  120  267 1
 259  121  122 1
 260  121  268 1
 261  121  269 1
 262  122  123 1
 263  122  270 1
 264  122  271 1
 265  123  124 1
 266  123  272 1
 267  123  273 1
 268  124  125 1
 269  124  274 1
 270  124  275 1
 271  125  126 1
 272  125  276 1
 273  125  277 1
 274  126  127 1
 275  126  278 1
 276  126  279 1
 277  127  128 1
 278  127  280 1
 279  127  281 1
 280  128  129 1
 281  128  282 1
 282  128  283 1
 283  129  130 1
 284  129  284 1
 285  129  285 1
 286  130  286 1
 287  130  287 1

#	End of record

