#	Name: ASD08150513
#	Creating user name:	WinNT
#	Creation time:	15. 06. 2019 21:16

#	Modifying user name:	WinNT
#	Modification time:	15. 06. 2019 21:16

#	Program:	/corina/corina34_cracker 3.40 0067  02.08.2006

@<TRIPOS>MOLECULE
ASD08150513
  49   53    0    0    0
SMALL
NO_CHARGES


@<TRIPOS>ATOM
   1 N1             0.0031     1.3761     0.0705 N.am    
   2 C2             0.0794     0.1267     0.5687 C.2     
   3 C3             1.2986    -0.5809     0.5643 C.2     
   4 C4             2.4188    -0.0085     0.0547 C.2     
   5 C5             2.3423     1.3057    -0.4707 C.ar    
   6 C6             3.4745     1.9449    -1.0115 C.ar    
   7 N7             3.4011     3.1569    -1.4958 N.ar    
   8 C8             2.2561     3.8567    -1.5068 C.ar    
   9 C9             1.0675     3.2922    -0.9833 C.ar    
  10 C10            1.1133     1.9827    -0.4513 C.ar    
  11 C11           -0.1204     5.3065    -1.5285 C.ar    
  12 C12            1.0546     5.8596    -2.0425 C.ar    
  13 C13            2.2204     5.1564    -2.0362 C.ar    
  14 O14           -0.9194    -0.3989     1.0298 O.2     
  15 C15           -1.2206     2.0557     0.0814 C.ar    
  16 C16           -2.0922     1.9368    -0.9930 C.ar    
  17 C17           -3.2991     2.6084    -0.9790 C.ar    
  18 C18           -3.6396     3.3988     0.1032 C.ar    
  19 C19           -2.7735     3.5197     1.1747 C.ar    
  20 C20           -1.5681     2.8460     1.1696 C.ar    
  21 C21           -0.1204     4.0319    -1.0004 C.ar    
  22 N22           -1.3077     6.0526    -1.5473 N.pl3   
  23 C23           -4.9569     4.1305     0.1150 C.3     
  24 C24           -4.2456     2.4799    -2.1446 C.3     
  25 C25           -2.4854     5.6819    -2.1135 C.2     
  26 N26           -3.3555     6.6365    -1.9257 N.2     
  27 C27           -2.7776     7.6367    -1.2442 C.2     
  28 C28           -1.5006     7.2913    -0.9925 C.2     
  29 C29           -0.4774     8.1127    -0.2514 C.3     
  30 H30            1.3416    -1.5816     0.9682 H       
  31 H31            3.3552    -0.5465     0.0499 H       
  32 H32            4.4208     1.4246    -1.0260 H       
  33 H33            1.0382     6.8591    -2.4511 H       
  34 H34            3.1193     5.5994    -2.4387 H       
  35 H35           -1.8265     1.3201    -1.8389 H       
  36 H36           -3.0420     4.1385     2.0182 H       
  37 H37           -0.8922     2.9408     2.0066 H       
  38 H38           -1.0308     3.6079    -0.6033 H       
  39 H39           -5.7199     3.4979     0.5686 H       
  40 H40           -4.8569     5.0497     0.6921 H       
  41 H41           -5.2469     4.3731    -0.9074 H       
  42 H42           -4.9189     1.6396    -1.9749 H       
  43 H43           -4.8267     3.3968    -2.2436 H       
  44 H44           -3.6759     2.3103    -3.0582 H       
  45 H45           -2.6706     4.7531    -2.6325 H       
  46 H46           -3.2552     8.5581    -0.9450 H       
  47 H47           -0.5228     7.8765     0.8118 H       
  48 H48            0.5178     7.8834    -0.6323 H       
  49 H49           -0.6870     9.1723    -0.3974 H       
@<TRIPOS>BOND
   1    1    2 am
   2    1   10 1
   3    1   15 1
   4    2    3 1
   5    2   14 2
   6    3    4 2
   7    3   30 1
   8    4    5 1
   9    4   31 1
  10    5    6 ar
  11    5   10 ar
  12    6    7 ar
  13    6   32 1
  14    7    8 ar
  15    8    9 ar
  16    8   13 ar
  17    9   10 ar
  18    9   21 ar
  19   11   12 ar
  20   11   22 1
  21   11   21 ar
  22   12   13 ar
  23   12   33 1
  24   13   34 1
  25   15   16 ar
  26   15   20 ar
  27   16   17 ar
  28   16   35 1
  29   17   18 ar
  30   17   24 1
  31   18   19 ar
  32   18   23 1
  33   19   20 ar
  34   19   36 1
  35   20   37 1
  36   21   38 1
  37   22   25 1
  38   22   28 1
  39   23   39 1
  40   23   40 1
  41   23   41 1
  42   24   42 1
  43   24   43 1
  44   24   44 1
  45   25   26 2
  46   25   45 1
  47   26   27 1
  48   27   28 2
  49   27   46 1
  50   28   29 1
  51   29   47 1
  52   29   48 1
  53   29   49 1

#	End of record

