#	Name: ASD07930602
#	Creating user name:	WinNT
#	Creation time:	15. 06. 2019 21:12

#	Modifying user name:	WinNT
#	Modification time:	15. 06. 2019 21:12

#	Program:	/corina/corina34_cracker 3.40 0067  02.08.2006

@<TRIPOS>MOLECULE
ASD07930602
  50   52    0    0    0
SMALL
NO_CHARGES


@<TRIPOS>ATOM
   1 C1            -0.0502     1.4821    -0.0094 C.3     
   2 N2             0.7773    -0.3946    -2.1782 N.2     
   3 N3            -0.8979    -1.7688    -1.3026 N.pl3   
   4 C4            -0.9127    -2.8082    -0.2679 C.3     
   5 C5            -1.2240    -2.1653     1.0907 C.3     
   6 S6             0.0077    -0.8612     1.4012 S.o2    
   7 N7            -0.0234     0.0174    -0.0143 N.am    
   8 C8            -0.0231    -0.7068    -1.1980 C.2     
   9 C9             0.4557    -3.4900    -0.2090 C.3     
  10 C10           -1.9712    -3.8296    -0.5957 C.ar    
  11 N11           -2.9585    -4.0401     0.2534 N.ar    
  12 C12           -3.9099    -4.9267     0.0067 C.ar    
  13 C13           -3.8978    -5.6711    -1.1671 C.ar    
  14 C14           -2.8757    -5.4744    -2.0791 C.ar    
  15 C15           -1.8985    -4.5307    -1.7859 C.ar    
  16 O16           -0.4553     0.0438     2.3940 O.2     
  17 O17            1.3184    -1.4077     1.4540 O.2     
  18 F18           -0.8835    -4.3077    -2.6491 F       
  19 N19           -4.9340    -5.1160     0.9335 N.am    
  20 C20           -4.8971    -4.4755     2.1188 C.2     
  21 O21           -3.9269    -3.8074     2.4187 O.2     
  22 C22           -6.0368    -4.5854     3.0543 C.ar    
  23 N23           -7.1002    -5.3173     2.7263 N.ar    
  24 N24           -7.0152    -4.0271     5.1179 N.ar    
  25 C25           -5.9968    -3.9276     4.2833 C.ar    
  26 C26           -8.1136    -5.4149     3.5595 C.ar    
  27 C27           -8.0755    -4.7516     4.7871 C.ar    
  28 O28           -9.1200    -4.8531     5.6440 O.3     
  29 C29           -9.0140    -4.1482     6.8825 C.3     
  30 C30          -10.2788    -4.3806     7.7115 C.3     
  31 F31          -10.4257    -5.7486     7.9646 F       
  32 F32          -10.1750    -3.6905     8.9240 F       
  33 F33          -11.3922    -3.9151     7.0039 F       
  34 H34            0.9705     1.8643    -0.0190 H       
  35 H35           -0.5801     1.8388    -0.8927 H       
  36 H36           -0.5611     1.8332     0.8872 H       
  37 H37            0.7641    -0.9119    -2.9987 H       
  38 H38           -1.4993    -1.8299    -2.0612 H       
  39 H39           -2.2231    -1.7299     1.0709 H       
  40 H40           -1.1667    -2.9193     1.8757 H       
  41 H41            1.2200    -2.7505     0.0301 H       
  42 H42            0.4440    -4.2622     0.5601 H       
  43 H43            0.6779    -3.9428    -1.1753 H       
  44 H44           -4.6757    -6.3939    -1.3646 H       
  45 H45           -2.8402    -6.0387    -2.9993 H       
  46 H46           -5.6730    -5.7087     0.7253 H       
  47 H47           -5.1333    -3.3374     4.5525 H       
  48 H48           -8.9758    -6.0084     3.2933 H       
  49 H49           -8.1465    -4.5110     7.4339 H       
  50 H50           -8.8995    -3.0824     6.6853 H       
@<TRIPOS>BOND
   1    1    7 1
   2    1   34 1
   3    1   35 1
   4    1   36 1
   5    2    8 2
   6    2   37 1
   7    3    4 1
   8    3    8 1
   9    3   38 1
  10    4    5 1
  11    4    9 1
  12    4   10 1
  13    5    6 1
  14    5   39 1
  15    5   40 1
  16    6    7 am
  17    6   16 2
  18    6   17 2
  19    7    8 1
  20    9   41 1
  21    9   42 1
  22    9   43 1
  23   10   11 ar
  24   10   15 ar
  25   11   12 ar
  26   12   13 ar
  27   12   19 1
  28   13   14 ar
  29   13   44 1
  30   14   15 ar
  31   14   45 1
  32   15   18 1
  33   19   20 am
  34   19   46 1
  35   20   21 2
  36   20   22 1
  37   22   23 ar
  38   22   25 ar
  39   23   26 ar
  40   24   25 ar
  41   24   27 ar
  42   25   47 1
  43   26   27 ar
  44   26   48 1
  45   27   28 1
  46   28   29 1
  47   29   30 1
  48   29   49 1
  49   29   50 1
  50   30   31 1
  51   30   32 1
  52   30   33 1

#	End of record

