#	Name: ASD01916519
#	Creating user name:	WinNT
#	Creation time:	15. 06. 2019 20:07

#	Modifying user name:	WinNT
#	Modification time:	15. 06. 2019 20:07

#	Program:	/corina/corina34_cracker 3.40 0067  02.08.2006

@<TRIPOS>MOLECULE
ASD01916519
  47   50    0    0    0
SMALL
NO_CHARGES


@<TRIPOS>ATOM
   1 C1            -0.0171     1.4100     0.0098 C.ar    
   2 C2             0.0021    -0.0041     0.0020 C.ar    
   3 C3            -1.1912    -0.7256     0.0414 C.ar    
   4 C4            -2.3838    -0.0642     0.0741 C.ar    
   5 C5            -2.4215     1.3385     0.0663 C.ar    
   6 C6            -1.2406     2.0764     0.0357 C.ar    
   7 N7             1.1598     2.0754     0.0021 N.2     
   8 C8             2.3197     1.4679    -0.0397 C.2     
   9 N9             2.4200     0.1197    -0.1575 N.am    
  10 C10            1.3103    -0.6627    -0.0625 C.2     
  11 C11           -3.6829     2.0160     0.0895 C.1     
  12 C12           -4.7170     2.5714     0.1086 C.1     
  13 C13           -5.9784     3.2489     0.1318 C.ar    
  14 N14           -6.0140     4.5779     0.1244 N.ar    
  15 C15           -7.1537     5.2374     0.1451 C.ar    
  16 C16           -8.3629     4.5665     0.1759 C.ar    
  17 C17           -8.3730     3.1782     0.1847 C.ar    
  18 C18           -7.1631     2.5084     0.1563 C.ar    
  19 O19            1.4016    -1.8764    -0.0320 O.2     
  20 C20            3.5357     2.3453     0.1020 C.3     
  21 C21            4.7921     1.6928    -0.4308 C.3     
  22 C22            4.8965     0.2363    -0.0271 C.3     
  23 C23            3.6795    -0.5617    -0.4368 C.3     
  24 C24            6.1348    -0.3737    -0.6869 C.3     
  25 C25            5.0555     0.1531     1.4924 C.3     
  26 C26           -3.6712    -0.8463     0.1186 C.3     
  27 H27           -1.1709    -1.8054     0.0456 H       
  28 H28           -1.2730     3.1559     0.0324 H       
  29 H29           -7.1440     6.3173     0.1382 H       
  30 H30           -9.2914     5.1180     0.1934 H       
  31 H31           -9.3051     2.6332     0.2086 H       
  32 H32           -7.1344     1.4288     0.1618 H       
  33 H33            3.3643     3.2746    -0.4412 H       
  34 H34            3.6804     2.5783     1.1569 H       
  35 H35            4.7909     1.7589    -1.5188 H       
  36 H36            5.6596     2.2294    -0.0465 H       
  37 H37            3.6887    -1.5120     0.0969 H       
  38 H38            3.7379    -0.7638    -1.5063 H       
  39 H39            7.0239     0.1643    -0.3582 H       
  40 H40            6.2187    -1.4225    -0.4023 H       
  41 H41            6.0438    -0.2975    -1.7705 H       
  42 H42            4.1896     0.6076     1.9738 H       
  43 H43            5.1315    -0.8919     1.7930 H       
  44 H44            5.9587     0.6842     1.7928 H       
  45 H45           -3.9500    -1.0286     1.1564 H       
  46 H46           -4.4593    -0.2772    -0.3747 H       
  47 H47           -3.5356    -1.7987    -0.3939 H       
@<TRIPOS>BOND
   1    1    2 ar
   2    1    7 1
   3    1    6 ar
   4    2    3 ar
   5    2   10 1
   6    3    4 ar
   7    3   27 1
   8    4    5 ar
   9    4   26 1
  10    5    6 ar
  11    5   11 1
  12    6   28 1
  13    7    8 2
  14    8    9 1
  15    8   20 1
  16    9   10 am
  17    9   23 1
  18   10   19 2
  19   11   12 3
  20   12   13 1
  21   13   14 ar
  22   13   18 ar
  23   14   15 ar
  24   15   16 ar
  25   15   29 1
  26   16   17 ar
  27   16   30 1
  28   17   18 ar
  29   17   31 1
  30   18   32 1
  31   20   21 1
  32   20   33 1
  33   20   34 1
  34   21   22 1
  35   21   35 1
  36   21   36 1
  37   22   23 1
  38   22   24 1
  39   22   25 1
  40   23   37 1
  41   23   38 1
  42   24   39 1
  43   24   40 1
  44   24   41 1
  45   25   42 1
  46   25   43 1
  47   25   44 1
  48   26   45 1
  49   26   46 1
  50   26   47 1

#	End of record

