#	Name: ASD01440115
#	Creating user name:	WinNT
#	Creation time:	15. 06. 2019 19:21

#	Modifying user name:	WinNT
#	Modification time:	15. 06. 2019 19:21

#	Program:	/corina/corina34_cracker 3.40 0067  02.08.2006

@<TRIPOS>MOLECULE
ASD01440115
  41   43    0    0    0
SMALL
NO_CHARGES


@<TRIPOS>ATOM
   1 C1             0.2288     1.1628    -0.2573 C.ar    
   2 C2             0.2518    -0.1908    -0.0086 C.ar    
   3 C3             1.3312    -0.7589     0.6590 C.ar    
   4 C4             2.3918     0.0368     1.0776 C.ar    
   5 C5             2.3771     1.3914     0.8330 C.ar    
   6 C6             1.2935     1.9669     0.1620 C.ar    
   7 C7             1.2735     3.4177    -0.1027 C.2     
   8 O8             0.5942     3.8611    -1.0085 O.2     
   9 C9             2.0791     4.3324     0.7329 C.ar    
  10 O10            1.3494    -2.0935     0.9029 O.3     
  11 C11            2.4885    -2.6114     1.5930 C.3     
  12 C12            2.3332    -4.0996     1.7727 C.2     
  13 N13            3.2931    -4.8063     2.4017 N.am    
  14 O14            1.3443    -4.6614     1.3512 O.2     
  15 C15            2.4576     5.5832     0.2394 C.ar    
  16 C16            3.2094     6.4323     1.0242 C.ar    
  17 C17            3.5896     6.0477     2.2980 C.ar    
  18 C18            3.2182     4.8096     2.7939 C.ar    
  19 C19            2.4604     3.9526     2.0212 C.ar    
  20 Br20           3.7439     4.2943     4.5357 Br      
  21 C21            3.1045    -6.1692     2.6577 C.ar    
  22 C22            4.1850    -7.0419     2.6598 C.ar    
  23 N23            4.0112    -8.3260     2.9000 N.ar    
  24 C24            2.8183    -8.8318     3.1462 C.ar    
  25 C25            1.6948    -8.0266     3.1614 C.ar    
  26 C26            1.8317    -6.6693     2.9197 C.ar    
  27 H27           -0.6081     1.6026    -0.7795 H       
  28 H28           -0.5700    -0.8125    -0.3320 H       
  29 H29            3.2283    -0.4085     1.5958 H       
  30 H30            3.2010     2.0088     1.1592 H       
  31 H31            3.3884    -2.4075     1.0129 H       
  32 H32            2.5697    -2.1341     2.5695 H       
  33 H33            4.1147    -4.3702     2.6769 H       
  34 H34            2.1623     5.8846    -0.7548 H       
  35 H35            3.5025     7.3995     0.6435 H       
  36 H36            4.1789     6.7163     2.9080 H       
  37 H37            2.1674     2.9887     2.4105 H       
  38 H38            5.1774    -6.6645     2.4622 H       
  39 H39            2.7179    -9.8898     3.3384 H       
  40 H40            0.7221    -8.4501     3.3636 H       
  41 H41            0.9718    -6.0159     2.9301 H       
@<TRIPOS>BOND
   1    1    2 ar
   2    1    6 ar
   3    1   27 1
   4    2    3 ar
   5    2   28 1
   6    3    4 ar
   7    3   10 1
   8    4    5 ar
   9    4   29 1
  10    5    6 ar
  11    5   30 1
  12    6    7 1
  13    7    8 2
  14    7    9 1
  15    9   15 ar
  16    9   19 ar
  17   10   11 1
  18   11   12 1
  19   11   31 1
  20   11   32 1
  21   12   13 am
  22   12   14 2
  23   13   21 1
  24   13   33 1
  25   15   16 ar
  26   15   34 1
  27   16   17 ar
  28   16   35 1
  29   17   18 ar
  30   17   36 1
  31   18   19 ar
  32   18   20 1
  33   19   37 1
  34   21   22 ar
  35   21   26 ar
  36   22   23 ar
  37   22   38 1
  38   23   24 ar
  39   24   25 ar
  40   24   39 1
  41   25   26 ar
  42   25   40 1
  43   26   41 1

#	End of record

