#	Name: ASD04910026
#	Creating user name:	WinNT
#	Creation time:	15. 06. 2019 20:55

#	Modifying user name:	WinNT
#	Modification time:	15. 06. 2019 20:55

#	Program:	/corina/corina34_cracker 3.40 0067  02.08.2006

@<TRIPOS>MOLECULE
ASD04910026
  57   59    0    0    0
SMALL
NO_CHARGES


@<TRIPOS>ATOM
   1 C1            -0.1519     1.4681     0.1318 C.2     
   2 C2            -0.1103    -0.0381     0.1088 C.3     
   3 C3             1.3453    -0.5076     0.0686 C.3     
   4 O4             0.8771     2.1012     0.1175 O.2     
   5 O5            -1.3323     2.1065     0.1625 O.3     
   6 C6             2.5708    -2.6128     0.0098 C.2     
   7 C7             2.6117    -4.0905    -0.0127 C.ar    
   8 C8             3.8372    -4.7573    -0.0505 C.ar    
   9 C9             3.8683    -6.1364    -0.0709 C.ar    
  10 C10            2.6881    -6.8583    -0.0545 C.ar    
  11 C11            1.4699    -6.2035    -0.0170 C.ar    
  12 C12            1.4249    -4.8249     0.0095 C.ar    
  13 O13            3.6061    -1.9759    -0.0046 O.2     
  14 N14            1.3858    -1.9719     0.0463 N.am    
  15 C15            2.7297    -8.3646    -0.0779 C.3     
  16 C16            2.5262    -8.9025     1.3399 C.3     
  17 C17            2.6923   -10.4235     1.3370 C.3     
  18 C18            2.4888   -10.9615     2.7547 C.3     
  19 O19            1.6915    -8.8566    -0.9276 O.3     
  20 C20            0.9674   -10.5810    -2.4046 C.ar    
  21 C21            1.9544    -9.9904    -1.6304 C.ar    
  22 C22            3.2178   -10.5723    -1.5819 C.ar    
  23 C23            3.4406   -11.7258    -2.3137 C.ar    
  24 C24            2.4035   -12.2607    -3.0668 C.ar    
  25 N25            1.2151   -11.6802    -3.0896 N.ar    
  26 C26            3.7451   -14.1864    -3.8145 C.2     
  27 N27            3.5668   -15.1897    -4.6297 N.2     
  28 C28            2.3410   -15.1122    -5.1689 C.2     
  29 C29            1.7311   -14.0197    -4.6719 C.2     
  30 N30            2.6184   -13.4269    -3.8104 N.pl3   
  31 C31            1.7490   -16.0806    -6.1603 C.3     
  32 F32            2.6321   -17.1483    -6.3536 F       
  33 F33            0.5320   -16.5652    -5.6690 F       
  34 F34            1.5332   -15.4274    -7.3784 F       
  35 H35           -0.5934    -0.4287     1.0044 H       
  36 H36           -0.6341    -0.4027    -0.7749 H       
  37 H37            1.8285    -0.1171    -0.8270 H       
  38 H38            1.8692    -0.1431     0.9523 H       
  39 H39           -1.3083     3.0731     0.1764 H       
  40 H40            4.7592    -4.1950    -0.0641 H       
  41 H41            4.8160    -6.6536    -0.1002 H       
  42 H42            0.5522    -6.7729    -0.0043 H       
  43 H43            0.4735    -4.3150     0.0432 H       
  44 H44            0.5597    -2.4801     0.0578 H       
  45 H45            3.6967    -8.6955    -0.4568 H       
  46 H46            3.2648    -8.4577     2.0067 H       
  47 H47            1.5244    -8.6471     1.6851 H       
  48 H48            1.9537   -10.8684     0.6701 H       
  49 H49            3.6941   -10.6790     0.9917 H       
  50 H50            2.6071   -12.0450     2.7527 H       
  51 H51            3.2274   -10.5166     3.4216 H       
  52 H52            1.4870   -10.7060     3.1000 H       
  53 H53           -0.0168   -10.1379    -2.4438 H       
  54 H54            4.0058   -10.1339    -0.9876 H       
  55 H55            4.4090   -12.2038    -2.2995 H       
  56 H56            4.6370   -13.9944    -3.2365 H       
  57 H57            0.7344   -13.6761    -4.9066 H       
@<TRIPOS>BOND
   1    1    2 1
   2    1    4 2
   3    1    5 1
   4    2    3 1
   5    2   35 1
   6    2   36 1
   7    3   14 1
   8    3   37 1
   9    3   38 1
  10    5   39 1
  11    6    7 1
  12    6   13 2
  13    6   14 am
  14    7    8 ar
  15    7   12 ar
  16    8    9 ar
  17    8   40 1
  18    9   10 ar
  19    9   41 1
  20   10   11 ar
  21   10   15 1
  22   11   12 ar
  23   11   42 1
  24   12   43 1
  25   14   44 1
  26   15   16 1
  27   15   19 1
  28   15   45 1
  29   16   17 1
  30   16   46 1
  31   16   47 1
  32   17   18 1
  33   17   48 1
  34   17   49 1
  35   18   50 1
  36   18   51 1
  37   18   52 1
  38   19   21 1
  39   20   21 ar
  40   20   25 ar
  41   20   53 1
  42   21   22 ar
  43   22   23 ar
  44   22   54 1
  45   23   24 ar
  46   23   55 1
  47   24   25 ar
  48   24   30 1
  49   26   27 2
  50   26   30 1
  51   26   56 1
  52   27   28 1
  53   28   29 2
  54   28   31 1
  55   29   30 1
  56   29   57 1
  57   31   32 1
  58   31   33 1
  59   31   34 1

#	End of record

