#	Name: ASD03331518
#	Creating user name:	WinNT
#	Creation time:	15. 06. 2019 20:39

#	Modifying user name:	WinNT
#	Modification time:	15. 06. 2019 20:39

#	Program:	/corina/corina34_cracker 3.40 0067  02.08.2006

@<TRIPOS>MOLECULE
ASD03331518
  63   65    0    0    0
SMALL
NO_CHARGES


@<TRIPOS>ATOM
   1 C1            -0.8309     2.1294     0.6698 C.ar    
   2 C2            -0.4156     0.7112     0.7354 C.2     
   3 N3            -1.2403    -0.3516     0.9352 N.pl3   
   4 C4            -0.4788    -1.4714     0.9280 C.2     
   5 C5             0.8070    -1.0861     0.7254 C.2     
   6 N6             0.8134     0.2620     0.6047 N.2     
   7 C7             1.9805    -1.9738     0.6461 C.2     
   8 N8             3.2065    -1.4533     0.4399 N.am    
   9 C9            -1.9155     2.5766     1.4248 C.ar    
  10 O10            1.8428    -3.1762     0.7666 O.2     
  11 C11            4.3732    -2.3358     0.3610 C.3     
  12 C12           -2.2990     3.9020     1.3598 C.ar    
  13 C13           -1.6071     4.7868     0.5447 C.ar    
  14 C14           -0.5299     4.3457    -0.2066 C.ar    
  15 C15           -0.1354     3.0255    -0.1430 C.ar    
  16 C16           -2.7036    -0.3424     1.1306 C.3     
  17 C17           -2.9678    -0.8671     2.5513 C.3     
  18 C18           -2.8806    -2.3731     2.5940 C.3     
  19 N19           -1.5587    -2.9528     2.4850 N.3     
  20 C20           -1.0150    -2.8787     1.1154 C.3     
  21 C21            4.5177    -2.8637    -1.0677 C.3     
  22 N22            6.6734    -2.2114     1.2624 N.am    
  23 C23            5.6120    -1.5657     0.7397 C.2     
  24 C24            7.8334    -1.4514     1.7346 C.3     
  25 O25            5.6539    -0.3650     0.5742 O.2     
  26 C26            4.5757    -1.6863    -2.0431 C.3     
  27 C27            5.8046    -3.6835    -1.1808 C.3     
  28 C28            3.3173    -3.7492    -1.4081 C.3     
  29 C29           -1.5475    -4.3352     2.9818 C.3     
  30 F30           -1.9855     6.0823     0.4834 F       
  31 F31           -3.3490     4.3373     2.0900 F       
  32 C32           -3.4962    -2.8449     3.9128 C.3     
  33 H33            3.3163    -0.4943     0.3437 H       
  34 H34           -2.4543     1.8878     2.0586 H       
  35 H35            4.2423    -3.1732     1.0463 H       
  36 H36            0.0049     5.0380    -0.8399 H       
  37 H37            0.7045     2.6835    -0.7294 H       
  38 H38           -3.0859     0.6736     1.0319 H       
  39 H39           -3.1810    -0.9936     0.3984 H       
  40 H40           -2.2282    -0.4458     3.2321 H       
  41 H41           -3.9634    -0.5567     2.8684 H       
  42 H42           -3.4898    -2.7688     1.7814 H       
  43 H43           -1.8048    -3.0753     0.3903 H       
  44 H44           -0.2093    -3.6029     0.9951 H       
  45 H45            6.6691    -3.1793     1.3259 H       
  46 H46            8.5857    -2.1392     2.1206 H       
  47 H47            8.2542    -0.8794     0.9076 H       
  48 H48            7.5233    -0.7700     2.5269 H       
  49 H49            5.4309    -1.0554    -1.8006 H       
  50 H50            4.6787    -2.0623    -3.0609 H       
  51 H51            3.6589    -1.1022    -1.9625 H       
  52 H52            5.8079    -4.4617    -0.4176 H       
  53 H53            5.8573    -4.1426    -2.1680 H       
  54 H54            6.6653    -3.0303    -1.0374 H       
  55 H55            2.4005    -3.1651    -1.3275 H       
  56 H56            3.4203    -4.1253    -2.4260 H       
  57 H57            3.2760    -4.5880    -0.7133 H       
  58 H58           -2.3297    -4.9070     2.4825 H       
  59 H59           -0.5779    -4.7879     2.7744 H       
  60 H60           -1.7265    -4.3364     4.0570 H       
  61 H61           -4.4939    -2.4194     4.0208 H       
  62 H62           -3.5631    -3.9329     3.9139 H       
  63 H63           -2.8702    -2.5186     4.7433 H       
@<TRIPOS>BOND
   1    1    2 1
   2    1    9 ar
   3    1   15 ar
   4    2    3 1
   5    2    6 2
   6    3    4 1
   7    3   16 1
   8    4    5 2
   9    4   20 1
  10    5    6 1
  11    5    7 1
  12    7    8 am
  13    7   10 2
  14    8   11 1
  15    8   33 1
  16    9   12 ar
  17    9   34 1
  18   11   21 1
  19   11   23 1
  20   11   35 1
  21   12   13 ar
  22   12   31 1
  23   13   14 ar
  24   13   30 1
  25   14   15 ar
  26   14   36 1
  27   15   37 1
  28   16   17 1
  29   16   38 1
  30   16   39 1
  31   17   18 1
  32   17   40 1
  33   17   41 1
  34   18   19 1
  35   18   32 1
  36   18   42 1
  37   19   20 1
  38   19   29 1
  39   20   43 1
  40   20   44 1
  41   21   26 1
  42   21   27 1
  43   21   28 1
  44   22   23 am
  45   22   24 1
  46   22   45 1
  47   23   25 2
  48   24   46 1
  49   24   47 1
  50   24   48 1
  51   26   49 1
  52   26   50 1
  53   26   51 1
  54   27   52 1
  55   27   53 1
  56   27   54 1
  57   28   55 1
  58   28   56 1
  59   28   57 1
  60   29   58 1
  61   29   59 1
  62   29   60 1
  63   32   61 1
  64   32   62 1
  65   32   63 1

#	End of record

