#	Name: ASD03090360
#	Creating user name:	WinNT
#	Creation time:	15. 06. 2019 20:28

#	Modifying user name:	WinNT
#	Modification time:	15. 06. 2019 20:28

#	Program:	/corina/corina34_cracker 3.40 0067  02.08.2006

@<TRIPOS>MOLECULE
ASD03090360
  32   34    0    0    0
SMALL
NO_CHARGES


@<TRIPOS>ATOM
   1 C1            -0.0168     1.3892     0.0097 C.ar    
   2 C2             0.0021    -0.0041     0.0020 C.ar    
   3 C3             1.2219    -0.6607    -0.0132 C.ar    
   4 C4             2.3824     0.0995    -0.0202 C.ar    
   5 C5             2.2883     1.4831    -0.0119 C.ar    
   6 N6             1.1166     2.0799     0.0026 N.ar    
   7 C7            -1.3132     2.1058     0.0197 C.2     
   8 O8            -2.3541     1.4787     0.0212 O.2     
   9 N9            -1.3382     3.4533     0.0271 N.am    
  10 C10           -2.6204     4.1620     0.0371 C.3     
  11 N11           -1.6993     9.7133    -0.2104 N.pl3   
  12 C12           -1.6778     9.8870    -1.5674 C.2     
  13 C13           -1.8761     8.7104    -2.1825 C.2     
  14 C14           -2.0377     7.7007    -1.1336 C.ar    
  15 C15           -2.2668     6.3233    -1.1392 C.ar    
  16 C16           -2.3726     5.6485     0.0440 C.ar    
  17 C17           -2.2542     6.3212     1.2526 C.ar    
  18 C18           -2.0285     7.6798     1.2813 C.ar    
  19 C19           -1.9174     8.3871     0.0884 C.ar    
  20 Br20           4.0755    -0.7424    -0.0404 Br      
  21 H21           -0.9213    -0.5642     0.0082 H       
  22 H22            1.2683    -1.7397    -0.0191 H       
  23 H23            3.1893     2.0785    -0.0170 H       
  24 H24           -0.5074     3.9538     0.0259 H       
  25 H25           -3.1911     3.8929    -0.8517 H       
  26 H26           -3.1827     3.8832     0.9282 H       
  27 H27           -1.5752    10.4188     0.4437 H       
  28 H28           -1.5245    10.8309    -2.0694 H       
  29 H29           -1.9100     8.5404    -3.2485 H       
  30 H30           -2.3609     5.7935    -2.0756 H       
  31 H31           -2.3401     5.7739     2.1797 H       
  32 H32           -1.9382     8.1942     2.2266 H       
@<TRIPOS>BOND
   1    1    2 ar
   2    1    6 ar
   3    1    7 1
   4    2    3 ar
   5    2   21 1
   6    3    4 ar
   7    3   22 1
   8    4    5 ar
   9    4   20 1
  10    5    6 ar
  11    5   23 1
  12    7    8 2
  13    7    9 am
  14    9   10 1
  15    9   24 1
  16   10   16 1
  17   10   25 1
  18   10   26 1
  19   11   12 1
  20   11   19 1
  21   11   27 1
  22   12   13 2
  23   12   28 1
  24   13   14 1
  25   13   29 1
  26   14   15 ar
  27   14   19 ar
  28   15   16 ar
  29   15   30 1
  30   16   17 ar
  31   17   18 ar
  32   17   31 1
  33   18   19 ar
  34   18   32 1

#	End of record

