#	Name: ASD05143292
#	Creating user name:	WinNT
#	Creation time:	15. 06. 2019 20:57

#	Modifying user name:	WinNT
#	Modification time:	15. 06. 2019 20:57

#	Program:	/corina/corina34_cracker 3.40 0067  02.08.2006

@<TRIPOS>MOLECULE
ASD05143292
  45   47    0    0    0
SMALL
NO_CHARGES


@<TRIPOS>ATOM
   1 C1             0.4189     1.1990     0.2686 C.2     
   2 N2             0.3920    -0.0639    -0.1085 N.2     
   3 S3            -1.2526    -0.4792    -0.2092 S.3     
   4 C4            -1.8218     1.0761     0.2638 C.2     
   5 N5            -0.7400     1.7952     0.4687 N.2     
   6 N6            -3.1360     1.4808     0.4034 N.pl3   
   7 C7            -3.4265     2.7575     0.8995 C.ar    
   8 C8            -4.7427     3.1115     1.1900 C.ar    
   9 C9            -5.0240     4.3757     1.6804 C.ar    
  10 C10           -4.0001     5.2837     1.8808 C.ar    
  11 C11           -2.6943     4.9334     1.5930 C.ar    
  12 C12           -2.4043     3.6715     1.1085 C.ar    
  13 C13            1.4684    -0.8746    -0.3661 C.ar    
  14 C14            2.3985    -0.5154    -1.3424 C.ar    
  15 C15            1.6414    -2.0606     0.3519 C.ar    
  16 C16            2.7271    -2.8710     0.0875 C.ar    
  17 C17            3.6425    -2.5105    -0.8855 C.ar    
  18 C18            3.4792    -1.3350    -1.5964 C.ar    
  19 C19            1.6995     1.9176     0.4657 C.ar    
  20 C20            1.7834     3.2841     0.2006 C.ar    
  21 C21            2.8242     1.2312     0.9225 C.ar    
  22 C22            4.0141     1.9058     1.1041 C.ar    
  23 C23            4.0927     3.2603     0.8339 C.ar    
  24 C24            2.9789     3.9478     0.3860 C.ar    
  25 O25           -5.7485     2.2178     0.9920 O.3     
  26 C26           -7.0726     2.6499     1.3116 C.3     
  27 Cl27           0.4943    -2.5135     1.5736 Cl      
  28 H28           -3.8571     0.8803     0.1578 H       
  29 H29           -6.0432     4.6527     1.9060 H       
  30 H30           -4.2215     6.2692     2.2630 H       
  31 H31           -1.8982     5.6459     1.7508 H       
  32 H32           -1.3831     3.4005     0.8844 H       
  33 H33            2.2726     0.4019    -1.8983 H       
  34 H34            2.8625    -3.7882     0.6415 H       
  35 H35            4.4907    -3.1477    -1.0880 H       
  36 H36            4.1975    -1.0597    -2.3544 H       
  37 H37            0.9147     3.8218    -0.1495 H       
  38 H38            2.7639     0.1738     1.1341 H       
  39 H39            4.8858     1.3755     1.4582 H       
  40 H40            5.0262     3.7841     0.9776 H       
  41 H41            3.0463     5.0052     0.1767 H       
  42 H42           -7.1225     2.9179     2.3670 H       
  43 H43           -7.3281     3.5179     0.7038 H       
  44 H44           -7.7770     1.8435     1.1078 H       
  45 Br45          10.0262    11.2692     7.3670 Br      
@<TRIPOS>BOND
   1    1    2 2
   2    1   19 1
   3    1    5 1
   4    2    3 1
   5    2   13 1
   6    3    4 1
   7    4    5 2
   8    4    6 1
   9    6    7 1
  10    6   28 1
  11    7    8 ar
  12    7   12 ar
  13    8    9 ar
  14    8   25 1
  15    9   10 ar
  16    9   29 1
  17   10   11 ar
  18   10   30 1
  19   11   12 ar
  20   11   31 1
  21   12   32 1
  22   13   14 ar
  23   13   15 ar
  24   14   18 ar
  25   14   33 1
  26   15   16 ar
  27   15   27 1
  28   16   17 ar
  29   16   34 1
  30   17   18 ar
  31   17   35 1
  32   18   36 1
  33   19   20 ar
  34   19   21 ar
  35   20   24 ar
  36   20   37 1
  37   21   22 ar
  38   21   38 1
  39   22   23 ar
  40   22   39 1
  41   23   24 ar
  42   23   40 1
  43   24   41 1
  44   25   26 1
  45   26   42 1
  46   26   43 1
  47   26   44 1

#	End of record

