#	Name: ASD01840202
#	Creating user name:	WinNT
#	Creation time:	15. 06. 2019 19:37

#	Modifying user name:	WinNT
#	Modification time:	15. 06. 2019 19:37

#	Program:	/corina/corina34_cracker 3.40 0067  02.08.2006

@<TRIPOS>MOLECULE
ASD01840202
  41   44    0    0    0
SMALL
NO_CHARGES


@<TRIPOS>ATOM
   1 C1            -0.1662     1.0977     0.2339 C.ar    
   2 C2            -0.1064    -0.2725     0.1046 C.ar    
   3 N3             1.0636    -0.8866     0.0640 N.ar    
   4 N4             2.1766    -0.2578     0.1407 N.ar    
   5 C5             1.0512     1.8108     0.3203 C.ar    
   6 C6             2.6089     3.5674     0.5102 C.2     
   7 C7             1.2953     3.2346     0.4589 C.2     
   8 C8             2.2394     1.0697     0.2679 C.ar    
   9 S9             3.6252     2.1444     0.3906 S.3     
  10 N10            0.2745     4.1728     0.5318 N.pl3   
  11 C11            3.1114     4.9337     0.6466 C.2     
  12 N12            4.4390     5.1625     0.6883 N.am    
  13 O13            2.3306     5.8648     0.7224 O.2     
  14 C14            4.9424     6.5314     0.8249 C.3     
  15 C15           -1.4904     1.8159     0.2759 C.3     
  16 C16           -1.3790    -1.0740     0.0095 C.3     
  17 C17            6.4492     6.5128     0.8460 C.ar    
  18 C18            7.1207     6.3861     2.0481 C.ar    
  19 C19            7.1567     6.6165    -0.3367 C.ar    
  20 C20            8.5393     6.5995    -0.3225 C.ar    
  21 C21            9.2187     6.4777     0.8783 C.ar    
  22 C22            8.5055     6.3687     2.0700 C.ar    
  23 O23           10.5530     6.4352     1.1631 O.3     
  24 C24           10.6449     5.8937     2.4942 C.3     
  25 O25            9.3932     6.2563     3.1008 O.3     
  26 H26            0.4604     5.1070     0.3482 H       
  27 H27           -0.6245     3.8941     0.7662 H       
  28 H28            5.0611     4.4207     0.6279 H       
  29 H29            4.5983     7.1309    -0.0179 H       
  30 H30            4.5714     6.9640     1.7540 H       
  31 H31           -1.7784     1.9868     1.3131 H       
  32 H32           -1.4014     2.7725    -0.2389 H       
  33 H33           -2.2493     1.2077    -0.2164 H       
  34 H34           -1.6707    -1.1700    -1.0364 H       
  35 H35           -1.2169    -2.0648     0.4339 H       
  36 H36           -2.1700    -0.5670     0.5621 H       
  37 H37            6.5652     6.3011     2.9704 H       
  38 H38            6.6286     6.7108    -1.2740 H       
  39 H39            9.0897     6.6807    -1.2482 H       
  40 H40           10.7473     4.8091     2.4602 H       
  41 H41           11.4798     6.3416     3.0330 H       
@<TRIPOS>BOND
   1    1    2 ar
   2    1    5 ar
   3    1   15 1
   4    2    3 ar
   5    2   16 1
   6    3    4 ar
   7    4    8 ar
   8    5    8 ar
   9    5    7 1
  10    6    7 2
  11    6    9 1
  12    6   11 1
  13    7   10 1
  14    8    9 1
  15   10   26 1
  16   10   27 1
  17   11   12 am
  18   11   13 2
  19   12   14 1
  20   12   28 1
  21   14   17 1
  22   14   29 1
  23   14   30 1
  24   15   31 1
  25   15   32 1
  26   15   33 1
  27   16   34 1
  28   16   35 1
  29   16   36 1
  30   17   19 ar
  31   17   18 ar
  32   18   22 ar
  33   18   37 1
  34   19   20 ar
  35   19   38 1
  36   20   21 ar
  37   20   39 1
  38   21   23 1
  39   21   22 ar
  40   22   25 1
  41   23   24 1
  42   24   25 1
  43   24   40 1
  44   24   41 1

#	End of record

