#	Name: ASD08830087
#	Creating user name:	WinNT
#	Creation time:	15. 06. 2019 21:19

#	Modifying user name:	WinNT
#	Modification time:	15. 06. 2019 21:19

#	Program:	/corina/corina34_cracker 3.40 0067  02.08.2006

@<TRIPOS>MOLECULE
ASD08830087
  46   47    0    0    0
SMALL
NO_CHARGES


@<TRIPOS>ATOM
   1 C1            -0.5514     1.1861     2.0997 C.ar    
   2 C2            -0.3540    -0.1383     1.4964 C.2     
   3 C3            -1.5408    -0.9282     1.0079 C.3     
   4 C4            -1.0628    -2.2610     0.4283 C.3     
   5 N5            -2.2253    -3.0891     0.0811 N.3     
   6 O6             0.7642    -0.5963     1.3913 O.2     
   7 C7             0.5505     1.9218     2.5544 C.ar    
   8 C8             0.3556     3.1653     3.1198 C.ar    
   9 C9            -0.9353     3.6878     3.2385 C.ar    
  10 C10           -2.0267     2.9585     2.7877 C.ar    
  11 C11           -1.8410     1.7190     2.2167 C.ar    
  12 N12            1.4449     3.9195     3.5805 N.am    
  13 C13            1.2146     4.9678     4.4008 C.2     
  14 C14           -0.1948     5.2829     4.8332 C.3     
  15 O15           -1.1093     4.9128     3.7984 O.3     
  16 C16           -2.9776    -2.4991    -1.0343 C.3     
  17 O17            2.1379     5.6523     4.7882 O.2     
  18 C18           -1.8173    -4.4658    -0.2291 C.3     
  19 C19           -4.0391    -1.5440    -0.4848 C.3     
  20 C20           -3.0590    -5.3527    -0.3413 C.3     
  21 C21           -1.0550    -4.4853    -1.5555 C.3     
  22 C22           -2.0195    -1.7278    -1.9442 C.3     
  23 H23           -2.2194    -1.1163     1.8399 H       
  24 H24           -2.0612    -0.3619     0.2355 H       
  25 H25           -0.4683    -2.0758    -0.4663 H       
  26 H26           -0.4540    -2.7813     1.1678 H       
  27 H27            1.5478     1.5176     2.4631 H       
  28 H28           -3.0228     3.3652     2.8813 H       
  29 H29           -2.6920     1.1535     1.8667 H       
  30 H30            2.3495     3.6917     3.3144 H       
  31 H31           -0.4290     4.7262     5.7405 H       
  32 H32           -0.2834     6.3512     5.0306 H       
  33 H33           -3.4621    -3.2913    -1.6051 H       
  34 H34           -1.1730    -4.8416     0.5658 H       
  35 H35           -3.5511    -0.6929    -0.0098 H       
  36 H36           -4.6692    -1.1922    -1.3017 H       
  37 H37           -4.6533    -2.0665     0.2486 H       
  38 H38           -3.6412    -5.0541    -1.2131 H       
  39 H39           -2.7535    -6.3936    -0.4476 H       
  40 H40           -3.6667    -5.2423     0.5567 H       
  41 H41           -1.6993    -4.1095    -2.3504 H       
  42 H42           -0.1705    -3.8534    -1.4755 H       
  43 H43           -0.7523    -5.5068    -1.7856 H       
  44 H44           -1.1929    -2.3763    -2.2345 H       
  45 H45           -2.5523    -1.3970    -2.8357 H       
  46 H46           -1.6307    -0.8605    -1.4105 H       
@<TRIPOS>BOND
   1    1    2 1
   2    1    7 ar
   3    1   11 ar
   4    2    3 1
   5    2    6 2
   6    3    4 1
   7    3   23 1
   8    3   24 1
   9    4    5 1
  10    4   25 1
  11    4   26 1
  12    5   16 1
  13    5   18 1
  14    7    8 ar
  15    7   27 1
  16    8    9 ar
  17    8   12 1
  18    9   10 ar
  19    9   15 1
  20   10   11 ar
  21   10   28 1
  22   11   29 1
  23   12   13 am
  24   12   30 1
  25   13   14 1
  26   13   17 2
  27   14   15 1
  28   14   31 1
  29   14   32 1
  30   16   19 1
  31   16   22 1
  32   16   33 1
  33   18   20 1
  34   18   21 1
  35   18   34 1
  36   19   35 1
  37   19   36 1
  38   19   37 1
  39   20   38 1
  40   20   39 1
  41   20   40 1
  42   21   41 1
  43   21   42 1
  44   21   43 1
  45   22   44 1
  46   22   45 1
  47   22   46 1

#	End of record

