#	Name: ASD00171041
#	Creating user name:	WinNT
#	Creation time:	15. 06. 2019 18:32

#	Modifying user name:	WinNT
#	Modification time:	15. 06. 2019 18:32

#	Program:	/corina/corina34_cracker 3.40 0067  02.08.2006

@<TRIPOS>MOLECULE
ASD00171041
  51   54    0    0    0
SMALL
NO_CHARGES


@<TRIPOS>ATOM
   1 C1            -0.2246     8.1884     1.2418 C.2     
   2 O2             0.3463     9.2537     1.3503 O.2     
   3 C3            -1.3270     7.8532     2.1454 C.ar    
   4 C4            -1.9956     6.6144     2.0240 C.ar    
   5 C5            -3.0435     6.3116     2.8931 C.ar    
   6 C6            -3.4203     7.2184     3.8622 C.ar    
   7 C7            -2.7639     8.4368     3.9821 C.ar    
   8 C8            -1.7232     8.7554     3.1404 C.ar    
   9 Cl9           -4.7257     6.8338     4.9401 Cl      
  10 C10           -2.0502     5.6866    -0.3022 C.2     
  11 C11           -1.5887     5.6488     0.9855 C.2     
  12 C12           -0.6628     4.5682     1.2232 C.2     
  13 C13           -0.4253     3.8106     0.1620 C.2     
  14 S14           -1.3350     4.3766    -1.2287 S.3     
  15 C15           -0.0199     4.3223     2.5638 C.3     
  16 N16            1.0582     5.2972     2.7762 N.3     
  17 C17            1.4558     5.3427     4.1891 C.3     
  18 C18            2.4735     6.4664     4.3981 C.3     
  19 C19            3.6963     6.2122     3.5123 C.3     
  20 C20            3.2481     6.1211     2.0510 C.3     
  21 C21            2.2080     5.0074     1.9100 C.3     
  22 C22            4.6760     7.3466     3.6687 C.ar    
  23 C23            5.9546     7.0964     4.1310 C.ar    
  24 C24            6.8536     8.1363     4.2747 C.ar    
  25 C25            6.4737     9.4279     3.9558 C.ar    
  26 C26            5.1939     9.6776     3.4931 C.ar    
  27 C27            4.2976     8.6360     3.3445 C.ar    
  28 Cl28           7.6021    10.7347     4.1365 Cl      
  29 N29           -2.9521     6.6165    -0.7998 N.pl3   
  30 H30            0.0774     7.4894     0.4759 H       
  31 H31           -3.5603     5.3672     2.8072 H       
  32 H32           -3.0697     9.1373     4.7451 H       
  33 H33           -1.2151     9.7027     3.2440 H       
  34 H34            0.2391     2.9592     0.1537 H       
  35 H35           -0.7670     4.4297     3.3502 H       
  36 H36            0.3922     3.3135     2.5896 H       
  37 H37            0.5777     5.5282     4.8077 H       
  38 H38            1.9038     4.3899     4.4711 H       
  39 H39            2.0216     7.4212     4.1293 H       
  40 H40            2.7801     6.4898     5.4438 H       
  41 H41            4.1711     5.2763     3.8067 H       
  42 H42            2.8084     7.0705     1.7453 H       
  43 H43            4.1082     5.8977     1.4198 H       
  44 H44            2.6525     4.0561     2.2027 H       
  45 H45            1.8763     4.9493     0.8734 H       
  46 H46            6.2509     6.0882     4.3803 H       
  47 H47            7.8523     7.9408     4.6363 H       
  48 H48            4.8968    10.6856     3.2440 H       
  49 H49            3.3000     8.8302     2.9792 H       
  50 H50           -3.3049     7.3088    -0.2192 H       
  51 H51           -3.2298     6.5741    -1.7283 H       
@<TRIPOS>BOND
   1    1    2 2
   2    1    3 1
   3    1   30 1
   4    3    4 ar
   5    3    8 ar
   6    4    5 ar
   7    4   11 1
   8    5    6 ar
   9    5   31 1
  10    6    7 ar
  11    6    9 1
  12    7    8 ar
  13    7   32 1
  14    8   33 1
  15   10   11 2
  16   10   14 1
  17   10   29 1
  18   11   12 1
  19   12   13 2
  20   12   15 1
  21   13   14 1
  22   13   34 1
  23   15   16 1
  24   15   35 1
  25   15   36 1
  26   16   17 1
  27   16   21 1
  28   17   18 1
  29   17   37 1
  30   17   38 1
  31   18   19 1
  32   18   39 1
  33   18   40 1
  34   19   20 1
  35   19   22 1
  36   19   41 1
  37   20   21 1
  38   20   42 1
  39   20   43 1
  40   21   44 1
  41   21   45 1
  42   22   23 ar
  43   22   27 ar
  44   23   24 ar
  45   23   46 1
  46   24   25 ar
  47   24   47 1
  48   25   26 ar
  49   25   28 1
  50   26   27 ar
  51   26   48 1
  52   27   49 1
  53   29   50 1
  54   29   51 1

#	End of record

