#	Name: ASD01900480
#	Creating user name:	WinNT
#	Creation time:	15. 06. 2019 19:52

#	Modifying user name:	WinNT
#	Modification time:	15. 06. 2019 19:52

#	Program:	/corina/corina34_cracker 3.40 0067  02.08.2006

@<TRIPOS>MOLECULE
ASD01900480
  31   33    0    0    0
SMALL
NO_CHARGES


@<TRIPOS>ATOM
   1 N1            -0.0503     1.3501    -0.0006 N.pl3   
   2 N2            -0.0426    -0.0444    -0.1339 N.2     
   3 C3             1.2012    -0.4513    -0.1063 C.2     
   4 C4             2.0251     0.6692     0.0452 C.2     
   5 C5             1.2321     1.7642     0.1077 C.2     
   6 C6            -1.1871     2.1719     0.0121 C.ar    
   7 C7            -2.4510     1.6111    -0.1146 C.ar    
   8 C8            -3.5693     2.4202    -0.1021 C.ar    
   9 C9            -3.4306     3.7940     0.0371 C.ar    
  10 C10           -2.1679     4.3548     0.1637 C.ar    
  11 C11           -1.0491     3.5456     0.1570 C.ar    
  12 O12           -4.5321     4.5905     0.0489 O.3     
  13 C13           -5.1653     4.7826     1.2309 C.ar    
  14 N14           -6.1878     5.6209     1.2867 N.ar    
  15 C15           -6.8284     5.8318     2.4248 C.ar    
  16 C16           -6.4163     5.1623     3.5662 C.ar    
  17 C17           -5.3420     4.2917     3.4714 C.ar    
  18 N18           -4.7498     4.1234     2.3005 N.ar    
  19 C19           -4.9411     1.8117    -0.2401 C.3     
  20 H20            1.5340    -1.4756    -0.1863 H       
  21 H21            3.1036     0.6616     0.1025 H       
  22 H22            1.5642     2.7853     0.2233 H       
  23 H23           -2.5591     0.5420    -0.2233 H       
  24 H24           -2.0604     5.4240     0.2720 H       
  25 H25           -0.0665     3.9818     0.2601 H       
  26 H26           -7.6619     6.5175     2.4640 H       
  27 H27           -6.9209     5.3157     4.5087 H       
  28 H28           -4.9952     3.7545     4.3417 H       
  29 H29           -5.3312     1.5672     0.7479 H       
  30 H30           -5.6070     2.5237    -0.7277 H       
  31 H31           -4.8772     0.9041    -0.8404 H       
@<TRIPOS>BOND
   1    1    2 1
   2    1    5 1
   3    1    6 1
   4    2    3 2
   5    3    4 1
   6    3   20 1
   7    4    5 2
   8    4   21 1
   9    5   22 1
  10    6    7 ar
  11    6   11 ar
  12    7    8 ar
  13    7   23 1
  14    8    9 ar
  15    8   19 1
  16    9   10 ar
  17    9   12 1
  18   10   11 ar
  19   10   24 1
  20   11   25 1
  21   12   13 1
  22   13   14 ar
  23   13   18 ar
  24   14   15 ar
  25   15   16 ar
  26   15   26 1
  27   16   17 ar
  28   16   27 1
  29   17   18 ar
  30   17   28 1
  31   19   29 1
  32   19   30 1
  33   19   31 1

#	End of record

