#	Name: ASD02500260
#	Creating user name:	WinNT
#	Creation time:	15. 06. 2019 20:22

#	Modifying user name:	WinNT
#	Modification time:	15. 06. 2019 20:22

#	Program:	/corina/corina34_cracker 3.40 0067  02.08.2006

@<TRIPOS>MOLECULE
ASD02500260
  73   77    0    0    0
SMALL
NO_CHARGES


@<TRIPOS>ATOM
   1 N1            -2.7443     6.4297    -2.0147 N.ar    
   2 C2            -3.2876     7.1109    -2.9940 C.ar    
   3 C3            -4.6678     7.2710    -3.0984 C.ar    
   4 C4            -5.4916     6.7099    -2.1648 C.ar    
   5 C5            -4.9047     5.9787    -1.1147 C.ar    
   6 C6            -5.6871     5.3739    -0.1183 C.ar    
   7 C7            -5.0814     4.6752     0.8813 C.ar    
   8 C8            -3.6945     4.5525     0.9290 C.ar    
   9 C9            -2.9057     5.1259    -0.0205 C.ar    
  10 C10           -3.4937     5.8552    -1.0684 C.ar    
  11 S11           -1.1540     4.9555     0.0642 S.o2    
  12 O12           -0.6151     6.2587    -0.1107 O.2     
  13 O13           -0.8838     4.1491     1.2026 O.2     
  14 N14           -0.6829     4.0737    -1.2560 N.am    
  15 C15           -1.1016     2.7551    -1.3969 C.ar    
  16 C16           -1.5997     2.3134    -2.6167 C.ar    
  17 C17           -2.0159     1.0015    -2.7571 C.ar    
  18 C18           -1.9315     0.1250    -1.6634 C.ar    
  19 C19           -1.4279     0.5848    -0.4424 C.ar    
  20 C20           -1.0150     1.8799    -0.3161 C.ar    
  21 O21           -2.5035     0.5642    -3.9452 O.3     
  22 C22           -2.5597     1.5132    -5.0121 C.3     
  23 C23           -2.3720    -1.2730    -1.8014 C.2     
  24 O24           -3.4956    -1.5205    -2.1960 O.2     
  25 N25           -1.5302    -2.2786    -1.4904 N.am    
  26 C26           -1.9195    -3.6774    -1.7179 C.3     
  27 C27           -0.8537    -4.3463    -2.5947 C.3     
  28 N28            0.4702    -4.0637    -2.0224 N.am    
  29 C29            0.8595    -2.6649    -1.7949 C.3     
  30 C30           -0.2042    -1.9957    -0.9233 C.3     
  31 C31            1.3119    -5.0693    -1.7114 C.2     
  32 C32            2.7138    -4.7632    -1.2507 C.3     
  33 C33            3.4873    -6.0705    -1.0678 C.3     
  34 O34            0.9412    -6.2205    -1.8024 O.2     
  35 C35            3.4169    -3.8968    -2.2975 C.3     
  36 C36            2.6611    -4.0230     0.0609 C.ar    
  37 C37            3.8142    -3.4755     0.5918 C.ar    
  38 C38            3.7670    -2.7960     1.7942 C.ar    
  39 C39            2.5643    -2.6637     2.4674 C.ar    
  40 C40            1.4101    -3.2125     1.9347 C.ar    
  41 C41            1.4587    -3.8870     0.7294 C.ar    
  42 F42            2.5171    -2.0001     3.6432 F       
  43 H43           -2.6484     7.5603    -3.7396 H       
  44 H44           -5.0856     7.8387    -3.9167 H       
  45 H45           -6.5636     6.8243    -2.2301 H       
  46 H46           -6.7632     5.4627    -0.1441 H       
  47 H47           -5.6841     4.2103     1.6475 H       
  48 H48           -3.2378     3.9937     1.7325 H       
  49 H49           -0.1148     4.4769    -1.9310 H       
  50 H50           -1.6621     2.9931    -3.4536 H       
  51 H51           -1.3620    -0.0867     0.4008 H       
  52 H52           -0.6230     2.2291     0.6277 H       
  53 H53           -3.1982     2.3479    -4.7228 H       
  54 H54           -1.5557     1.8805    -5.2249 H       
  55 H55           -2.9679     1.0350    -5.9025 H       
  56 H56           -1.9872    -4.1983    -0.7628 H       
  57 H57           -2.8839    -3.7109    -2.2248 H       
  58 H58           -1.0207    -5.4232    -2.6159 H       
  59 H59           -0.9080    -3.9451    -3.6067 H       
  60 H60            1.8238    -2.6314    -1.2880 H       
  61 H61            0.9271    -2.1440    -2.7500 H       
  62 H62           -0.0360    -0.9189    -0.9056 H       
  63 H63           -0.1469    -2.3941     0.0896 H       
  64 H64            3.5995    -6.5644    -2.0330 H       
  65 H65            4.4721    -5.8550    -0.6533 H       
  66 H66            2.9414    -6.7235    -0.3868 H       
  67 H67            2.8132    -3.0126    -2.5022 H       
  68 H68            4.3927    -3.5910    -1.9200 H       
  69 H69            3.5457    -4.4694    -3.2160 H       
  70 H70            4.7522    -3.5791     0.0667 H       
  71 H71            4.6680    -2.3687     2.2090 H       
  72 H72            0.4714    -3.1100     2.4589 H       
  73 H73            0.5578    -4.3116     0.3117 H       
@<TRIPOS>BOND
   1    1    2 ar
   2    1   10 ar
   3    2    3 ar
   4    2   43 1
   5    3    4 ar
   6    3   44 1
   7    4    5 ar
   8    4   45 1
   9    5    6 ar
  10    5   10 ar
  11    6    7 ar
  12    6   46 1
  13    7    8 ar
  14    7   47 1
  15    8    9 ar
  16    8   48 1
  17    9   10 ar
  18    9   11 1
  19   11   12 2
  20   11   13 2
  21   11   14 am
  22   14   15 1
  23   14   49 1
  24   15   16 ar
  25   15   20 ar
  26   16   17 ar
  27   16   50 1
  28   17   18 ar
  29   17   21 1
  30   18   19 ar
  31   18   23 1
  32   19   20 ar
  33   19   51 1
  34   20   52 1
  35   21   22 1
  36   22   53 1
  37   22   54 1
  38   22   55 1
  39   23   24 2
  40   23   25 am
  41   25   26 1
  42   25   30 1
  43   26   27 1
  44   26   56 1
  45   26   57 1
  46   27   28 1
  47   27   58 1
  48   27   59 1
  49   28   29 1
  50   28   31 am
  51   29   30 1
  52   29   60 1
  53   29   61 1
  54   30   62 1
  55   30   63 1
  56   31   32 1
  57   31   34 2
  58   32   33 1
  59   32   35 1
  60   32   36 1
  61   33   64 1
  62   33   65 1
  63   33   66 1
  64   35   67 1
  65   35   68 1
  66   35   69 1
  67   36   37 ar
  68   36   41 ar
  69   37   38 ar
  70   37   70 1
  71   38   39 ar
  72   38   71 1
  73   39   40 ar
  74   39   42 1
  75   40   41 ar
  76   40   72 1
  77   41   73 1

#	End of record

