#	Name: ASD01209085
#	Creating user name:	WinNT
#	Creation time:	15. 06. 2019 19:10

#	Modifying user name:	WinNT
#	Modification time:	15. 06. 2019 19:10

#	Program:	/corina/corina34_cracker 3.40 0067  02.08.2006

@<TRIPOS>MOLECULE
ASD01209085
  43   45    0    0    0
SMALL
NO_CHARGES


@<TRIPOS>ATOM
   1 C1            -0.1810     1.4227     0.0575 C.2     
   2 N2            -0.0644     0.0824    -0.0049 N.pl3   
   3 C3             1.2625    -0.2890    -0.0836 C.ar    
   4 C4             2.0340     0.8832    -0.0705 C.ar    
   5 C5             1.0711     1.9984     0.0225 C.2     
   6 C6            -1.1917    -0.8532     0.0096 C.3     
   7 C7             1.3732     3.3823     0.0669 C.2     
   8 C8             1.8996    -1.5231    -0.1669 C.ar    
   9 C9             3.2754    -1.5840    -0.2354 C.ar    
  10 C10            4.0359    -0.4226    -0.2222 C.ar    
  11 C11            3.4222     0.8082    -0.1399 C.ar    
  12 O12            2.5286     3.7530     0.0278 O.2     
  13 C13            0.2602     4.3938     0.1626 C.3     
  14 C14           -0.0482     4.6750     1.6346 C.3     
  15 C15            0.6895     5.6912    -0.5254 C.3     
  16 Cl16           4.0638    -3.1272    -0.3386 Cl      
  17 C17           -1.5490    -1.2436    -1.4260 C.3     
  18 C18           -2.6399    -2.3288    -1.4211 C.3     
  19 C19           -3.8545    -1.7361    -2.1649 C.3     
  20 C20           -3.2460    -0.6361    -3.0698 C.3     
  21 C21           -2.1388    -0.0293    -2.1726 C.3     
  22 H22           -1.1134     1.9641     0.1206 H       
  23 H23           -0.9157    -1.7459     0.5709 H       
  24 H24           -2.0518    -0.3786     0.4819 H       
  25 H25            1.3171    -2.4325    -0.1775 H       
  26 H26            5.1128    -0.4842    -0.2765 H       
  27 H27            4.0154     1.7106    -0.1300 H       
  28 H28           -0.6310     4.0008    -0.3267 H       
  29 H29            0.8430     5.0680     2.1239 H       
  30 H30           -0.8532     5.4066     1.7038 H       
  31 H31           -0.3541     3.7508     2.1248 H       
  32 H32            0.9092     5.4908    -1.5741 H       
  33 H33           -0.1155     6.4228    -0.4562 H       
  34 H34            1.5807     6.0842    -0.0362 H       
  35 H35           -0.6625    -1.6076    -1.9453 H       
  36 H36           -2.2831    -3.2192    -1.9388 H       
  37 H37           -2.9147    -2.5774    -0.3960 H       
  38 H38           -4.3420    -2.5009    -2.7695 H       
  39 H39           -4.5600    -1.3009    -1.4572 H       
  40 H40           -2.8165    -1.0718    -3.9719 H       
  41 H41           -3.9946     0.1153    -3.3210 H       
  42 H42           -2.5672     0.6816    -1.4661 H       
  43 H43           -1.3742     0.4516    -2.7827 H       
@<TRIPOS>BOND
   1    1    2 1
   2    1    5 2
   3    1   22 1
   4    2    3 1
   5    2    6 1
   6    3    4 ar
   7    3    8 ar
   8    4    5 1
   9    4   11 ar
  10    5    7 1
  11    6   17 1
  12    6   23 1
  13    6   24 1
  14    7   12 2
  15    7   13 1
  16    8    9 ar
  17    8   25 1
  18    9   10 ar
  19    9   16 1
  20   10   11 ar
  21   10   26 1
  22   11   27 1
  23   13   14 1
  24   13   15 1
  25   13   28 1
  26   14   29 1
  27   14   30 1
  28   14   31 1
  29   15   32 1
  30   15   33 1
  31   15   34 1
  32   17   18 1
  33   17   21 1
  34   17   35 1
  35   18   19 1
  36   18   36 1
  37   18   37 1
  38   19   20 1
  39   19   38 1
  40   19   39 1
  41   20   21 1
  42   20   40 1
  43   20   41 1
  44   21   42 1
  45   21   43 1

#	End of record

