#	Name: ASD01885004
#	Creating user name:	WinNT
#	Creation time:	15. 06. 2019 19:49

#	Modifying user name:	WinNT
#	Modification time:	15. 06. 2019 19:49

#	Program:	/corina/corina34_cracker 3.40 0067  02.08.2006

@<TRIPOS>MOLECULE
ASD01885004
  45   47    0    0    0
SMALL
NO_CHARGES


@<TRIPOS>ATOM
   1 N1            -0.0162     1.3436     0.0094 N.am    
   2 C2             0.0021    -0.0041     0.0020 C.2     
   3 O3             1.0628    -0.5974    -0.0113 O.2     
   4 C4            -1.2689    -0.7611     0.0101 C.ar    
   5 C5            -1.2403    -2.1529     0.0081 C.ar    
   6 C6            -2.4467    -2.8542     0.0163 C.ar    
   7 C7            -3.6411    -2.1188     0.0261 C.ar    
   8 O8            -4.8399    -2.7544     0.0348 O.3     
   9 C9            -6.0094    -1.9333     0.0445 C.3     
  10 C10           -7.2556    -2.8209     0.0533 C.3     
  11 O11           -7.3039    -3.5621     1.2740 O.3     
  12 C12           -8.3551    -4.4042     1.4425 C.ar    
  13 C13           -9.3314    -4.5332     0.4581 C.ar    
  14 C14          -10.3847    -5.3999     0.6673 C.ar    
  15 N15          -10.4727    -6.1003     1.7820 N.ar    
  16 C16           -9.5676    -6.0053     2.7378 C.ar    
  17 C17           -8.4817    -5.1654     2.6021 C.ar    
  18 C18           -9.7192    -6.8290     3.9906 C.3     
  19 F19          -10.8171    -7.6854     3.8557 F       
  20 F20           -8.5601    -7.5854     4.1945 F       
  21 F21           -9.9210    -5.9809     5.0848 F       
  22 C22           -3.5799    -0.7296     0.0274 C.ar    
  23 N23           -2.4240    -0.1044     0.0246 N.ar    
  24 C24           -2.4654    -4.3372     0.0141 C.ar    
  25 C25           -3.2467    -5.0277     0.9391 C.ar    
  26 C26           -3.2611    -6.4072     0.9334 C.ar    
  27 C27           -2.5004    -7.1063     0.0101 C.ar    
  28 F28           -2.5175    -8.4572     0.0081 F       
  29 C29           -1.7227    -6.4240    -0.9116 C.ar    
  30 C30           -1.7063    -5.0444    -0.9167 C.ar    
  31 H31            0.8172     1.8399     0.0041 H       
  32 H32           -0.8627     1.8171     0.0160 H       
  33 H33           -0.2988    -2.6819     0.0001 H       
  34 H34           -6.0047    -1.3048     0.9351 H       
  35 H35           -6.0184    -1.3032    -0.8448 H       
  36 H36           -8.1461    -2.1977    -0.0289 H       
  37 H37           -7.2161    -3.5110    -0.7895 H       
  38 H38           -9.2654    -3.9626    -0.4565 H       
  39 H39          -11.1466    -5.5060    -0.0908 H       
  40 H40           -7.7420    -5.0960     3.3859 H       
  41 H41           -4.4951    -0.1563     0.0350 H       
  42 H42           -3.8396    -4.4836     1.6594 H       
  43 H43           -3.8659    -6.9431     1.6500 H       
  44 H44           -1.1314    -6.9729    -1.6295 H       
  45 H45           -1.1030    -4.5134    -1.6381 H       
@<TRIPOS>BOND
   1    1    2 am
   2    1   31 1
   3    1   32 1
   4    2    3 2
   5    2    4 1
   6    4   23 ar
   7    4    5 ar
   8    5    6 ar
   9    5   33 1
  10    6    7 ar
  11    6   24 1
  12    7    8 1
  13    7   22 ar
  14    8    9 1
  15    9   10 1
  16    9   34 1
  17    9   35 1
  18   10   11 1
  19   10   36 1
  20   10   37 1
  21   11   12 1
  22   12   17 ar
  23   12   13 ar
  24   13   14 ar
  25   13   38 1
  26   14   15 ar
  27   14   39 1
  28   15   16 ar
  29   16   17 ar
  30   16   18 1
  31   17   40 1
  32   18   19 1
  33   18   20 1
  34   18   21 1
  35   22   23 ar
  36   22   41 1
  37   24   30 ar
  38   24   25 ar
  39   25   26 ar
  40   25   42 1
  41   26   27 ar
  42   26   43 1
  43   27   28 1
  44   27   29 ar
  45   29   30 ar
  46   29   44 1
  47   30   45 1

#	End of record

