#	Name: ASD03080169
#	Creating user name:	WinNT
#	Creation time:	15. 06. 2019 20:26

#	Modifying user name:	WinNT
#	Modification time:	15. 06. 2019 20:26

#	Program:	/corina/corina34_cracker 3.40 0067  02.08.2006

@<TRIPOS>MOLECULE
ASD03080169
  42   44    0    0    0
SMALL
NO_CHARGES


@<TRIPOS>ATOM
   1 C1             0.0633     1.4361     0.6029 C.ar    
   2 C2             0.1131     0.0580     0.8175 C.ar    
   3 C3             1.3190    -0.6169     0.6041 C.ar    
   4 C4             2.4195     0.1198     0.1854 C.ar    
   5 C5             2.2855     1.4882    -0.0049 C.ar    
   6 N6             1.1328     2.0935     0.2057 N.ar    
   7 O7             3.6132    -0.4917    -0.0348 O.3     
   8 C8             4.8636    -3.9881    -0.5975 C.3     
   9 C9             4.7926    -2.4694    -0.7767 C.3     
  10 C10            3.6410    -1.9166     0.0687 C.3     
  11 C11            3.8561    -2.3201     1.5307 C.3     
  12 C12            3.9633    -3.8446     1.6208 C.3     
  13 O13            5.0332    -4.2956     0.7877 O.3     
  14 C14           -1.0897    -0.6764     1.2639 C.2     
  15 C15           -2.2274    -0.0260     1.4635 C.2     
  16 N16           -5.6987     0.0976     1.6134 N.3     
  17 C17           -4.5984    -0.5915     0.9051 C.3     
  18 C18           -3.4535    -0.7747     1.9185 C.3     
  19 C19           -3.9862    -0.1782     3.2416 C.3     
  20 C20           -5.5229    -0.2306     3.0513 C.3     
  21 H21           -0.8634     1.9682     0.7599 H       
  22 H22            1.3929    -1.6829     0.7610 H       
  23 H23            3.1379     2.0659    -0.3304 H       
  24 H24            3.9404    -4.4405    -0.9599 H       
  25 H25            5.7079    -4.3819    -1.1633 H       
  26 H26            5.7311    -2.0201    -0.4521 H       
  27 H27            4.6190    -2.2342    -1.8268 H       
  28 H28            2.6966    -2.3267    -0.2889 H       
  29 H29            4.7758    -1.8677     1.9019 H       
  30 H30            3.0129    -1.9781     2.1308 H       
  31 H31            4.1592    -4.1349     2.6530 H       
  32 H32            3.0284    -4.2950     1.2874 H       
  33 H33           -1.0415    -1.7428     1.4274 H       
  34 H34           -2.2755     1.0405     1.3000 H       
  35 H35           -5.6577     1.0944     1.4624 H       
  36 H36           -4.9378    -1.5640     0.5486 H       
  37 H37           -4.2584     0.0163     0.0666 H       
  38 H38           -3.2261    -1.8331     2.0452 H       
  39 H39           -3.6816    -0.7900     4.0907 H       
  40 H40           -3.6476     0.8505     3.3648 H       
  41 H41           -6.0138     0.5135     3.6786 H       
  42 H42           -5.9035    -1.2289     3.2674 H       
@<TRIPOS>BOND
   1    1    2 ar
   2    1    6 ar
   3    1   21 1
   4    2    3 ar
   5    2   14 1
   6    3    4 ar
   7    3   22 1
   8    4    5 ar
   9    4    7 1
  10    5    6 ar
  11    5   23 1
  12    7   10 1
  13    8    9 1
  14    8   13 1
  15    8   24 1
  16    8   25 1
  17    9   10 1
  18    9   26 1
  19    9   27 1
  20   10   11 1
  21   10   28 1
  22   11   12 1
  23   11   29 1
  24   11   30 1
  25   12   13 1
  26   12   31 1
  27   12   32 1
  28   14   15 2
  29   14   33 1
  30   15   18 1
  31   15   34 1
  32   16   17 1
  33   16   20 1
  34   16   35 1
  35   17   18 1
  36   17   36 1
  37   17   37 1
  38   18   19 1
  39   18   38 1
  40   19   20 1
  41   19   39 1
  42   19   40 1
  43   20   41 1
  44   20   42 1

#	End of record

