#	Name: ASD01148588
#	Creating user name:	WinNT
#	Creation time:	15. 06. 2019 19:02

#	Modifying user name:	WinNT
#	Modification time:	15. 06. 2019 19:02

#	Program:	/corina/corina34_cracker 3.40 0067  02.08.2006

@<TRIPOS>MOLECULE
ASD01148588
  58   62    0    0    0
SMALL
NO_CHARGES


@<TRIPOS>ATOM
   1 C1            -0.0170     1.4376    -0.0252 C.ar    
   2 C2             0.0192     0.0536    -0.0358 C.ar    
   3 C3            -1.1608    -0.6685    -0.0202 C.ar    
   4 C4            -2.3747    -0.0083     0.0061 C.ar    
   5 C5            -2.4108     1.3738     0.0167 C.ar    
   6 C6            -1.2329     2.0967     0.0064 C.ar    
   7 C7            -3.7351     2.0923     0.0449 C.3     
   8 O8            -4.7242     1.3236     0.7591 O.3     
   9 C9            -3.6508     3.3755     0.9055 C.3     
  10 C10           -4.1239     2.8933     2.2637 C.2     
  11 N11           -4.7055     1.7499     2.1071 N.2     
  12 C12           -3.9498     3.6054     3.5412 C.ar    
  13 C13           -4.4567     3.0243     4.7819 C.ar    
  14 C14           -3.2978     4.8303     3.5750 C.ar    
  15 C15           -3.1199     5.5206     4.7609 C.ar    
  16 C16           -3.5856     5.0180     5.9679 C.ar    
  17 C17           -4.2748     3.7303     5.9947 C.ar    
  18 C18           -3.3812     5.7763     7.2156 C.2     
  19 O19           -3.8820     5.3865     8.2530 O.2     
  20 N20           -2.6393     6.9015     7.2066 N.am    
  21 C21           -4.2108     2.4136    -1.3734 C.3     
  22 F22           -4.3434     1.2261    -2.1010 F       
  23 F23           -5.4476     3.0648    -1.3141 F       
  24 F24           -3.2764     3.2437    -2.0018 F       
  25 Cl25           1.5442    -0.7751    -0.0694 Cl      
  26 Cl26           1.4627     2.3452    -0.0442 Cl      
  27 C27           -2.4362     7.6549     8.4465 C.3     
  28 C28           -1.5772     8.8610     8.1663 C.ar    
  29 N29           -0.2642     8.7409     8.1696 N.ar    
  30 C30            0.5269     9.7685     7.9299 C.ar    
  31 C31            0.0011    11.0186     7.6650 C.ar    
  32 C32           -1.3757    11.1839     7.6529 C.ar    
  33 C33           -2.1751    10.0793     7.9033 C.ar    
  34 C34           -5.1156     1.7883     4.7960 C.ar    
  35 C35           -4.7609     3.1846     7.1895 C.ar    
  36 C36           -5.5725     1.2824     5.9766 C.ar    
  37 C37           -5.3980     1.9795     7.1692 C.ar    
  38 C38           -1.1224    -2.1750    -0.0323 C.3     
  39 F39           -2.4289    -2.6749    -0.0127 F       
  40 F40           -0.4718    -2.6156    -1.1898 F       
  41 F41           -0.4309    -2.6329     1.0943 F       
  42 H42           -3.2956    -0.5724     0.0179 H       
  43 H43           -1.2618     3.1763     0.0148 H       
  44 H44           -2.6244     3.7382     0.9597 H       
  45 H45           -4.3149     4.1470     0.5159 H       
  46 H46           -2.9209     5.2536     2.6557 H       
  47 H47           -2.6071     6.4710     4.7470 H       
  48 H48           -2.2399     7.2124     6.3791 H       
  49 H49           -3.4010     7.9788     8.8370 H       
  50 H50           -1.9417     7.0193     9.1810 H       
  51 H51            1.5981     9.6315     7.9412 H       
  52 H52            0.6541    11.8564     7.4701 H       
  53 H53           -1.8149    12.1493     7.4492 H       
  54 H54           -3.2511    10.1713     7.9015 H       
  55 H55           -5.2611     1.2397     3.8772 H       
  56 H56           -4.6315     3.7152     8.1213 H       
  57 H57           -6.0804     0.3293     5.9865 H       
  58 H58           -5.7724     1.5596     8.0911 H       
@<TRIPOS>BOND
   1    1    2 ar
   2    1   26 1
   3    1    6 ar
   4    2    3 ar
   5    2   25 1
   6    3    4 ar
   7    3   38 1
   8    4    5 ar
   9    4   42 1
  10    5    6 ar
  11    5    7 1
  12    6   43 1
  13    7    8 1
  14    7    9 1
  15    7   21 1
  16    8   11 1
  17    9   10 1
  18    9   44 1
  19    9   45 1
  20   10   11 2
  21   10   12 1
  22   12   13 ar
  23   12   14 ar
  24   13   34 ar
  25   13   17 ar
  26   14   15 ar
  27   14   46 1
  28   15   16 ar
  29   15   47 1
  30   16   17 ar
  31   16   18 1
  32   17   35 ar
  33   18   19 2
  34   18   20 am
  35   20   27 1
  36   20   48 1
  37   21   22 1
  38   21   23 1
  39   21   24 1
  40   27   28 1
  41   27   49 1
  42   27   50 1
  43   28   29 ar
  44   28   33 ar
  45   29   30 ar
  46   30   31 ar
  47   30   51 1
  48   31   32 ar
  49   31   52 1
  50   32   33 ar
  51   32   53 1
  52   33   54 1
  53   34   36 ar
  54   34   55 1
  55   35   37 ar
  56   35   56 1
  57   36   37 ar
  58   36   57 1
  59   37   58 1
  60   38   39 1
  61   38   40 1
  62   38   41 1

#	End of record

