#	Name: ASD07300995
#	Creating user name:	WinNT
#	Creation time:	15. 06. 2019 21:10

#	Modifying user name:	WinNT
#	Modification time:	15. 06. 2019 21:10

#	Program:	/corina/corina34_cracker 3.40 0067  02.08.2006

@<TRIPOS>MOLECULE
ASD07300995
  31   31    0    0    0
SMALL
NO_CHARGES


@<TRIPOS>ATOM
   1 C1            -0.0342     1.4635    -0.1365 C.2     
   2 C2            -0.0011    -0.0025    -0.0193 C.2     
   3 C3             1.2792    -0.7095    -0.0448 C.2     
   4 C4             1.3131    -2.2113     0.0752 C.3     
   5 O5             1.0026     2.0979    -0.1234 O.2     
   6 O6            -1.2141     2.1030    -0.2638 O.3     
   7 N7            -1.1270    -0.6802     0.1088 N.2     
   8 N8            -2.2360    -0.0551     0.3170 N.pl3   
   9 C9            -5.8194    -0.8294     0.5495 C.ar    
  10 C10           -4.6492    -0.0985     0.5491 C.ar    
  11 C11           -3.4397    -0.7561     0.3259 C.ar    
  12 C12           -3.4670    -2.1339     0.1114 C.ar    
  13 C13           -4.6802    -2.7909     0.1278 C.ar    
  14 N14           -5.8033    -2.1324     0.3425 N.ar    
  15 O15            2.3141    -0.0865    -0.1626 O.2     
  16 O16            2.6680    -2.6627     0.0241 O.3     
  17 C17            2.8127    -4.0804     0.1301 C.3     
  18 C18           -1.1709     3.5501    -0.3745 C.3     
  19 H19            0.8661    -2.5102     1.0233 H       
  20 H20            0.7513    -2.6543    -0.7471 H       
  21 H21           -2.2317     0.9032     0.4673 H       
  22 H22           -6.7602    -0.3293     0.7259 H       
  23 H23           -4.6696     0.9679     0.7188 H       
  24 H24           -2.5514    -2.6789    -0.0653 H       
  25 H25           -4.7109    -3.8577    -0.0377 H       
  26 H26            2.3967    -4.4181     1.0793 H       
  27 H27            2.2820    -4.5622    -0.6911 H       
  28 H28            3.8697    -4.3423     0.0829 H       
  29 H29           -2.1852     3.9375    -0.4713 H       
  30 H30           -0.7056     3.9690     0.5177 H       
  31 H31           -0.5897     3.8302    -1.2530 H       
@<TRIPOS>BOND
   1    1    2 1
   2    1    5 2
   3    1    6 1
   4    2    3 1
   5    2    7 2
   6    3    4 1
   7    3   15 2
   8    4   16 1
   9    4   19 1
  10    4   20 1
  11    6   18 1
  12    7    8 1
  13    8   11 1
  14    8   21 1
  15    9   10 ar
  16    9   14 ar
  17    9   22 1
  18   10   11 ar
  19   10   23 1
  20   11   12 ar
  21   12   13 ar
  22   12   24 1
  23   13   14 ar
  24   13   25 1
  25   16   17 1
  26   17   26 1
  27   17   27 1
  28   17   28 1
  29   18   29 1
  30   18   30 1
  31   18   31 1

#	End of record

