#	Name: ASD01813051
#	Creating user name:	WinNT
#	Creation time:	15. 06. 2019 19:29

#	Modifying user name:	WinNT
#	Modification time:	15. 06. 2019 19:29

#	Program:	/corina/corina34_cracker 3.40 0067  02.08.2006

@<TRIPOS>MOLECULE
ASD01813051
  44   47    0    0    0
SMALL
NO_CHARGES


@<TRIPOS>ATOM
   1 N1            -0.0158     1.3147     0.0093 N.ar    
   2 C2             0.0021    -0.0041     0.0020 C.ar    
   3 C3             1.1989    -0.7033    -0.0127 C.ar    
   4 C4             2.3829    -0.0013    -0.0202 C.ar    
   5 C5             2.3448     1.3978    -0.0128 C.ar    
   6 C6             1.0955     2.0332     0.0025 C.ar    
   7 C7             3.8373    -0.3889    -0.0363 C.3     
   8 N8             4.5955     0.8684    -0.0373 N.am    
   9 C9             3.7280     1.8961    -0.0237 C.2     
  10 C10            6.0558     0.9844    -0.0504 C.3     
  11 C11            6.5432     1.0311    -1.4757 C.ar    
  12 O12            1.0255     3.3856     0.0100 O.3     
  13 O13            4.0429     3.0706    -0.0212 O.2     
  14 C14            6.4773     2.2135    -2.1907 C.ar    
  15 C15            6.9249     2.2562    -3.4992 C.ar    
  16 C16            7.4379     1.1165    -4.0915 C.ar    
  17 C17            7.5033    -0.0657    -3.3752 C.ar    
  18 C18            7.0613    -0.1063    -2.0664 C.ar    
  19 C19           -0.2795     3.9677     0.0251 C.3     
  20 Cl20           7.9991     1.1689    -5.7334 Cl      
  21 Cl21           5.8327     3.6433    -1.4465 Cl      
  22 C22           -0.1576     5.4928     0.0317 C.3     
  23 O23            0.4061     5.9406    -1.2066 O.3     
  24 C24           -0.5326     6.7798    -1.8980 C.3     
  25 C25           -1.4572     7.3488    -0.7925 C.3     
  26 C26           -1.5578     6.1295     0.1641 C.3     
  27 H27           -0.9309    -0.5480     0.0080 H       
  28 H28            1.2023    -1.7833    -0.0178 H       
  29 H29            4.0797    -0.9721     0.8522 H       
  30 H30            4.0624    -0.9631    -0.9351 H       
  31 H31            6.3524     1.8979     0.4651 H       
  32 H32            6.4932     0.1235     0.4552 H       
  33 H33            6.8733     3.1790    -4.0579 H       
  34 H34            7.9035    -0.9558    -3.8378 H       
  35 H35            7.1169    -1.0280    -1.5063 H       
  36 H36           -0.8289     3.6509    -0.8614 H       
  37 H37           -0.8123     3.6419     0.9185 H       
  38 H38            0.4741     5.8096     0.8615 H       
  39 H39           -0.0114     7.5893    -2.4091 H       
  40 H40           -1.1118     6.1925    -2.6105 H       
  41 H41           -0.9957     8.2016    -0.2948 H       
  42 H42           -2.4347     7.6134    -1.1957 H       
  43 H43           -2.3315     5.4378    -0.1690 H       
  44 H44           -1.7409     6.4542     1.1884 H       
@<TRIPOS>BOND
   1    1    2 ar
   2    1    6 ar
   3    2    3 ar
   4    2   27 1
   5    3    4 ar
   6    3   28 1
   7    4    7 1
   8    4    5 ar
   9    5    6 ar
  10    5    9 1
  11    6   12 1
  12    7    8 1
  13    7   29 1
  14    7   30 1
  15    8    9 am
  16    8   10 1
  17    9   13 2
  18   10   11 1
  19   10   31 1
  20   10   32 1
  21   11   14 ar
  22   11   18 ar
  23   12   19 1
  24   14   15 ar
  25   14   21 1
  26   15   16 ar
  27   15   33 1
  28   16   17 ar
  29   16   20 1
  30   17   18 ar
  31   17   34 1
  32   18   35 1
  33   19   22 1
  34   19   36 1
  35   19   37 1
  36   22   23 1
  37   22   26 1
  38   22   38 1
  39   23   24 1
  40   24   25 1
  41   24   39 1
  42   24   40 1
  43   25   26 1
  44   25   41 1
  45   25   42 1
  46   26   43 1
  47   26   44 1

#	End of record

