#	Name: ASD01901545
#	Creating user name:	WinNT
#	Creation time:	15. 06. 2019 19:53

#	Modifying user name:	WinNT
#	Modification time:	15. 06. 2019 19:53

#	Program:	/corina/corina34_cracker 3.40 0067  02.08.2006

@<TRIPOS>MOLECULE
ASD01901545
  41   45    0    0    0
SMALL
NO_CHARGES


@<TRIPOS>ATOM
   1 F1             0.2246     0.8989    -0.8798 F       
   2 C2             0.4345     2.2802    -0.9515 C.3     
   3 F3            -0.1948     2.8688    -2.0537 F       
   4 C4             0.1711     3.0130     0.3746 C.3     
   5 C5             1.6468     2.7529     0.7205 C.3     
   6 C6             1.9087     2.6882    -0.7934 C.3     
   7 N7             2.3026     3.8838     1.3818 N.am    
   8 C8             3.3705     3.6728     2.1765 C.2     
   9 O9             3.7897     2.5436     2.3446 O.2     
  10 C10            4.0304     4.8105     2.8417 C.2     
  11 N11            3.6098     6.0278     2.6916 N.2     
  12 S12            4.4768     7.0429     3.4988 S.3     
  13 C13            5.6035     5.8813     4.1975 C.ar    
  14 C14            6.6936     5.9862     5.0464 C.ar    
  15 C15            7.3841     4.8426     5.4132 C.ar    
  16 N16            8.4843     4.9352     6.2686 N.pl3   
  17 C17            8.5520     5.9654     7.2110 C.2     
  18 N18            7.6159     6.8402     7.4664 N.2     
  19 N19            8.0391     7.7172     8.4698 N.pl3   
  20 H20            7.5177     8.4517     8.8298 H       
  21 C21            9.3040     7.3762     8.8642 C.ar    
  22 N22           10.1485     7.8700     9.7619 N.ar    
  23 C23           11.3331     7.3143     9.9234 C.ar    
  24 C24           11.7083     6.2144     9.1615 C.ar    
  25 N25           10.8842     5.7106     8.2656 N.ar    
  26 C26            9.6828     6.2556     8.0953 C.ar    
  27 C27            6.9802     3.5979     4.9281 C.ar    
  28 C28            5.9101     3.4851     4.0933 C.ar    
  29 C29            5.1889     4.6276     3.7102 C.ar    
  30 H30           -0.0685     4.0690     0.2498 H       
  31 H31           -0.5289     2.4935     1.0290 H       
  32 H32            1.8146     1.8060     1.2336 H       
  33 H33            2.6115     1.9065    -1.0819 H       
  34 H34            2.1441     3.6554    -1.2375 H       
  35 H35            1.9683     4.7844     1.2476 H       
  36 H36            7.0025     6.9517     5.4189 H       
  37 H37            9.2013     4.2847     6.2088 H       
  38 H38           12.0183     7.7178    10.6542 H       
  39 H39           12.6821     5.7698     9.3045 H       
  40 H40            7.5243     2.7114     5.2186 H       
  41 H41            5.6125     2.5132     3.7282 H       
@<TRIPOS>BOND
   1    1    2 1
   2    2    6 1
   3    2    3 1
   4    2    4 1
   5    4    5 1
   6    4   30 1
   7    4   31 1
   8    5    6 1
   9    5    7 1
  10    5   32 1
  11    6   33 1
  12    6   34 1
  13    7    8 am
  14    7   35 1
  15    8    9 2
  16    8   10 1
  17   10   29 1
  18   10   11 2
  19   11   12 1
  20   12   13 1
  21   13   29 ar
  22   13   14 ar
  23   14   15 ar
  24   14   36 1
  25   15   16 1
  26   15   27 ar
  27   16   17 1
  28   16   37 1
  29   17   26 1
  30   17   18 2
  31   18   19 1
  32   19   20 1
  33   19   21 1
  34   21   26 ar
  35   21   22 ar
  36   22   23 ar
  37   23   24 ar
  38   23   38 1
  39   24   25 ar
  40   24   39 1
  41   25   26 ar
  42   27   28 ar
  43   27   40 1
  44   28   29 ar
  45   28   41 1

#	End of record

