#	Name: ASD09320014
#	Creating user name:	WinNT
#	Creation time:	15. 06. 2019 21:21

#	Modifying user name:	WinNT
#	Modification time:	15. 06. 2019 21:21

#	Program:	/corina/corina34_cracker 3.40 0067  02.08.2006

@<TRIPOS>MOLECULE
ASD09320014
  33   35    0    0    0
SMALL
NO_CHARGES


@<TRIPOS>ATOM
   1 C1            -0.1824     1.4823    -0.2179 C.ar    
   2 C2            -0.2842     0.1066    -0.2125 C.ar    
   3 C3             1.0382     2.0897     0.0179 C.ar    
   4 C4             2.1643     1.3232     0.2606 C.ar    
   5 C5             2.0768    -0.0534     0.2689 C.ar    
   6 C6             0.8482    -0.6731     0.0317 C.ar    
   7 C7             0.7499    -2.1017     0.0389 C.1     
   8 N8             0.6719    -3.2350     0.0445 N.1     
   9 C9             1.1418     3.5932     0.0099 C.3     
  10 N10            1.7495     4.0475     1.2631 N.pl3   
  11 C11            1.9968     4.0316    -1.1510 C.ar    
  12 C12            2.1457     3.2023    -2.2485 C.ar    
  13 C13            2.6248     5.2640    -1.1168 C.ar    
  14 C14            3.4086     5.6719    -2.1762 C.ar    
  15 C15            3.5678     4.8376    -3.2845 C.ar    
  16 C16            2.9272     3.5972    -3.3144 C.ar    
  17 C17            4.3795     5.2546    -4.3880 C.1     
  18 N18            5.0235     5.5855    -5.2634 N.1     
  19 N19            1.0760     4.4879     2.4141 N.2     
  20 C20            1.9927     4.7966     3.2932 C.2     
  21 N21            3.1942     4.5757     2.7612 N.2     
  22 C22            3.0626     4.1200     1.5419 C.2     
  23 H23           -1.0565     2.0865    -0.4110 H       
  24 H24           -1.2376    -0.3663    -0.3963 H       
  25 H25            3.1140     1.8038     0.4435 H       
  26 H26            2.9566    -0.6506     0.4581 H       
  27 H27            0.1460     4.0254    -0.0886 H       
  28 H28            1.6491     2.2435    -2.2705 H       
  29 H29            2.5009     5.9083    -0.2590 H       
  30 H30            3.8977     6.6344    -2.1486 H       
  31 H31            3.0464     2.9469    -4.1684 H       
  32 H32            1.8066     5.1706     4.2892 H       
  33 H33            3.8684     3.8549     0.8735 H       
@<TRIPOS>BOND
   1    1    2 ar
   2    1    3 ar
   3    1   23 1
   4    2    6 ar
   5    2   24 1
   6    3    4 ar
   7    3    9 1
   8    4    5 ar
   9    4   25 1
  10    5    6 ar
  11    5   26 1
  12    6    7 1
  13    7    8 3
  14    9   10 1
  15    9   11 1
  16    9   27 1
  17   10   19 1
  18   10   22 1
  19   11   12 ar
  20   11   13 ar
  21   12   16 ar
  22   12   28 1
  23   13   14 ar
  24   13   29 1
  25   14   15 ar
  26   14   30 1
  27   15   16 ar
  28   15   17 1
  29   16   31 1
  30   17   18 3
  31   19   20 2
  32   20   21 1
  33   20   32 1
  34   21   22 2
  35   22   33 1

#	End of record

