#	Name: ASD04780004
#	Creating user name:	WinNT
#	Creation time:	15. 06. 2019 20:52

#	Modifying user name:	WinNT
#	Modification time:	15. 06. 2019 20:52

#	Program:	/corina/corina34_cracker 3.40 0067  02.08.2006

@<TRIPOS>MOLECULE
ASD04780004
  33   35    0    0    0
SMALL
NO_CHARGES


@<TRIPOS>ATOM
   1 C1             0.1094     1.1649    -0.7278 C.ar    
   2 C2             0.0116    -0.0183    -0.0735 C.ar    
   3 C3             1.1186    -0.5184     0.6587 C.ar    
   4 C4             2.3833     1.5000    -0.0236 C.ar    
   5 C5             1.2810     1.9187    -0.7051 C.ar    
   6 N6             1.2615    -1.6277     1.3658 N.2     
   7 S7             2.6964    -1.6778     1.9642 S.3     
   8 N8             3.2722    -0.3434     1.4101 N.2     
   9 C9             2.3492     0.2669     0.6863 C.ar    
  10 N10            3.5429     2.2781    -0.0209 N.am    
  11 C11            3.4544     3.6197    -0.1150 C.2     
  12 N12            4.5657     4.3765    -0.0213 N.am    
  13 O13            2.3719     4.1472    -0.2845 O.2     
  14 N14            5.8128     3.7687     0.1740 N.2     
  15 C15            6.8826     4.4974     0.2642 C.2     
  16 C16            8.1951     3.8577     0.4697 C.ar    
  17 C17            9.5188     1.8731     0.7533 C.ar    
  18 C18            8.2900     2.4667     0.5617 C.ar    
  19 C19            9.3485     4.6404     0.5672 C.ar    
  20 C20           10.5731     4.0381     0.7587 C.ar    
  21 C21           10.6620     2.6554     0.8549 C.ar    
  22 O22           11.8713     2.0660     1.0437 O.3     
  23 H23           -0.7408     1.5304    -1.2845 H       
  24 H24           -0.9099    -0.5803    -0.1094 H       
  25 H25            1.3159     2.8560    -1.2404 H       
  26 H26            4.4120     1.8531     0.0486 H       
  27 H27            4.5020     5.3421    -0.0890 H       
  28 H28            6.8117     5.5724     0.1888 H       
  29 H29            9.5930     0.7981     0.8249 H       
  30 H30            7.4015     1.8577     0.4832 H       
  31 H31            9.2804     5.7156     0.4921 H       
  32 H32           11.4652     4.6423     0.8338 H       
  33 H33           12.3336     1.8451     0.2236 H       
@<TRIPOS>BOND
   1    1    2 ar
   2    1    5 ar
   3    1   23 1
   4    2    3 ar
   5    2   24 1
   6    3    6 2
   7    3    9 ar
   8    4    5 ar
   9    4   10 1
  10    4    9 ar
  11    5   25 1
  12    6    7 1
  13    7    8 1
  14    8    9 2
  15   10   11 am
  16   10   26 1
  17   11   12 am
  18   11   13 2
  19   12   14 1
  20   12   27 1
  21   14   15 2
  22   15   16 1
  23   15   28 1
  24   16   19 ar
  25   16   18 ar
  26   17   18 ar
  27   17   21 ar
  28   17   29 1
  29   18   30 1
  30   19   20 ar
  31   19   31 1
  32   20   21 ar
  33   20   32 1
  34   21   22 1
  35   22   33 1

#	End of record

