#	Name: ASD01948058
#	Creating user name:	WinNT
#	Creation time:	15. 06. 2019 20:13

#	Modifying user name:	WinNT
#	Modification time:	15. 06. 2019 20:13

#	Program:	/corina/corina34_cracker 3.40 0067  02.08.2006

@<TRIPOS>MOLECULE
ASD01948058
  48   51    0    0    0
SMALL
NO_CHARGES


@<TRIPOS>ATOM
   1 C1            -0.4829     1.7645     1.0142 C.3     
   2 C2            -0.6279     0.2764     1.3388 C.3     
   3 C3             0.7612     0.9154     1.2831 C.3     
   4 S4            -0.7897     2.2823    -0.6970 S.o2    
   5 O5             0.2961     1.9077    -1.5336 O.2     
   6 O6            -2.1321     2.0025    -1.0695 O.2     
   7 N7            -0.7157     3.9359    -0.6479 N.am    
   8 C8             1.6489     3.8360    -0.2080 C.2     
   9 C9             0.5170     4.5798    -0.4176 C.2     
  10 C10            0.5836     5.9832    -0.4038 C.2     
  11 C11            1.8069     6.5998    -0.1720 C.2     
  12 C12            2.9344     5.8078     0.0344 C.2     
  13 N13            2.8427     4.4658     0.0047 N.am    
  14 O14            1.7833     2.4839    -0.1680 O.3     
  15 C15            3.8809     3.4281     0.1660 C.3     
  16 C16            3.1711     2.1639    -0.3702 C.3     
  17 O17            4.0163     6.3366     0.2437 O.2     
  18 C18            1.9127     8.1028    -0.1445 C.3     
  19 N19           -0.5563     6.7428    -0.6192 N.pl3   
  20 C20           -1.2537     6.6308    -1.8270 C.ar    
  21 C21           -2.4629     7.2973    -1.9983 C.ar    
  22 C22           -3.1488     7.1839    -3.1931 C.ar    
  23 C23           -2.6334     6.4087    -4.2170 C.ar    
  24 C24           -1.4319     5.7451    -4.0485 C.ar    
  25 C25           -0.7380     5.8590    -2.8590 C.ar    
  26 I26           -3.6760     6.2395    -6.0262 I       
  27 F27           -2.9661     8.0537    -0.9983 F       
  28 C28           -0.9006     2.7667     2.0922 C.3     
  29 O29           -0.6952     4.0966     1.6115 O.3     
  30 H30           -1.0210     0.0113     2.3203 H       
  31 H31           -0.9077    -0.3915     0.5241 H       
  32 H32            1.3952     0.6679     0.4317 H       
  33 H33            1.2820     1.0707     2.2279 H       
  34 H34           -1.5207     4.4615    -0.7776 H       
  35 H35            4.7600     3.6629    -0.4340 H       
  36 H36            4.1479     3.3068     1.2158 H       
  37 H37            3.4548     1.2849     0.2086 H       
  38 H38            3.3854     2.0183    -1.4289 H       
  39 H39            1.8373     8.4536     0.8847 H       
  40 H40            2.8722     8.4072    -0.5627 H       
  41 H41            1.1053     8.5348    -0.7357 H       
  42 H42           -0.8702     7.3518     0.0674 H       
  43 H43           -4.0877     7.7004    -3.3274 H       
  44 H44           -1.0330     5.1404    -4.8495 H       
  45 H45            0.2028     5.3444    -2.7308 H       
  46 H46           -1.9547     2.6254     2.3308 H       
  47 H47           -0.3008     2.6076     2.9883 H       
  48 H48           -0.9394     4.7857     2.2444 H       
@<TRIPOS>BOND
   1    1    2 1
   2    1    3 1
   3    1    4 1
   4    1   28 1
   5    2    3 1
   6    2   30 1
   7    2   31 1
   8    3   32 1
   9    3   33 1
  10    4    5 2
  11    4    6 2
  12    4    7 am
  13    7    9 1
  14    7   34 1
  15    8    9 2
  16    8   13 1
  17    8   14 1
  18    9   10 1
  19   10   11 2
  20   10   19 1
  21   11   12 1
  22   11   18 1
  23   12   13 am
  24   12   17 2
  25   13   15 1
  26   14   16 1
  27   15   16 1
  28   15   35 1
  29   15   36 1
  30   16   37 1
  31   16   38 1
  32   18   39 1
  33   18   40 1
  34   18   41 1
  35   19   20 1
  36   19   42 1
  37   20   21 ar
  38   20   25 ar
  39   21   22 ar
  40   21   27 1
  41   22   23 ar
  42   22   43 1
  43   23   24 ar
  44   23   26 1
  45   24   25 ar
  46   24   44 1
  47   25   45 1
  48   28   29 1
  49   28   46 1
  50   28   47 1
  51   29   48 1

#	End of record

