#	Name: ASD07300273
#	Creating user name:	WinNT
#	Creation time:	15. 06. 2019 21:09

#	Modifying user name:	WinNT
#	Modification time:	15. 06. 2019 21:09

#	Program:	/corina/corina34_cracker 3.40 0067  02.08.2006

@<TRIPOS>MOLECULE
ASD07300273
  47   51    0    0    0
SMALL
NO_CHARGES


@<TRIPOS>ATOM
   1 C1            -0.8615     0.9882    -0.1290 C.ar    
   2 C2            -1.0248    -0.3824    -0.3523 C.ar    
   3 C3             0.0601    -1.2316    -0.1934 C.ar    
   4 C4             1.2769    -0.6788     0.1851 C.ar    
   5 C5             1.3657     0.6875     0.3892 C.ar    
   6 N6             0.3161     1.4707     0.2308 N.ar    
   7 C7            -2.9760     0.6152    -0.7002 C.2     
   8 N8            -2.1009     1.5782    -0.3558 N.am    
   9 N9            -2.3546    -0.5795    -0.7119 N.am    
  10 O10           -4.1495     0.7971    -0.9652 O.2     
  11 C11           -2.3899     2.9463    -0.2443 C.ar    
  12 C12           -3.6743     3.4077    -0.4994 C.ar    
  13 C13           -3.9583     4.7544    -0.3896 C.ar    
  14 C14           -2.9603     5.6466    -0.0249 C.ar    
  15 C15           -1.6765     5.1860     0.2296 C.ar    
  16 C16           -1.3931     3.8386     0.1266 C.ar    
  17 O17           -3.2403     6.9727     0.0827 O.3     
  18 C18           -4.9972     8.6895     2.6081 C.ar    
  19 C19           -4.9131     7.3789     3.1115 C.ar    
  20 C20           -5.4862     7.0925     4.3533 C.ar    
  21 C21           -6.1142     8.1190     5.0348 C.ar    
  22 C22           -6.1568     9.3849     4.4745 C.ar    
  23 N23           -5.6097     9.6343     3.3018 N.ar    
  24 C24           -3.9162     7.3924     1.1766 C.2     
  25 N25           -4.3582     8.6672     1.3836 N.pl3   
  26 N26           -4.2388     6.6380     2.1951 N.2     
  27 C27           -4.1864     9.8029     0.4743 C.3     
  28 F28            2.3619    -1.4661     0.3528 F       
  29 C29           -2.9741    -1.8663    -1.0384 C.3     
  30 C30           -3.5376    -2.4990     0.2357 C.3     
  31 H31           -0.0386    -2.2942    -0.3592 H       
  32 H32            2.3106     1.1197     0.6836 H       
  33 H33           -4.4510     2.7134    -0.7839 H       
  34 H34           -4.9573     5.1135    -0.5879 H       
  35 H35           -0.8998     5.8810     0.5128 H       
  36 H36           -0.3950     3.4795     0.3297 H       
  37 H37           -5.4403     6.0969     4.7693 H       
  38 H38           -6.5687     7.9348     5.9970 H       
  39 H39           -6.6484    10.1839     5.0095 H       
  40 H40           -3.2549    10.3181     0.7084 H       
  41 H41           -4.1541     9.4432    -0.5542 H       
  42 H42           -5.0224    10.4923     0.5920 H       
  43 H43           -3.7813    -1.7098    -1.7540 H       
  44 H44           -2.2264    -2.5296    -1.4733 H       
  45 H45           -2.7304    -2.6555     0.9513 H       
  46 H46           -4.2853    -1.8357     0.6706 H       
  47 H47           -3.9985    -3.4564    -0.0073 H       
@<TRIPOS>BOND
   1    1    2 ar
   2    1    6 ar
   3    1    8 1
   4    2    3 ar
   5    2    9 1
   6    3    4 ar
   7    3   31 1
   8    4    5 ar
   9    4   28 1
  10    5    6 ar
  11    5   32 1
  12    7    8 am
  13    7    9 am
  14    7   10 2
  15    8   11 1
  16    9   29 1
  17   11   12 ar
  18   11   16 ar
  19   12   13 ar
  20   12   33 1
  21   13   14 ar
  22   13   34 1
  23   14   15 ar
  24   14   17 1
  25   15   16 ar
  26   15   35 1
  27   16   36 1
  28   17   24 1
  29   18   19 ar
  30   18   23 ar
  31   18   25 1
  32   19   20 ar
  33   19   26 1
  34   20   21 ar
  35   20   37 1
  36   21   22 ar
  37   21   38 1
  38   22   23 ar
  39   22   39 1
  40   24   25 1
  41   24   26 2
  42   25   27 1
  43   27   40 1
  44   27   41 1
  45   27   42 1
  46   29   30 1
  47   29   43 1
  48   29   44 1
  49   30   45 1
  50   30   46 1
  51   30   47 1

#	End of record

