#	Name: ASD01190211
#	Creating user name:	WinNT
#	Creation time:	15. 06. 2019 19:08

#	Modifying user name:	WinNT
#	Modification time:	15. 06. 2019 19:08

#	Program:	/corina/corina34_cracker 3.40 0067  02.08.2006

@<TRIPOS>MOLECULE
ASD01190211
  60   64    0    0    0
SMALL
NO_CHARGES


@<TRIPOS>ATOM
   1 C1             1.8586    -4.2468    -0.4533 C.3     
   2 C2             0.6748    -3.4274    -0.9711 C.3     
   3 C3            -0.3889    -3.3202     0.1234 C.3     
   4 C4            -1.6238    -2.6089    -0.4334 C.3     
   5 O5             2.7990    -4.4457    -1.5107 O.3     
   6 O6             1.1222    -2.1186    -1.3303 O.3     
   7 N7            -2.6423    -2.5063     0.6146 N.pl3   
   8 C8            -3.6718    -3.3885     0.7993 C.2     
   9 C9            -4.4216    -3.0044     1.8444 C.2     
  10 C10           -3.8233    -1.7759     2.3722 C.ar    
  11 C11           -4.1386    -0.9189     3.4285 C.ar    
  12 C12           -3.3591     0.1772     3.6685 C.ar    
  13 C13           -2.2555     0.4462     2.8702 C.ar    
  14 C14           -1.9267    -0.3856     1.8227 C.ar    
  15 C15           -2.7028    -1.5110     1.5641 C.ar    
  16 C16           -5.6465    -3.7044     2.3743 C.3     
  17 C17           -5.9456    -4.9320     1.5115 C.3     
  18 O18           -5.4142    -4.1153     3.7231 O.3     
  19 N19          -10.0810    -0.2497     2.4685 N.pl3   
  20 N20          -10.4865    -0.4552     3.7913 N.2     
  21 C21           -9.6947    -1.3098     4.3747 C.2     
  22 C22           -8.6853    -1.7189     3.4031 C.ar    
  23 C23           -7.5942    -2.5940     3.4441 C.ar    
  24 C24           -6.8216    -2.7619     2.3316 C.ar    
  25 C25           -7.1080    -2.0718     1.1601 C.ar    
  26 C26           -8.1676    -1.2117     1.0958 C.ar    
  27 C27           -8.9738    -1.0204     2.2146 C.ar    
  28 C28          -10.7076     0.6013     1.5488 C.ar    
  29 C29          -12.0877     0.7535     1.5708 C.ar    
  30 C30          -12.7034     1.5928     0.6633 C.ar    
  31 C31          -11.9455     2.2825    -0.2682 C.ar    
  32 C32          -10.5690     2.1322    -0.2917 C.ar    
  33 C33           -9.9489     1.2983     0.6177 C.ar    
  34 F34          -12.5498     3.1028    -1.1554 F       
  35 F35           -4.8547    -5.8070     1.5512 F       
  36 F36           -7.0827    -5.5818     2.0034 F       
  37 F37           -6.1730    -4.5297     0.1911 F       
  38 H38            2.3401    -3.7121     0.3654 H       
  39 H39            1.5030    -5.2135    -0.0966 H       
  40 H40            0.2480    -3.9182    -1.8457 H       
  41 H41           -0.6659    -4.3192     0.4600 H       
  42 H42            0.0100    -2.7515     0.9634 H       
  43 H43           -1.3468    -1.6099    -0.7699 H       
  44 H44           -2.0228    -3.1776    -1.2734 H       
  45 H45            3.5773    -4.9588    -1.2535 H       
  46 H46            1.5144    -1.6225    -0.5988 H       
  47 H47           -3.8543    -4.2639     0.1937 H       
  48 H48           -4.9957    -1.1216     4.0535 H       
  49 H49           -3.6035     0.8400     4.4854 H       
  50 H50           -1.6489     1.3166     3.0724 H       
  51 H51           -1.0664    -0.1677     1.2072 H       
  52 H52           -5.2178    -3.3868     4.3279 H       
  53 H53           -9.7714    -1.6540     5.3955 H       
  54 H54           -7.3645    -3.1334     4.3512 H       
  55 H55           -6.4852    -2.2168     0.2898 H       
  56 H56           -8.3792    -0.6812     0.1792 H       
  57 H57          -12.6792     0.2155     2.2968 H       
  58 H58          -13.7768     1.7111     0.6798 H       
  59 H59           -9.9798     2.6708    -1.0192 H       
  60 H60           -8.8749     1.1851     0.6021 H       
@<TRIPOS>BOND
   1    1    2 1
   2    1    5 1
   3    1   38 1
   4    1   39 1
   5    2    3 1
   6    2    6 1
   7    2   40 1
   8    3    4 1
   9    3   41 1
  10    3   42 1
  11    4    7 1
  12    4   43 1
  13    4   44 1
  14    5   45 1
  15    6   46 1
  16    7    8 1
  17    7   15 1
  18    8    9 2
  19    8   47 1
  20    9   10 1
  21    9   16 1
  22   10   11 ar
  23   10   15 ar
  24   11   12 ar
  25   11   48 1
  26   12   13 ar
  27   12   49 1
  28   13   14 ar
  29   13   50 1
  30   14   15 ar
  31   14   51 1
  32   16   17 1
  33   16   18 1
  34   16   24 1
  35   17   35 1
  36   17   36 1
  37   17   37 1
  38   18   52 1
  39   19   20 1
  40   19   27 1
  41   19   28 1
  42   20   21 2
  43   21   22 1
  44   21   53 1
  45   22   23 ar
  46   22   27 ar
  47   23   24 ar
  48   23   54 1
  49   24   25 ar
  50   25   26 ar
  51   25   55 1
  52   26   27 ar
  53   26   56 1
  54   28   29 ar
  55   28   33 ar
  56   29   30 ar
  57   29   57 1
  58   30   31 ar
  59   30   58 1
  60   31   32 ar
  61   31   34 1
  62   32   33 ar
  63   32   59 1
  64   33   60 1

#	End of record

