#	Name: ASD03910015
#	Creating user name:	WinNT
#	Creation time:	15. 06. 2019 20:47

#	Modifying user name:	WinNT
#	Modification time:	15. 06. 2019 20:47

#	Program:	/corina/corina34_cracker 3.40 0067  02.08.2006

@<TRIPOS>MOLECULE
ASD03910015
  47   49    0    0    0
SMALL
NO_CHARGES


@<TRIPOS>ATOM
   1 C1            -0.0186     1.5174     0.0104 C.3     
   2 C2             0.0021    -0.0041     0.0020 C.3     
   3 C3             0.1277    -0.5682     1.4189 C.3     
   4 C4             0.8801     0.4082     2.3211 C.3     
   5 C5             0.0643     1.6983     2.4956 C.3     
   6 C6            -0.7352     2.0233     1.2617 C.3     
   7 O7             1.3228     2.0099     0.0002 O.3     
   8 O8            -1.2079    -0.4848    -0.5870 O.3     
   9 P9            -1.2350    -1.4029    -1.9093 P.3     
  10 O10           -2.7477    -1.8641    -2.2115 O.3     
  11 O11           -0.6711    -0.5598    -3.1596 O.3     
  12 O12           -0.3878    -2.5978    -1.6977 O.2     
  13 Na13          -2.9368    -3.0114    -3.8264 Du      
  14 Na14          -1.7166     1.0844    -3.5647 Du      
  15 P15            1.9021     2.9522    -1.1697 P.3     
  16 O16            1.1230     4.3611    -1.1592 O.3     
  17 O17            3.4732     3.2059    -0.9260 O.3     
  18 Na18           1.2972     5.3697     0.5475 Du      
  19 Na19           4.3296     4.3607    -2.3019 Du      
  20 O20            1.7065     2.2901    -2.4788 O.2     
  21 O21           -0.8571     3.4896     1.1116 O.3     
  22 P22           -0.9876     4.4034     2.4357 P.3     
  23 O23           -1.6609     5.8043     2.0157 O.3     
  24 O24           -1.8430     3.7772     3.6347 O.3     
  25 O25            0.3751     4.6819     2.9414 O.2     
  26 Na26          -1.9042     7.0718     3.5304 Du      
  27 O27           -0.9347     1.4889     3.4747 O.3     
  28 P28           -1.4205     2.5050     4.6081 P.3     
  29 O29           -0.3164     2.8651     5.5255 O.2     
  30 O30           -2.6886     1.9288     5.4155 O.3     
  31 Na31          -3.3544     3.1395     6.8477 Du      
  32 O32            1.0609    -0.1301     3.6397 O.3     
  33 P33            1.9776    -1.4292     3.9433 P.3     
  34 O34            3.4114    -1.0971     3.7874 O.2     
  35 O35            1.6896    -1.9854     5.4266 O.3     
  36 Na36           2.7643    -3.5881     5.9129 Du      
  37 P37            1.0574    -2.1457     1.2987 P.3     
  38 O38            2.3510    -1.9538     0.3595 O.3     
  39 O39            1.5203    -2.5278     2.8186 O.3     
  40 O40            0.1854    -3.2079     0.7494 O.2     
  41 Na41           3.4487    -3.6000     0.1476 Du      
  42 H42           -0.5427     1.8769    -0.8751 H       
  43 H43            0.8480    -0.3460    -0.5943 H       
  44 H44           -0.8655    -0.7525     1.8282 H       
  45 H45            1.8476     0.6442     1.8782 H       
  46 H46            0.7146     2.5307     2.7642 H       
  47 H47           -1.7214     1.5644     1.3314 H       
@<TRIPOS>BOND
   1    1    2 1
   2    1    7 1
   3    1    6 1
   4    1   42 1
   5    2    3 1
   6    2    8 1
   7    2   43 1
   8    3    4 1
   9    3   37 1
  10    3   44 1
  11    4    5 1
  12    4   32 1
  13    4   45 1
  14    5    6 1
  15    5   27 1
  16    5   46 1
  17    6   21 1
  18    6   47 1
  19    7   15 1
  20    8    9 1
  21    9   10 1
  22    9   11 1
  23    9   12 2
  24   10   13 1
  25   11   14 1
  26   15   16 1
  27   15   17 1
  28   15   20 2
  29   16   18 1
  30   17   19 1
  31   21   22 1
  32   22   23 1
  33   22   24 1
  34   22   25 2
  35   23   26 1
  36   24   28 1
  37   27   28 1
  38   28   29 2
  39   28   30 1
  40   30   31 1
  41   32   33 1
  42   33   34 2
  43   33   35 1
  44   33   39 1
  45   35   36 1
  46   37   38 1
  47   37   39 1
  48   37   40 2
  49   38   41 1

#	End of record

