#	Name: ASD01911212
#	Creating user name:	WinNT
#	Creation time:	15. 06. 2019 19:57

#	Modifying user name:	WinNT
#	Modification time:	15. 06. 2019 19:57

#	Program:	/corina/corina34_cracker 3.40 0067  02.08.2006

@<TRIPOS>MOLECULE
ASD01911212
  45   47    0    0    0
SMALL
NO_CHARGES


@<TRIPOS>ATOM
   1 C1             1.1196     0.5492    -1.6720 C.ar    
   2 N2             0.8908    -0.7296    -1.4685 N.ar    
   3 C3             1.5074    -1.6686    -2.1760 C.ar    
   4 C4             2.4250    -1.3219    -3.1649 C.ar    
   5 C5             2.6859     0.0189    -3.4012 C.ar    
   6 C6             2.0198     0.9661    -2.6399 C.ar    
   7 C7             1.2175    -3.0969    -1.9112 C.2     
   8 N8             0.3309    -3.4386    -0.9554 N.am    
   9 C9             0.0072    -4.7837    -0.7504 C.ar    
  10 C10           -1.2536    -5.1327    -0.2847 C.ar    
  11 C11           -1.5706    -6.4620    -0.0836 C.ar    
  12 C12           -0.6334    -7.4452    -0.3457 C.ar    
  13 C13            0.6240    -7.1004    -0.8094 C.ar    
  14 C14            0.9445    -5.7735    -1.0177 C.ar    
  15 C15           -2.2749    -4.0622     0.0015 C.3     
  16 N16           -2.8976    -3.6333    -1.2533 N.am    
  17 O17            1.7790    -3.9606    -2.5559 O.2     
  18 Br18          -1.0712    -9.2640    -0.0692 Br      
  19 C19           -4.0061    -4.2546    -1.7023 C.2     
  20 C20           -4.6897    -3.7603    -2.9132 C.ar    
  21 C21           -3.9556    -3.4801    -4.0681 C.ar    
  22 C22           -4.5989    -3.0193    -5.1961 C.ar    
  23 C23           -5.9734    -2.8329    -5.1881 C.ar    
  24 C24           -6.7092    -3.1084    -4.0471 C.ar    
  25 C25           -6.0769    -3.5760    -2.9112 C.ar    
  26 O26           -4.4429    -5.2222    -1.1098 O.2     
  27 C27           -2.3153    -2.5291    -2.0201 C.3     
  28 F28           -6.5973    -2.3804    -6.2977 F       
  29 F29           -6.7944    -3.8451    -1.7985 F       
  30 H30            0.5956     1.2849    -1.0798 H       
  31 H31            2.9264    -2.0869    -3.7392 H       
  32 H32            3.3926     0.3184    -4.1610 H       
  33 H33            2.2003     2.0189    -2.7994 H       
  34 H34           -0.0827    -2.7516    -0.4096 H       
  35 H35           -2.5510    -6.7339     0.2789 H       
  36 H36            1.3539    -7.8700    -1.0125 H       
  37 H37            1.9259    -5.5050    -1.3800 H       
  38 H38           -3.0395    -4.4587     0.6696 H       
  39 H39           -1.7858    -3.2104     0.4741 H       
  40 H40           -2.8853    -3.6240    -4.0768 H       
  41 H41           -4.0312    -2.8023    -6.0889 H       
  42 H42           -7.7792    -2.9614    -4.0468 H       
  43 H43           -1.6559    -2.9295    -2.7902 H       
  44 H44           -3.1125    -1.9519    -2.4884 H       
  45 H45           -1.7441    -1.8844    -1.3520 H       
@<TRIPOS>BOND
   1    1    2 ar
   2    1    6 ar
   3    1   30 1
   4    2    3 ar
   5    3    4 ar
   6    3    7 1
   7    4    5 ar
   8    4   31 1
   9    5    6 ar
  10    5   32 1
  11    6   33 1
  12    7    8 am
  13    7   17 2
  14    8    9 1
  15    8   34 1
  16    9   10 ar
  17    9   14 ar
  18   10   11 ar
  19   10   15 1
  20   11   12 ar
  21   11   35 1
  22   12   13 ar
  23   12   18 1
  24   13   14 ar
  25   13   36 1
  26   14   37 1
  27   15   16 1
  28   15   38 1
  29   15   39 1
  30   16   19 am
  31   16   27 1
  32   19   20 1
  33   19   26 2
  34   20   21 ar
  35   20   25 ar
  36   21   22 ar
  37   21   40 1
  38   22   23 ar
  39   22   41 1
  40   23   24 ar
  41   23   28 1
  42   24   25 ar
  43   24   42 1
  44   25   29 1
  45   27   43 1
  46   27   44 1
  47   27   45 1

#	End of record

