#	Name: ASD00310322
#	Creating user name:	WinNT
#	Creation time:	15. 06. 2019 18:34

#	Modifying user name:	WinNT
#	Modification time:	15. 06. 2019 18:34

#	Program:	/corina/corina34_cracker 3.40 0067  02.08.2006

@<TRIPOS>MOLECULE
ASD00310322
  18   19    0    0    0
SMALL
NO_CHARGES


@<TRIPOS>ATOM
   1 N1            -0.0178     1.4611     0.0101 N.pl3   
   2 C2             0.0021    -0.0041     0.0020 C.3     
   3 C3             1.4912    -0.3864    -0.0143 C.3     
   4 C4             2.2229     0.9370    -0.0141 C.ar    
   5 C5             3.5766     1.2253    -0.0255 C.ar    
   6 C6             4.0069     2.5409    -0.0221 C.ar    
   7 C7             3.0783     3.5683    -0.0077 C.ar    
   8 C8             1.7275     3.2834     0.0032 C.ar    
   9 C9             1.2864     1.9583     0.0003 C.ar    
  10 F10            3.4957     4.8532    -0.0039 F       
  11 F11            4.4797     0.2206    -0.0395 F       
  12 H12           -0.8203     2.0060     0.0170 H       
  13 H13           -0.4787    -0.3937     0.8993 H       
  14 H14           -0.4957    -0.3841    -0.8901 H       
  15 H15            1.7458    -0.9619     0.8757 H       
  16 H16            1.7287    -0.9523    -0.9151 H       
  17 H17            5.0633     2.7654    -0.0303 H       
  18 H18            1.0084     4.0892     0.0147 H       
@<TRIPOS>BOND
   1    1    2 1
   2    1    9 1
   3    1   12 1
   4    2    3 1
   5    2   13 1
   6    2   14 1
   7    3    4 1
   8    3   15 1
   9    3   16 1
  10    4    5 ar
  11    4    9 ar
  12    5    6 ar
  13    5   11 1
  14    6    7 ar
  15    6   17 1
  16    7    8 ar
  17    7   10 1
  18    8    9 ar
  19    8   18 1

#	End of record

