#	Name: ASD01914445
#	Creating user name:	WinNT
#	Creation time:	15. 06. 2019 20:03

#	Modifying user name:	WinNT
#	Modification time:	15. 06. 2019 20:03

#	Program:	/corina/corina34_cracker 3.40 0067  02.08.2006

@<TRIPOS>MOLECULE
ASD01914445
  42   45    0    0    0
SMALL
NO_CHARGES


@<TRIPOS>ATOM
   1 C1            -0.0180     1.4743     0.0101 C.2     
   2 C2             0.0021    -0.0041     0.0020 C.ar    
   3 C3             1.2185    -0.6882    -0.0133 C.ar    
   4 C4             1.2298    -2.0698    -0.0208 C.ar    
   5 C5             0.0365    -2.7746    -0.0133 C.ar    
   6 C6            -1.1710    -2.1006     0.0019 C.ar    
   7 C7            -1.1952    -0.7210     0.0154 C.ar    
   8 O8             1.0263     2.0963     0.0035 O.2     
   9 N9            -1.1942     2.1323     0.0193 N.am    
  10 F10            2.4058    -2.7347    -0.0361 F       
  11 C11           -1.2141     3.5971     0.0274 C.3     
  12 C12           -2.6633     4.0874     0.0369 C.3     
  13 C13           -2.6841     5.6173     0.0453 C.3     
  14 C14           -1.9758     6.1438    -1.2045 C.3     
  15 C15           -0.5265     5.6535    -1.2140 C.3     
  16 C16            0.1937     6.1664     0.0346 C.3     
  17 C17           -0.5146     5.6399     1.2844 C.3     
  18 C18           -0.4939     4.1101     1.2760 C.3     
  19 C19           -1.9639     6.1302     1.2940 C.3     
  20 C20           -0.5057     4.1236    -1.2224 C.3     
  21 N21           -4.0756     6.0881     0.0545 N.3     
  22 H22            2.1484    -0.1391    -0.0195 H       
  23 H23            0.0496    -3.8545    -0.0196 H       
  24 H24           -2.0975    -2.6556     0.0077 H       
  25 H25           -2.1393    -0.1968     0.0317 H       
  26 H26           -2.0276     1.6359     0.0206 H       
  27 H27           -3.1764     3.7220    -0.8527 H       
  28 H28           -3.1680     3.7123     0.9273 H       
  29 H29           -2.4888     5.7784    -2.0940 H       
  30 H30           -1.9905     7.2337    -1.1985 H       
  31 H31           -0.0219     6.0286    -2.1044 H       
  32 H32            1.2262     5.8171     0.0279 H       
  33 H33            0.1789     7.2563     0.0406 H       
  34 H34           -0.0016     6.0053     2.1740 H       
  35 H35           -0.9985     3.7349     2.1664 H       
  36 H36            0.5386     3.7607     1.2692 H       
  37 H37           -1.9787     7.2201     1.3000 H       
  38 H38           -2.4685     5.7551     2.1843 H       
  39 H39            0.5267     3.7743    -1.2292 H       
  40 H40           -1.0188     3.7582    -2.1120 H       
  41 H41           -4.1162     7.0962     0.0601 H       
  42 H42           -4.5904     5.7098    -0.7265 H       
@<TRIPOS>BOND
   1    1    2 1
   2    1    8 2
   3    1    9 am
   4    2    3 ar
   5    2    7 ar
   6    3    4 ar
   7    3   22 1
   8    4    5 ar
   9    4   10 1
  10    5    6 ar
  11    5   23 1
  12    6    7 ar
  13    6   24 1
  14    7   25 1
  15    9   11 1
  16    9   26 1
  17   11   12 1
  18   11   18 1
  19   11   20 1
  20   12   13 1
  21   12   27 1
  22   12   28 1
  23   13   14 1
  24   13   19 1
  25   13   21 1
  26   14   15 1
  27   14   29 1
  28   14   30 1
  29   15   16 1
  30   15   20 1
  31   15   31 1
  32   16   17 1
  33   16   32 1
  34   16   33 1
  35   17   18 1
  36   17   19 1
  37   17   34 1
  38   18   35 1
  39   18   36 1
  40   19   37 1
  41   19   38 1
  42   20   39 1
  43   20   40 1
  44   21   41 1
  45   21   42 1

#	End of record

