#	Name: ASD01411047
#	Creating user name:	WinNT
#	Creation time:	15. 06. 2019 19:19

#	Modifying user name:	WinNT
#	Modification time:	15. 06. 2019 19:19

#	Program:	/corina/corina34_cracker 3.40 0067  02.08.2006

@<TRIPOS>MOLECULE
ASD01411047
  29   30    0    0    0
SMALL
NO_CHARGES


@<TRIPOS>ATOM
   1 C1            -0.4295     1.8007     0.4776 C.2     
   2 S2            -0.3212     0.0819     0.0599 S.3     
   3 C3            -1.9984    -0.2802     0.5138 C.2     
   4 C4            -2.5309     1.0107     0.9713 C.2     
   5 N5            -1.6714     2.0150     0.9267 N.am    
   6 O6            -3.6744     1.1446     1.3653 O.2     
   7 S7             0.8192     2.9637     0.3397 S.2     
   8 C8            -2.6406    -1.4731     0.4522 C.2     
   9 C9            -1.8954    -2.6920     0.1059 C.ar    
  10 C10           -2.0795     3.3548     1.3561 C.3     
  11 C11           -0.5602    -2.8354     0.4984 C.ar    
  12 C12            0.1318    -3.9819     0.1696 C.ar    
  13 C13           -0.4910    -4.9890    -0.5468 C.ar    
  14 C14           -1.8117    -4.8548    -0.9394 C.ar    
  15 C15           -2.5194    -3.7177    -0.6132 C.ar    
  16 C16           -1.8027     3.5165     2.8286 C.2     
  17 O17           -1.3145     2.6059     3.4550 O.2     
  18 O18           -2.0984     4.6720     3.4442 O.3     
  19 N19           -3.9317    -3.5763    -1.0336 N.pl3   
  20 O20           -4.5038    -4.5086    -1.5695 O.2     
  21 O21           -4.5217    -2.5278    -0.8436 O.2     
  22 H22           -3.6995    -1.5276     0.6575 H       
  23 H23           -1.5176     4.1026     0.7965 H       
  24 H24           -3.1454     3.4870     1.1701 H       
  25 H25           -0.0727    -2.0502     1.0572 H       
  26 H26            1.1626    -4.0940     0.4715 H       
  27 H27            0.0565    -5.8845    -0.8012 H       
  28 H28           -2.2903    -5.6450    -1.4988 H       
  29 H29           -1.9027     4.7284     4.3895 H       
@<TRIPOS>BOND
   1    1    2 1
   2    1    7 2
   3    1    5 am
   4    2    3 1
   5    3    4 1
   6    3    8 2
   7    4    5 am
   8    4    6 2
   9    5   10 1
  10    8    9 1
  11    8   22 1
  12    9   11 ar
  13    9   15 ar
  14   10   16 1
  15   10   23 1
  16   10   24 1
  17   11   12 ar
  18   11   25 1
  19   12   13 ar
  20   12   26 1
  21   13   14 ar
  22   13   27 1
  23   14   15 ar
  24   14   28 1
  25   15   19 1
  26   16   17 2
  27   16   18 1
  28   18   29 1
  29   19   20 2
  30   19   21 2

#	End of record

