#	Name: ASD00431213
#	Creating user name:	WinNT
#	Creation time:	15. 06. 2019 18:35

#	Modifying user name:	WinNT
#	Modification time:	15. 06. 2019 18:35

#	Program:	/corina/corina34_cracker 3.40 0067  02.08.2006

@<TRIPOS>MOLECULE
ASD00431213
  50   52    0    0    0
SMALL
NO_CHARGES


@<TRIPOS>ATOM
   1 N1             0.1607     1.6528    -0.5061 N.am    
   2 C2             0.1352     0.3066    -0.5662 C.2     
   3 O3             1.1739    -0.3237    -0.5203 O.2     
   4 N4            -1.0417    -0.3408    -0.6771 N.am    
   5 C5            -1.0694    -1.8041    -0.7424 C.3     
   6 C6             1.4399     2.3566    -0.3855 C.3     
   7 C7             2.0468     2.5534    -1.7761 C.3     
   8 O8             0.1917     4.5359     0.0309 O.3     
   9 N9             0.2757     5.5435     0.6938 N.2     
  10 C10            1.3489     5.5301     1.4499 C.2     
  11 C11            2.0065     4.2950     1.1788 C.2     
  12 C12            1.2153     3.7000     0.2593 C.2     
  13 S13            3.2338     6.5383     3.3938 S.3     
  14 C14            2.8465     8.0736     4.0381 C.2     
  15 N15            1.7428     8.5149     3.5179 N.2     
  16 C16            1.1474     7.7452     2.6336 C.2     
  17 C17            1.7861     6.5815     2.3905 C.2     
  18 O18            3.5861     8.7349     4.9600 O.3     
  19 C19            3.2030     9.9930     5.3021 C.ar    
  20 C20            2.0148    10.1941     5.9885 C.ar    
  21 C21            1.6271    11.4786     6.3364 C.ar    
  22 C22            2.4284    12.5600     5.9973 C.ar    
  23 C23            3.6114    12.3571     5.3131 C.ar    
  24 C24            4.0031    11.0771     4.9701 C.ar    
  25 O25            0.4631    11.6790     7.0086 O.3     
  26 C26            0.1652    13.0193     7.4047 C.3     
  27 C27           -1.3433    13.1659     7.6139 C.3     
  28 C28            0.8947    13.3391     8.7110 C.3     
  29 H29           -0.6677     2.1559    -0.5468 H       
  30 H30           -1.8703     0.1621    -0.7138 H       
  31 H31           -0.5013    -2.1399    -1.6099 H       
  32 H32           -0.6263    -2.2167     0.1640 H       
  33 H33           -2.1012    -2.1444    -0.8299 H       
  34 H34            2.1217     1.7683     0.2286 H       
  35 H35            1.3649     3.1417    -2.3902 H       
  36 H36            2.9985     3.0771    -1.6864 H       
  37 H37            2.2092     1.5817    -2.2425 H       
  38 H38            2.9242     3.9214     1.6086 H       
  39 H39            0.2252     8.0207     2.1436 H       
  40 H40            1.3925     9.3514     6.2511 H       
  41 H41            2.1266    13.5610     6.2682 H       
  42 H42            4.2333    13.2000     5.0499 H       
  43 H43            4.9307    10.9206     4.4395 H       
  44 H44            0.4930    13.7093     6.6272 H       
  45 H45           -1.6711    12.4759     8.3914 H       
  46 H46           -1.5706    14.1882     7.9160 H       
  47 H47           -1.8630    12.9380     6.6832 H       
  48 H48            0.5669    12.6491     9.4886 H       
  49 H49            1.9694    13.2347     8.5620 H       
  50 H50            0.6674    14.3615     9.0132 H       
@<TRIPOS>BOND
   1    1    2 am
   2    1    6 1
   3    1   29 1
   4    2    3 2
   5    2    4 am
   6    4    5 1
   7    4   30 1
   8    5   31 1
   9    5   32 1
  10    5   33 1
  11    6    7 1
  12    6   12 1
  13    6   34 1
  14    7   35 1
  15    7   36 1
  16    7   37 1
  17    8    9 1
  18    8   12 1
  19    9   10 2
  20   10   11 1
  21   10   17 1
  22   11   12 2
  23   11   38 1
  24   13   14 1
  25   13   17 1
  26   14   15 2
  27   14   18 1
  28   15   16 1
  29   16   17 2
  30   16   39 1
  31   18   19 1
  32   19   20 ar
  33   19   24 ar
  34   20   21 ar
  35   20   40 1
  36   21   22 ar
  37   21   25 1
  38   22   23 ar
  39   22   41 1
  40   23   24 ar
  41   23   42 1
  42   24   43 1
  43   25   26 1
  44   26   27 1
  45   26   28 1
  46   26   44 1
  47   27   45 1
  48   27   46 1
  49   27   47 1
  50   28   48 1
  51   28   49 1
  52   28   50 1

#	End of record

