#	Name: ASD00192130
#	Creating user name:	WinNT
#	Creation time:	15. 06. 2019 18:33

#	Modifying user name:	WinNT
#	Modification time:	15. 06. 2019 18:33

#	Program:	/corina/corina34_cracker 3.40 0067  02.08.2006

@<TRIPOS>MOLECULE
ASD00192130
  49   53    0    0    0
SMALL
NO_CHARGES


@<TRIPOS>ATOM
   1 C1            -0.0169     1.3868    -0.0316 C.ar    
   2 C2             0.0020    -0.0028    -0.0737 C.ar    
   3 C3             1.1798    -0.6889    -0.0864 C.ar    
   4 C4             2.3960     0.0111    -0.0572 C.ar    
   5 C5             2.3705     1.4254    -0.0148 C.ar    
   6 C6             1.1477     2.0990    -0.0022 C.ar    
   7 N7             3.5670    -0.6420    -0.0684 N.ar    
   8 C8             4.7265    -0.0220    -0.0415 C.ar    
   9 C9             4.8176     1.3781     0.0012 C.ar    
  10 C10            3.6458     2.1425     0.0154 C.ar    
  11 N11            5.8568     2.2816     0.0354 N.pl3   
  12 C12            5.3130     3.5187     0.0686 C.2     
  13 N13            4.0109     3.4322     0.0565 N.2     
  14 N14            5.8936    -0.7736    -0.0553 N.pl3   
  15 C15            6.0944     4.8065     0.1128 C.3     
  16 C16            6.4559     5.1341     1.5629 C.3     
  17 C17            7.2493     6.4416     1.6079 C.3     
  18 C18            8.5300     6.2896     0.7848 C.3     
  19 C19            8.1685     5.9620    -0.6653 C.3     
  20 C20            7.3752     4.6545    -0.7102 C.3     
  21 C21            7.1174    -0.1588    -0.1660 C.2     
  22 C22            5.8388    -2.2358     0.0542 C.3     
  23 C23            6.8779    -2.6991     1.0443 C.2     
  24 C24            7.9981    -1.9764     1.2231 C.2     
  25 C25            8.1914    -0.7276     0.4525 C.2     
  26 C26            8.9951    -2.4095     2.1553 C.1     
  27 N27            9.7860    -2.7531     2.8949 N.1     
  28 C28            9.4874    -0.1263     0.3543 C.1     
  29 N29           10.5154     0.3506     0.2764 N.1     
  30 H30           -0.9625     1.9085    -0.0265 H       
  31 H31           -0.9307    -0.5469    -0.0964 H       
  32 H32            1.1772    -1.7684    -0.1186 H       
  33 H33            1.1231     3.1783     0.0297 H       
  34 H34            6.8033     2.0694     0.0360 H       
  35 H35            5.4896     5.6129    -0.3019 H       
  36 H36            5.5435     5.2424     2.1493 H       
  37 H37            7.0608     4.3277     1.9777 H       
  38 H38            6.6444     7.2480     1.1931 H       
  39 H39            7.5068     6.6750     2.6410 H       
  40 H40            9.0952     7.2211     0.8168 H       
  41 H41            9.1349     5.4832     1.1995 H       
  42 H42            7.5637     6.7684    -1.0800 H       
  43 H43            9.0809     5.8537    -1.2517 H       
  44 H44            7.9800     3.8481    -0.2955 H       
  45 H45            7.1176     4.4211    -1.7433 H       
  46 H46            7.2265     0.7551    -0.7311 H       
  47 H47            4.8492    -2.5384     0.3966 H       
  48 H48            6.0398    -2.6816    -0.9199 H       
  49 H49            6.7230    -3.6073     1.6078 H       
@<TRIPOS>BOND
   1    1    2 ar
   2    1    6 ar
   3    1   30 1
   4    2    3 ar
   5    2   31 1
   6    3    4 ar
   7    3   32 1
   8    4    5 ar
   9    4    7 ar
  10    5    6 ar
  11    5   10 ar
  12    6   33 1
  13    7    8 ar
  14    8    9 ar
  15    8   14 1
  16    9   10 ar
  17    9   11 1
  18   10   13 1
  19   11   12 1
  20   11   34 1
  21   12   13 2
  22   12   15 1
  23   14   21 1
  24   14   22 1
  25   15   16 1
  26   15   20 1
  27   15   35 1
  28   16   17 1
  29   16   36 1
  30   16   37 1
  31   17   18 1
  32   17   38 1
  33   17   39 1
  34   18   19 1
  35   18   40 1
  36   18   41 1
  37   19   20 1
  38   19   42 1
  39   19   43 1
  40   20   44 1
  41   20   45 1
  42   21   25 2
  43   21   46 1
  44   22   23 1
  45   22   47 1
  46   22   48 1
  47   23   24 2
  48   23   49 1
  49   24   25 1
  50   24   26 1
  51   25   28 1
  52   26   27 3
  53   28   29 3

#	End of record

