#	Name: ASD04881003
#	Creating user name:	WinNT
#	Creation time:	15. 06. 2019 20:53

#	Modifying user name:	WinNT
#	Modification time:	15. 06. 2019 20:53

#	Program:	/corina/corina34_cracker 3.40 0067  02.08.2006

@<TRIPOS>MOLECULE
ASD04881003
  76   80    0    0    0
SMALL
NO_CHARGES


@<TRIPOS>ATOM
   1 O1            -0.1439     1.4744     0.6486 O.3     
   2 C2             1.0157     1.8950     0.1021 C.2     
   3 C3             1.4408     3.2901    -0.0495 C.2     
   4 O4             2.5152     3.5468    -0.5606 O.2     
   5 C5             1.7244     0.7936    -0.2847 C.2     
   6 C6             0.9457    -0.3253     0.0498 C.2     
   7 C7            -0.1897     0.1361     0.6189 C.2     
   8 N8             0.6417     4.2881     0.3770 N.am    
   9 C9             1.0910     5.6142     0.3291 C.ar    
  10 C10            0.1852     6.6515     0.0881 C.ar    
  11 C11            0.6295     7.9675     0.0403 C.ar    
  12 C12            1.9634     8.2547     0.2301 C.ar    
  13 C13            2.8740     7.2228     0.4719 C.ar    
  14 C14            2.4288     5.8986     0.5257 C.ar    
  15 C15            4.3024     7.5307     0.6753 C.2     
  16 O16            5.0941     6.6321     0.8856 O.2     
  17 N17            4.7299     8.8080     0.6279 N.am    
  18 C18            6.1483     9.1138     0.8298 C.3     
  19 C19            6.3640    10.6250     0.7267 C.3     
  20 N20           -1.1639     6.3657    -0.1048 N.3     
  21 C21           -1.3702     5.6147    -1.3511 C.3     
  22 C22           -2.8510     5.2522    -1.4859 C.3     
  23 N23           -3.6564     6.4814    -1.4757 N.3     
  24 C24           -3.4502     7.2324    -0.2295 C.3     
  25 C25           -1.9693     7.5949    -0.0946 C.3     
  26 C26           -5.0097     6.1947    -1.6692 C.ar    
  27 C27           -5.6596     6.6423    -2.8127 C.ar    
  28 C28           -6.9975     6.3572    -3.0008 C.ar    
  29 C29           -7.6905     5.6269    -2.0525 C.ar    
  30 C30           -7.0468     5.1799    -0.9134 C.ar    
  31 C31           -5.7072     5.4567    -0.7217 C.ar    
  32 C32            7.8453    10.9443     0.9375 C.3     
  33 N33            8.0518    12.3913     0.8388 N.am    
  34 C34            7.9824    13.2400     1.8789 C.2     
  35 C35            8.2383    14.6563     1.4126 C.3     
  36 C36            8.0602    14.5884    -0.1218 C.3     
  37 C37            8.3673    13.0997    -0.4072 C.3     
  38 O38            7.7483    12.9174     3.0243 O.2     
  39 N39           -4.9189     7.4243    -3.8277 N.pl3   
  40 O40           -5.5092     7.8963    -4.7829 O.2     
  41 O41           -3.7190     7.5959    -3.7079 O.2     
  42 C42           -1.3211    -0.7149     1.1355 C.3     
  43 H43            2.6959     0.7852    -0.7565 H       
  44 H44            1.2050    -1.3604    -0.1169 H       
  45 H45           -0.2444     4.0883     0.7172 H       
  46 H46           -0.0724     8.7667    -0.1465 H       
  47 H47            2.3057     9.2783     0.1917 H       
  48 H48            3.1297     5.0993     0.7162 H       
  49 H49            4.0983     9.5249     0.4600 H       
  50 H50            6.4574     8.7691     1.8166 H       
  51 H51            6.7409     8.6093     0.0666 H       
  52 H52            6.0549    10.9696    -0.2601 H       
  53 H53            5.7713    11.1295     1.4898 H       
  54 H54           -1.0672     6.2280    -2.1997 H       
  55 H55           -0.7732     4.7030    -1.3293 H       
  56 H56           -3.0112     4.7203    -2.4237 H       
  57 H57           -3.1472     4.6164    -0.6516 H       
  58 H58           -4.0472     8.1441    -0.2513 H       
  59 H59           -3.7532     6.6191     0.6191 H       
  60 H60           -1.8091     8.1268     0.8432 H       
  61 H61           -1.6731     8.2307    -0.9289 H       
  62 H62           -7.5034     6.7052    -3.8893 H       
  63 H63           -8.7370     5.4056    -2.2020 H       
  64 H64           -7.5910     4.6102    -0.1748 H       
  65 H65           -5.2039     5.1034     0.1661 H       
  66 H66            8.1544    10.5996     1.9243 H       
  67 H67            8.4380    10.4398     0.1744 H       
  68 H68            7.5111    15.3396     1.8512 H       
  69 H69            9.2530    14.9637     1.6657 H       
  70 H70            7.0394    14.8420    -0.4077 H       
  71 H71            8.7773    15.2356    -0.6268 H       
  72 H72            9.4200    12.9703    -0.6586 H       
  73 H73            7.7374    12.7346    -1.2185 H       
  74 H74           -2.1034    -0.0727     1.5400 H       
  75 H75           -1.7276    -1.3130     0.3199 H       
  76 H76           -0.9506    -1.3745     1.9201 H       
@<TRIPOS>BOND
   1    1    7 1
   2    1    2 1
   3    2    3 1
   4    2    5 2
   5    3    4 2
   6    3    8 am
   7    5    6 1
   8    5   43 1
   9    6    7 2
  10    6   44 1
  11    7   42 1
  12    8    9 1
  13    8   45 1
  14    9   10 ar
  15    9   14 ar
  16   10   11 ar
  17   10   20 1
  18   11   12 ar
  19   11   46 1
  20   12   13 ar
  21   12   47 1
  22   13   14 ar
  23   13   15 1
  24   14   48 1
  25   15   16 2
  26   15   17 am
  27   17   18 1
  28   17   49 1
  29   18   19 1
  30   18   50 1
  31   18   51 1
  32   19   32 1
  33   19   52 1
  34   19   53 1
  35   20   21 1
  36   20   25 1
  37   21   22 1
  38   21   54 1
  39   21   55 1
  40   22   23 1
  41   22   56 1
  42   22   57 1
  43   23   24 1
  44   23   26 1
  45   24   25 1
  46   24   58 1
  47   24   59 1
  48   25   60 1
  49   25   61 1
  50   26   27 ar
  51   26   31 ar
  52   27   28 ar
  53   27   39 1
  54   28   29 ar
  55   28   62 1
  56   29   30 ar
  57   29   63 1
  58   30   31 ar
  59   30   64 1
  60   31   65 1
  61   32   33 1
  62   32   66 1
  63   32   67 1
  64   33   34 am
  65   33   37 1
  66   34   35 1
  67   34   38 2
  68   35   36 1
  69   35   68 1
  70   35   69 1
  71   36   37 1
  72   36   70 1
  73   36   71 1
  74   37   72 1
  75   37   73 1
  76   39   40 2
  77   39   41 2
  78   42   74 1
  79   42   75 1
  80   42   76 1

#	End of record

