#	Name: ASD08070450
#	Creating user name:	WinNT
#	Creation time:	15. 06. 2019 21:14

#	Modifying user name:	WinNT
#	Modification time:	15. 06. 2019 21:14

#	Program:	/corina/corina34_cracker 3.40 0067  02.08.2006

@<TRIPOS>MOLECULE
ASD08070450
  30   31    0    0    0
SMALL
NO_CHARGES


@<TRIPOS>ATOM
   1 C1            -0.0195     1.4677     0.0407 C.2     
   2 C2            -0.0027    -0.0066     0.0469 C.ar    
   3 C3            -0.0082    -0.7067     1.2614 C.ar    
   4 C4             0.0073    -2.0939     1.2553 C.ar    
   5 C5             0.0280    -2.7816     0.0565 C.ar    
   6 C6             0.0335    -2.0946    -1.1454 C.ar    
   7 C7             0.0130    -0.7149    -1.1586 C.ar    
   8 O8             1.0266     2.0877     0.0498 O.2     
   9 N9            -1.1941     2.1281     0.0193 N.am    
  10 O10           -0.0281    -0.0306     2.4376 O.3     
  11 C11           -1.3107     0.2790     2.9863 C.3     
  12 C12           -1.2149     3.5231     0.1326 C.ar    
  13 C13           -2.1878     4.2623    -0.5324 C.ar    
  14 C14           -2.2045     5.6400    -0.4177 C.ar    
  15 C15           -1.2554     6.2821     0.3570 C.ar    
  16 C16           -0.2877     5.5494     1.0187 C.ar    
  17 C17           -0.2683     4.1717     0.9133 C.ar    
  18 F18           -3.1145     3.6350    -1.2893 F       
  19 Cl19           0.0127     0.1402    -2.6694 Cl      
  20 Cl20           0.0012    -2.9673     2.7555 Cl      
  21 H21            0.0403    -3.8616     0.0574 H       
  22 H22            0.0501    -2.6409    -2.0769 H       
  23 H23           -2.0252     1.6368    -0.0747 H       
  24 H24           -1.8598    -0.6445     3.1700 H       
  25 H25           -1.1837     0.8190     3.9246 H       
  26 H26           -1.8669     0.8986     2.2829 H       
  27 H27           -2.9590     6.2153    -0.9336 H       
  28 H28           -1.2702     7.3584     0.4449 H       
  29 H29            0.4519     6.0544     1.6223 H       
  30 H30            0.4857     3.6005     1.4344 H       
@<TRIPOS>BOND
   1    1    2 1
   2    1    8 2
   3    1    9 am
   4    2    3 ar
   5    2    7 ar
   6    3    4 ar
   7    3   10 1
   8    4    5 ar
   9    4   20 1
  10    5    6 ar
  11    5   21 1
  12    6    7 ar
  13    6   22 1
  14    7   19 1
  15    9   12 1
  16    9   23 1
  17   10   11 1
  18   11   24 1
  19   11   25 1
  20   11   26 1
  21   12   13 ar
  22   12   17 ar
  23   13   14 ar
  24   13   18 1
  25   14   15 ar
  26   14   27 1
  27   15   16 ar
  28   15   28 1
  29   16   17 ar
  30   16   29 1
  31   17   30 1

#	End of record

