#	Name: ASD01910007
#	Creating user name:	WinNT
#	Creation time:	15. 06. 2019 19:55

#	Modifying user name:	WinNT
#	Modification time:	15. 06. 2019 19:55

#	Program:	/corina/corina34_cracker 3.40 0067  02.08.2006

@<TRIPOS>MOLECULE
ASD01910007
  44   47    0    0    0
SMALL
NO_CHARGES


@<TRIPOS>ATOM
   1 N1            -0.0158     1.3125     0.0093 N.2     
   2 C2             0.0021    -0.0041     0.0020 C.2     
   3 C3             1.3450    -0.4256    -0.0131 C.2     
   4 C4             2.1291     0.6845    -0.0146 C.2     
   5 N5             1.3077     1.7709    -0.0009 N.pl3   
   6 C6            -1.1880    -0.8904     0.0091 C.ar    
   7 C7            -2.4687    -0.3415     0.0242 C.ar    
   8 C8            -3.5720    -1.1705     0.0307 C.ar    
   9 C9            -3.4083    -2.5440     0.0223 C.ar    
  10 C10           -2.1394    -3.0944     0.0077 C.ar    
  11 C11           -1.0290    -2.2747    -0.0052 C.ar    
  12 C12            1.7149     3.1112     0.0020 C.ar    
  13 C13            0.9685     4.0666    -0.6751 C.ar    
  14 C14            1.3725     5.3873    -0.6700 C.ar    
  15 C15            2.5190     5.7586     0.0081 C.ar    
  16 C16            3.2647     4.8095     0.6829 C.ar    
  17 C17            2.8627     3.4881     0.6867 C.ar    
  18 N18            3.5225     0.7072    -0.0274 N.am    
  19 C19            4.2152    -0.4489    -0.0402 C.2     
  20 C20            5.6899    -0.4249    -0.0538 C.ar    
  21 O21            3.6244    -1.5118    -0.0407 O.2     
  22 C22            6.4143    -1.6247    -0.0672 C.ar    
  23 C23            7.8008    -1.5901    -0.0803 C.ar    
  24 C24            8.4630    -0.3787    -0.0801 C.ar    
  25 C25            7.7506     0.8096    -0.0664 C.ar    
  26 C26            6.3728     0.7941    -0.0591 C.ar    
  27 O27            5.7623    -2.8143    -0.0669 O.3     
  28 H28            1.6907    -1.4487    -0.0215 H       
  29 H29           -2.5976     0.7308     0.0311 H       
  30 H30           -4.5651    -0.7461     0.0428 H       
  31 H31           -4.2745    -3.1891     0.0275 H       
  32 H32           -2.0173    -4.1674     0.0019 H       
  33 H33           -0.0387    -2.7054    -0.0166 H       
  34 H34            0.0734     3.7772    -1.2055 H       
  35 H35            0.7924     6.1309    -1.1964 H       
  36 H36            2.8330     6.7920     0.0104 H       
  37 H37            4.1599     5.1025     1.2113 H       
  38 H38            3.4453     2.7474     1.2142 H       
  39 H39            3.9938     1.5550    -0.0270 H       
  40 H40            8.3632    -2.5121    -0.0903 H       
  41 H41            9.5427    -0.3571    -0.0904 H       
  42 H42            8.2776     1.7523    -0.0661 H       
  43 H43            5.8216     1.7228    -0.0484 H       
  44 H44            5.5645    -3.1546    -0.9501 H       
@<TRIPOS>BOND
   1    1    2 2
   2    1    5 1
   3    2    3 1
   4    2    6 1
   5    3    4 2
   6    3   28 1
   7    4    5 1
   8    4   18 1
   9    5   12 1
  10    6    7 ar
  11    6   11 ar
  12    7    8 ar
  13    7   29 1
  14    8    9 ar
  15    8   30 1
  16    9   10 ar
  17    9   31 1
  18   10   11 ar
  19   10   32 1
  20   11   33 1
  21   12   13 ar
  22   12   17 ar
  23   13   14 ar
  24   13   34 1
  25   14   15 ar
  26   14   35 1
  27   15   16 ar
  28   15   36 1
  29   16   17 ar
  30   16   37 1
  31   17   38 1
  32   18   19 am
  33   18   39 1
  34   19   20 1
  35   19   21 2
  36   20   22 ar
  37   20   26 ar
  38   22   23 ar
  39   22   27 1
  40   23   24 ar
  41   23   40 1
  42   24   25 ar
  43   24   41 1
  44   25   26 ar
  45   25   42 1
  46   26   43 1
  47   27   44 1

#	End of record

