#	Name: ASD07030083
#	Creating user name:	WinNT
#	Creation time:	15. 06. 2019 21:08

#	Modifying user name:	WinNT
#	Modification time:	15. 06. 2019 21:08

#	Program:	/corina/corina34_cracker 3.40 0067  02.08.2006

@<TRIPOS>MOLECULE
ASD07030083
  56   60    0    0    0
SMALL
NO_CHARGES


@<TRIPOS>ATOM
   1 C1            -0.0167     1.3791     0.0096 C.ar    
   2 C2             0.0021    -0.0041     0.0020 C.ar    
   3 C3             1.2063    -0.6847    -0.0127 C.ar    
   4 C4             2.3966     0.0137    -0.0198 C.ar    
   5 C5             2.3838     1.4074    -0.0126 C.ar    
   6 C6             1.1674     2.0879     0.0021 C.ar    
   7 C7             3.6596     2.1636    -0.0198 C.ar    
   8 C8             3.6438     3.5580    -0.0126 C.ar    
   9 C9             4.8288     4.2603    -0.0187 C.ar    
  10 C10            6.0443     3.5768    -0.0316 C.ar    
  11 C11            6.0601     2.1825    -0.0379 C.ar    
  12 C12            4.8751     1.4802    -0.0278 C.ar    
  13 C13            7.3202     4.3330    -0.0392 C.ar    
  14 C14            8.5365     3.6525    -0.0521 C.ar    
  15 C15            9.7206     4.3614    -0.0596 C.ar    
  16 C16            9.7018     5.7445    -0.0539 C.ar    
  17 C17            8.4976     6.4251    -0.0411 C.ar    
  18 C18            7.3073     5.7267    -0.0393 C.ar    
  19 C19           10.9983     6.5128    -0.0611 C.3     
  20 C20           11.2507     7.4615    -1.2346 C.3     
  21 C21           10.9236     8.0265     0.1491 C.3     
  22 N22           10.2108     7.5537    -2.2681 N.3     
  23 C23           10.7809     7.9843    -3.5517 C.3     
  24 C24            9.6701     8.0685    -4.6005 C.3     
  25 N25           10.2402     8.4991    -5.8840 N.3     
  26 C26            9.2003     8.5913    -6.9175 C.3     
  27 C27            9.4527     9.5400    -8.0910 C.3     
  28 C28            9.5274     8.0264    -8.3012 C.3     
  29 H29           -0.9598     1.9053     0.0169 H       
  30 H30           -0.9270    -0.5547     0.0079 H       
  31 H31            1.2150    -1.7646    -0.0182 H       
  32 H32            3.3362    -0.5187    -0.0305 H       
  33 H33            1.1516     3.1678     0.0074 H       
  34 H34            2.7025     4.0873    -0.0026 H       
  35 H35            4.8165     5.3402    -0.0139 H       
  36 H36            7.0015     1.6532    -0.0483 H       
  37 H37            4.8874     0.4002    -0.0326 H       
  38 H38            8.5523     2.5727    -0.0559 H       
  39 H39           10.6637     3.8352    -0.0696 H       
  40 H40            8.4889     7.5051    -0.0366 H       
  41 H41            6.3677     6.2591    -0.0293 H       
  42 H42           11.8579     5.9883     0.3559 H       
  43 H43           12.2765     7.5614    -1.5894 H       
  44 H44            9.9367     8.4666     0.2926 H       
  45 H45           11.7342     8.4981     0.7046 H       
  46 H46            9.7198     6.6777    -2.3662 H       
  47 H47           11.2437     8.9641    -3.4332 H       
  48 H48           11.5324     7.2642    -3.8753 H       
  49 H49            9.2073     7.0888    -4.7189 H       
  50 H50            8.9186     8.7886    -4.2768 H       
  51 H51           10.7311     9.3752    -5.7859 H       
  52 H52            8.1746     8.4917    -6.5625 H       
  53 H53            8.5930    10.0642    -8.5083 H       
  54 H54           10.3904    10.0957    -8.0962 H       
  55 H55           10.5142     7.5863    -8.4447 H       
  56 H56            8.7168     7.5548    -8.8568 H       
@<TRIPOS>BOND
   1    1    2 ar
   2    1    6 ar
   3    1   29 1
   4    2    3 ar
   5    2   30 1
   6    3    4 ar
   7    3   31 1
   8    4    5 ar
   9    4   32 1
  10    5    6 ar
  11    5    7 1
  12    6   33 1
  13    7    8 ar
  14    7   12 ar
  15    8    9 ar
  16    8   34 1
  17    9   10 ar
  18    9   35 1
  19   10   11 ar
  20   10   13 1
  21   11   12 ar
  22   11   36 1
  23   12   37 1
  24   13   14 ar
  25   13   18 ar
  26   14   15 ar
  27   14   38 1
  28   15   16 ar
  29   15   39 1
  30   16   17 ar
  31   16   19 1
  32   17   18 ar
  33   17   40 1
  34   18   41 1
  35   19   20 1
  36   19   21 1
  37   19   42 1
  38   20   21 1
  39   20   22 1
  40   20   43 1
  41   21   44 1
  42   21   45 1
  43   22   23 1
  44   22   46 1
  45   23   24 1
  46   23   47 1
  47   23   48 1
  48   24   25 1
  49   24   49 1
  50   24   50 1
  51   25   26 1
  52   25   51 1
  53   26   27 1
  54   26   28 1
  55   26   52 1
  56   27   28 1
  57   27   53 1
  58   27   54 1
  59   28   55 1
  60   28   56 1

#	End of record

