#	Name: ASD01916043
#	Creating user name:	WinNT
#	Creation time:	15. 06. 2019 20:06

#	Modifying user name:	WinNT
#	Modification time:	15. 06. 2019 20:06

#	Program:	/corina/corina34_cracker 3.40 0067  02.08.2006

@<TRIPOS>MOLECULE
ASD01916043
  39   40    0    0    0
SMALL
NO_CHARGES


@<TRIPOS>ATOM
   1 C1             0.1161     1.0499     0.1397 C.ar    
   2 C2             0.0261    -0.3126     0.4580 C.ar    
   3 C3            -1.2253    -0.8958     0.4974 C.ar    
   4 C4            -2.3494    -0.1162     0.2213 C.ar    
   5 C5            -3.6931    -0.7333     0.2619 C.2     
   6 N6            -4.7926     0.0379     0.1491 N.am    
   7 O7            -3.8057    -1.9360     0.3970 O.2     
   8 C8             1.3906     1.7006     0.0855 C.1     
   9 C9             2.4355     2.2340     0.0411 C.1     
  10 C10            3.7100     2.8847    -0.0130 C.ar    
  11 C11            3.7918     4.2431    -0.3310 C.ar    
  12 C12            6.1022     2.7996     0.2033 C.ar    
  13 C13            5.0227     4.8637    -0.3815 C.ar    
  14 N14           -2.2292     1.1730    -0.0771 N.ar    
  15 C15           -1.0589     1.7644    -0.1305 C.ar    
  16 C16            4.8776     2.1656     0.2576 C.ar    
  17 C17            6.1752     4.1449    -0.1187 C.ar    
  18 C18           -6.1168    -0.5826     0.0608 C.3     
  19 C19           -6.9290    -0.2310     1.3088 C.3     
  20 F20           -7.1772     1.1456     1.3311 F       
  21 F21           -8.1443    -0.9236     1.2847 F       
  22 F22           -6.2083    -0.5935     2.4517 F       
  23 Cl23           7.5547     1.9075     0.5318 Cl      
  24 C24           -6.8416    -0.0633    -1.1825 C.3     
  25 C25           -4.6637     1.4968     0.1147 C.3     
  26 H26            0.9134    -0.8919     0.6669 H       
  27 H27           -1.3327    -1.9430     0.7386 H       
  28 H28            2.8933     4.8057    -0.5372 H       
  29 H29            5.0869     5.9134    -0.6272 H       
  30 H30           -1.0013     2.8145    -0.3765 H       
  31 H31            4.8215     1.1167     0.5087 H       
  32 H32            7.1360     4.6363    -0.1598 H       
  33 H33           -6.0070    -1.6649    -0.0082 H       
  34 H34           -7.8268    -0.5250    -1.2482 H       
  35 H35           -6.9514     1.0190    -1.1135 H       
  36 H36           -6.2629    -0.3138    -2.0716 H       
  37 H37           -4.4507     1.8188    -0.9047 H       
  38 H38           -5.5947     1.9520     0.4525 H       
  39 H39           -3.8495     1.8052     0.7706 H       
@<TRIPOS>BOND
   1    1    2 ar
   2    1    8 1
   3    1   15 ar
   4    2    3 ar
   5    2   26 1
   6    3    4 ar
   7    3   27 1
   8    4   14 ar
   9    4    5 1
  10    5    6 am
  11    5    7 2
  12    6   25 1
  13    6   18 1
  14    8    9 3
  15    9   10 1
  16   10   11 ar
  17   10   16 ar
  18   11   13 ar
  19   11   28 1
  20   12   17 ar
  21   12   23 1
  22   12   16 ar
  23   13   17 ar
  24   13   29 1
  25   14   15 ar
  26   15   30 1
  27   16   31 1
  28   17   32 1
  29   18   24 1
  30   18   19 1
  31   18   33 1
  32   19   20 1
  33   19   21 1
  34   19   22 1
  35   24   34 1
  36   24   35 1
  37   24   36 1
  38   25   37 1
  39   25   38 1
  40   25   39 1

#	End of record

