#	Name: ASD01914394
#	Creating user name:	WinNT
#	Creation time:	15. 06. 2019 20:03

#	Modifying user name:	WinNT
#	Modification time:	15. 06. 2019 20:03

#	Program:	/corina/corina34_cracker 3.40 0067  02.08.2006

@<TRIPOS>MOLECULE
ASD01914394
  38   40    0    0    0
SMALL
NO_CHARGES


@<TRIPOS>ATOM
   1 C1            -0.0167     1.3806     0.0096 C.ar    
   2 C2             0.0021    -0.0041     0.0020 C.ar    
   3 C3             1.2096    -0.6818    -0.0132 C.ar    
   4 C4             2.3977     0.0225    -0.0203 C.ar    
   5 C5             2.3808     1.4105    -0.0127 C.ar    
   6 C6             1.1693     2.0882     0.0021 C.ar    
   7 N7             3.5864     2.1275    -0.0195 N.pl3   
   8 C8             4.6543     1.9285     0.8145 C.2     
   9 C9             5.6008     2.8364     0.4605 C.2     
  10 C10            6.9353     2.9971     1.0888 C.ar    
  11 C11            7.8129     3.9748     0.6236 C.ar    
  12 C12            9.0529     4.1217     1.2097 C.ar    
  13 C13            9.4271     3.2968     2.2615 C.ar    
  14 C14            8.5553     2.3221     2.7270 C.ar    
  15 C15            7.3116     2.1744     2.1490 C.ar    
  16 N16            5.1127     3.5651    -0.5638 N.2     
  17 C17            3.9142     3.1447    -0.8587 C.2     
  18 C18            3.0346     3.6990    -1.9496 C.3     
  19 C19            2.1916     4.8183    -1.3951 C.2     
  20 O20            2.2954     5.1365    -0.2228 O.co2   
  21 O21            1.4057     5.4058    -2.1189 O.co2   
  22 O22           10.6499     3.4433     2.8364 O.3     
  23 F23           -1.1591    -0.6946     0.0099 F       
  24 C24           10.9701     2.5611     3.9139 C.3     
  25 H25           -0.9594     1.9075     0.0170 H       
  26 H26            1.2224    -1.7617    -0.0191 H       
  27 H27            3.3392    -0.5064    -0.0315 H       
  28 H28            1.1543     3.1681     0.0077 H       
  29 H29            4.7292     1.1927     1.6016 H       
  30 H30            7.5226     4.6164    -0.1951 H       
  31 H31            9.7334     4.8791     0.8497 H       
  32 H32            8.8493     1.6818     3.5454 H       
  33 H33            6.6336     1.4159     2.5116 H       
  34 H34            3.6567     4.0796    -2.7597 H       
  35 H35            2.3861     2.9096    -2.3297 H       
  36 H36           10.2493     2.6959     4.7203 H       
  37 H37           10.9335     1.5300     3.5624 H       
  38 H38           11.9719     2.7845     4.2809 H       
@<TRIPOS>BOND
   1    1    2 ar
   2    1    6 ar
   3    1   25 1
   4    2    3 ar
   5    2   23 1
   6    3    4 ar
   7    3   26 1
   8    4    5 ar
   9    4   27 1
  10    5    6 ar
  11    5    7 1
  12    6   28 1
  13    7    8 1
  14    7   17 1
  15    8    9 2
  16    8   29 1
  17    9   10 1
  18    9   16 1
  19   10   11 ar
  20   10   15 ar
  21   11   12 ar
  22   11   30 1
  23   12   13 ar
  24   12   31 1
  25   13   14 ar
  26   13   22 1
  27   14   15 ar
  28   14   32 1
  29   15   33 1
  30   16   17 2
  31   17   18 1
  32   18   19 1
  33   18   34 1
  34   18   35 1
  35   19   20 ar
  36   19   21 ar
  37   22   24 1
  38   24   36 1
  39   24   37 1
  40   24   38 1

#	End of record

