#	Name: ASD08150632
#	Creating user name:	WinNT
#	Creation time:	15. 06. 2019 21:16

#	Modifying user name:	WinNT
#	Modification time:	15. 06. 2019 21:16

#	Program:	/corina/corina34_cracker 3.40 0067  02.08.2006

@<TRIPOS>MOLECULE
ASD08150632
  64   70    0    0    0
SMALL
NO_CHARGES


@<TRIPOS>ATOM
   1 N1            -0.3388     0.1055     3.2154 N.am    
   2 C2            -0.9860    -1.0520     3.4521 C.2     
   3 C3            -0.3069    -2.1640     3.9900 C.2     
   4 C4             1.0170    -2.0820     4.2782 C.2     
   5 C5             1.7012    -0.8659     4.0300 C.ar    
   6 C6             3.0740    -0.7276     4.3103 C.ar    
   7 N7             3.7027     0.3956     4.0803 N.ar    
   8 C8             3.0857     1.4716     3.5689 C.ar    
   9 C9             1.7049     1.4228     3.2559 C.ar    
  10 C10            0.9953     0.2223     3.4938 C.ar    
  11 C11            1.0711     2.5500     2.7243 C.ar    
  12 C12            1.8033     3.7064     2.5088 C.ar    
  13 C13            3.1695     3.7470     2.8207 C.ar    
  14 C14            3.8000     2.6588     3.3382 C.ar    
  15 O15           -2.1754    -1.1388     3.1981 O.2     
  16 C16            1.1388     4.9066     1.9453 C.ar    
  17 C17           -1.0352     1.1947     2.6752 C.ar    
  18 C18           -1.2582     1.2664     1.3060 C.ar    
  19 C19           -1.9441     2.3391     0.7738 C.ar    
  20 C20           -2.4116     3.3475     1.6075 C.ar    
  21 C21           -2.1885     3.2757     2.9766 C.ar    
  22 C22           -1.5073     2.1996     3.5093 C.ar    
  23 N23           -3.1060     4.4345     1.0685 N.3     
  24 C24            0.0904     4.7665     1.0220 C.ar    
  25 N25           -0.5143     5.8076     0.5088 N.ar    
  26 C26           -0.1644     7.0557     0.8377 C.ar    
  27 C27            0.8854     7.2800     1.7638 C.ar    
  28 C28            1.5448     6.1760     2.3310 C.ar    
  29 C29           -4.5584     4.2510     1.2032 C.3     
  30 C30           -2.7365     4.6507    -0.3379 C.3     
  31 C31           -3.4729     5.8831    -0.8697 C.3     
  32 O32           -4.8813     5.7000    -0.7020 O.3     
  33 C33           -5.2765     5.4874     0.6560 C.3     
  34 C34           -0.8255     8.1617     0.2754 C.ar    
  35 C35           -0.4516     9.4227     0.6251 C.ar    
  36 C36            0.5808     9.6409     1.5353 C.ar    
  37 C37            1.2448     8.5960     2.1011 C.ar    
  38 C38           -2.6950     4.3695     3.8811 C.3     
  39 F39           -1.7435     4.6330     4.8723 F       
  40 F40           -2.9197     5.5285     3.1305 F       
  41 F41           -3.8919     3.9624     4.4801 F       
  42 H42           -0.8418    -3.0841     4.1737 H       
  43 H43            1.5414    -2.9311     4.6911 H       
  44 H44            3.6177    -1.5644     4.7232 H       
  45 H45            0.0188     2.5194     2.4831 H       
  46 H46            3.7288     4.6545     2.6475 H       
  47 H47            4.8530     2.7078     3.5729 H       
  48 H48           -0.8945     0.4828     0.6579 H       
  49 H49           -2.1172     2.3950    -0.2908 H       
  50 H50           -1.3376     2.1415     4.5743 H       
  51 H51           -0.2243     3.7761     0.7280 H       
  52 H52            2.3485     6.3118     3.0395 H       
  53 H53           -4.8680     3.3710     0.6394 H       
  54 H54           -4.8125     4.1182     2.2549 H       
  55 H55           -1.6607     4.8097    -0.4113 H       
  56 H56           -3.0169     3.7771    -0.9263 H       
  57 H57           -3.1521     6.7657    -0.3163 H       
  58 H58           -3.2463     6.0140    -1.9279 H       
  59 H59           -6.3544     5.3321     0.7012 H       
  60 H60           -5.0082     6.3585     1.2537 H       
  61 H61           -1.6274     8.0110    -0.4322 H       
  62 H62           -0.9633    10.2683     0.1897 H       
  63 H63            0.8579    10.6520     1.7948 H       
  64 H64            2.0432     8.7772     2.8055 H       
@<TRIPOS>BOND
   1    1    2 am
   2    1   10 1
   3    1   17 1
   4    2    3 1
   5    2   15 2
   6    3    4 2
   7    3   42 1
   8    4    5 1
   9    4   43 1
  10    5    6 ar
  11    5   10 ar
  12    6    7 ar
  13    6   44 1
  14    7    8 ar
  15    8    9 ar
  16    8   14 ar
  17    9   10 ar
  18    9   11 ar
  19   11   12 ar
  20   11   45 1
  21   12   13 ar
  22   12   16 1
  23   13   14 ar
  24   13   46 1
  25   14   47 1
  26   16   24 ar
  27   16   28 ar
  28   17   18 ar
  29   17   22 ar
  30   18   19 ar
  31   18   48 1
  32   19   20 ar
  33   19   49 1
  34   20   21 ar
  35   20   23 1
  36   21   22 ar
  37   21   38 1
  38   22   50 1
  39   23   29 1
  40   23   30 1
  41   24   25 ar
  42   24   51 1
  43   25   26 ar
  44   26   27 ar
  45   26   34 ar
  46   27   28 ar
  47   27   37 ar
  48   28   52 1
  49   29   33 1
  50   29   53 1
  51   29   54 1
  52   30   31 1
  53   30   55 1
  54   30   56 1
  55   31   32 1
  56   31   57 1
  57   31   58 1
  58   32   33 1
  59   33   59 1
  60   33   60 1
  61   34   35 ar
  62   34   61 1
  63   35   36 ar
  64   35   62 1
  65   36   37 ar
  66   36   63 1
  67   37   64 1
  68   38   39 1
  69   38   40 1
  70   38   41 1

#	End of record

