#	Name: ASD00069397
#	Creating user name:	WinNT
#	Creation time:	15. 06. 2019 18:29

#	Modifying user name:	WinNT
#	Modification time:	15. 06. 2019 18:29

#	Program:	/corina/corina34_cracker 3.40 0067  02.08.2006

@<TRIPOS>MOLECULE
ASD00069397
  47   48    0    0    0
SMALL
NO_CHARGES


@<TRIPOS>ATOM
   1 C1            -0.0168     1.3912     0.0097 C.ar    
   2 C2             0.0021    -0.0041     0.0020 C.ar    
   3 N3             1.1731    -0.6338    -0.0125 N.ar    
   4 C4             2.3073     0.0500    -0.0197 C.ar    
   5 N5             2.3207     1.3748    -0.0127 N.ar    
   6 C6             1.1900     2.0673     0.0018 C.ar    
   7 Cl7            1.2237     3.8029     0.0102 Cl      
   8 N8            -1.1823    -0.7230     0.0099 N.3     
   9 C9            -2.0410    -0.3352    -1.1171 C.3     
  10 C10           -1.8832    -0.5686     1.2916 C.3     
  11 C11           -3.0874    -1.5157     1.3288 C.3     
  12 C12           -3.2516    -1.2727    -1.1787 C.3     
  13 C13           -0.9302    -0.9093     2.4390 C.3     
  14 N14            3.5088    -0.6366    -0.0344 N.pl3   
  15 C15            4.7742     0.1015    -0.0425 C.3     
  16 N16           -3.9117    -1.2703     0.1356 N.am    
  17 O17           -5.9744    -0.8261    -0.8602 O.3     
  18 C18           -7.3950    -0.5951    -0.6683 C.3     
  19 C19           -7.5964     0.6371     0.2161 C.3     
  20 C20           -8.0620    -0.3631    -2.0256 C.3     
  21 C21           -8.0236    -1.8157     0.0069 C.3     
  22 C22           -5.2367    -1.0488     0.2439 C.2     
  23 O23           -5.7655    -1.0500     1.3379 O.2     
  24 H24           -0.9523     1.9309     0.0171 H       
  25 H25           -2.3821     0.6907    -0.9784 H       
  26 H26           -1.4764    -0.4087    -2.0466 H       
  27 H27           -2.2265     0.4605     1.3968 H       
  28 H28           -2.7407    -2.5490     1.3281 H       
  29 H29           -3.6760    -1.3246     2.2261 H       
  30 H30           -3.9488    -0.9210    -1.9392 H       
  31 H31           -2.9207    -2.2827    -1.4204 H       
  32 H32           -0.0727    -0.2370     2.4109 H       
  33 H33           -1.4507    -0.7947     3.3899 H       
  34 H34           -0.5883    -1.9389     2.3338 H       
  35 H35            3.5130    -1.6066    -0.0393 H       
  36 H36            5.6058    -0.6031    -0.0538 H       
  37 H37            4.8209     0.7329    -0.9298 H       
  38 H38            4.8375     0.7239     0.8501 H       
  39 H39           -7.1486     1.5067    -0.2649 H       
  40 H40           -8.6628     0.8106     0.3602 H       
  41 H41           -7.1213     0.4719     1.1831 H       
  42 H42           -7.9185    -1.2409    -2.6556 H       
  43 H43           -9.1284    -0.1897    -1.8815 H       
  44 H44           -7.6141     0.5065    -2.5066 H       
  45 H45           -7.5485    -1.9809     0.9739 H       
  46 H46           -9.0900    -1.6422     0.1510 H       
  47 H47           -7.8801    -2.6935    -0.6231 H       
@<TRIPOS>BOND
   1    1    2 ar
   2    1    6 ar
   3    1   24 1
   4    2    3 ar
   5    2    8 1
   6    3    4 ar
   7    4    5 ar
   8    4   14 1
   9    5    6 ar
  10    6    7 1
  11    8    9 1
  12    8   10 1
  13    9   12 1
  14    9   25 1
  15    9   26 1
  16   10   11 1
  17   10   13 1
  18   10   27 1
  19   11   16 1
  20   11   28 1
  21   11   29 1
  22   12   16 1
  23   12   30 1
  24   12   31 1
  25   13   32 1
  26   13   33 1
  27   13   34 1
  28   14   15 1
  29   14   35 1
  30   15   36 1
  31   15   37 1
  32   15   38 1
  33   16   22 am
  34   17   18 1
  35   17   22 1
  36   18   19 1
  37   18   20 1
  38   18   21 1
  39   19   39 1
  40   19   40 1
  41   19   41 1
  42   20   42 1
  43   20   43 1
  44   20   44 1
  45   21   45 1
  46   21   46 1
  47   21   47 1
  48   22   23 2

#	End of record

