#	Name: ASD04590581
#	Creating user name:	WinNT
#	Creation time:	15. 06. 2019 20:51

#	Modifying user name:	WinNT
#	Modification time:	15. 06. 2019 20:51

#	Program:	/corina/corina34_cracker 3.40 0067  02.08.2006

@<TRIPOS>MOLECULE
ASD04590581
  77   82    0    0    0
SMALL
NO_CHARGES


@<TRIPOS>ATOM
   1 N1             4.0109     1.1347     1.0734 N.ar    
   2 C2             3.8870    -0.1754     0.8920 C.ar    
   3 C3             2.6529    -0.7714     1.0036 C.ar    
   4 C4             1.5367     0.0121     1.2887 C.ar    
   5 C5             1.7017     1.3721     1.4641 C.ar    
   6 C6             2.9793     1.9106     1.3500 C.ar    
   7 C7             5.1348    -0.9482     0.5499 C.3     
   8 C8             4.9553    -2.4341     0.8559 C.3     
   9 N9             3.6663    -2.8625     0.2882 N.am    
  10 C10            2.4512    -2.2563     0.8437 C.3     
  11 N11            3.1714     3.2777     1.5288 N.pl3   
  12 C12            4.4539     3.8017     1.5385 C.ar    
  13 N13            4.6065     5.1150     1.5894 N.ar    
  14 C14            5.8214     5.6554     1.6003 C.ar    
  15 C15            6.9387     4.7974     1.5564 C.ar    
  16 C16            6.7284     3.4231     1.5035 C.ar    
  17 N17            5.4859     2.9688     1.5017 N.ar    
  18 N18            6.2715     6.9516     1.6479 N.pl3   
  19 C19            7.6552     6.9837     1.6371 C.ar    
  20 C20            8.1268     5.6600     1.5803 C.ar    
  21 C21            8.5834     8.0164     1.6701 C.ar    
  22 N22            9.8750     7.7576     1.6481 N.ar    
  23 C23           10.3505     6.5259     1.5949 C.ar    
  24 C24            9.5034     5.4386     1.5599 C.ar    
  25 C25            5.4086     8.1343     1.7018 C.3     
  26 C26            4.5360     8.0722     2.9570 C.3     
  27 C27            3.6348     9.3074     3.0132 C.3     
  28 C28            2.7410     9.3435     1.7720 C.3     
  29 C29            3.6136     9.4056     0.5167 C.3     
  30 C30            4.5148     8.1704     0.4605 C.3     
  31 C31            3.6049    -3.7745    -0.7022 C.2     
  32 C32            2.2688    -4.1911    -1.2611 C.3     
  33 O33            4.6249    -4.2598    -1.1437 O.2     
  34 N34            2.4708    -5.1876    -2.3214 N.3     
  35 C35            1.1944    -5.7914    -2.7265 C.3     
  36 C36            3.1630    -4.5965    -3.4744 C.3     
  37 C37            3.7238    -5.7116    -4.3592 C.3     
  38 C38            0.7365    -6.7830    -1.6550 C.3     
  39 C39            1.8398    10.5787     1.8282 C.3     
  40 H40            0.5578    -0.4368     1.3710 H       
  41 H41            0.8553     2.0052     1.6854 H       
  42 H42            5.3536    -0.8245    -0.5107 H       
  43 H43            5.9686    -0.5599     1.1349 H       
  44 H44            5.7656    -3.0044     0.4019 H       
  45 H45            4.9530    -2.5905     1.9346 H       
  46 H46            2.2363    -2.7000     1.8158 H       
  47 H47            1.6143    -2.4382     0.1695 H       
  48 H48            2.4072     3.8635     1.6466 H       
  49 H49            7.5639     2.7397     1.4686 H       
  50 H50            8.2433     9.0405     1.7138 H       
  51 H51           11.4188     6.3685     1.5786 H       
  52 H52            9.8986     4.4345     1.5161 H       
  53 H53            6.0250     9.0327     1.7319 H       
  54 H54            3.9195     7.1738     2.9269 H       
  55 H55            5.1727     8.0465     3.8413 H       
  56 H56            3.0131     9.2632     3.9074 H       
  57 H57            4.2513    10.2058     3.0433 H       
  58 H58            2.1245     8.4451     1.7419 H       
  59 H59            2.9769     9.4313    -0.3675 H       
  60 H60            4.2301    10.3040     0.5468 H       
  61 H61            5.1365     8.2146    -0.4337 H       
  62 H62            3.8983     7.2720     0.4304 H       
  63 H63            1.6616    -4.6243    -0.4663 H       
  64 H64            1.7598    -3.3200    -1.6734 H       
  65 H65            0.4435    -5.0099    -2.8430 H       
  66 H66            1.3244    -6.3145    -3.6739 H       
  67 H67            2.4603    -3.9944    -4.0504 H       
  68 H68            3.9797    -3.9656    -3.1236 H       
  69 H69            2.9093    -6.3534    -4.6949 H       
  70 H70            4.2214    -5.2734    -5.2244 H       
  71 H71            4.4404    -6.3025    -3.7886 H       
  72 H72            1.5280    -7.5092    -1.4700 H       
  73 H73            0.5141    -6.2451    -0.7334 H       
  74 H74           -0.1589    -7.3011    -1.9984 H       
  75 H75            2.4563    11.4771     1.8583 H       
  76 H76            1.2031    10.6045     0.9439 H       
  77 H77            1.2182    10.5345     2.7224 H       
@<TRIPOS>BOND
   1    1    2 ar
   2    1    6 ar
   3    2    3 ar
   4    2    7 1
   5    3    4 ar
   6    3   10 1
   7    4    5 ar
   8    4   40 1
   9    5    6 ar
  10    5   41 1
  11    6   11 1
  12    7    8 1
  13    7   42 1
  14    7   43 1
  15    8    9 1
  16    8   44 1
  17    8   45 1
  18    9   10 1
  19    9   31 am
  20   10   46 1
  21   10   47 1
  22   11   12 1
  23   11   48 1
  24   12   13 ar
  25   12   17 ar
  26   13   14 ar
  27   14   15 ar
  28   14   18 1
  29   15   16 ar
  30   15   20 1
  31   16   17 ar
  32   16   49 1
  33   18   19 1
  34   18   25 1
  35   19   20 ar
  36   19   21 ar
  37   20   24 ar
  38   21   22 ar
  39   21   50 1
  40   22   23 ar
  41   23   24 ar
  42   23   51 1
  43   24   52 1
  44   25   26 1
  45   25   30 1
  46   25   53 1
  47   26   27 1
  48   26   54 1
  49   26   55 1
  50   27   28 1
  51   27   56 1
  52   27   57 1
  53   28   29 1
  54   28   39 1
  55   28   58 1
  56   29   30 1
  57   29   59 1
  58   29   60 1
  59   30   61 1
  60   30   62 1
  61   31   32 1
  62   31   33 2
  63   32   34 1
  64   32   63 1
  65   32   64 1
  66   34   35 1
  67   34   36 1
  68   35   38 1
  69   35   65 1
  70   35   66 1
  71   36   37 1
  72   36   67 1
  73   36   68 1
  74   37   69 1
  75   37   70 1
  76   37   71 1
  77   38   72 1
  78   38   73 1
  79   38   74 1
  80   39   75 1
  81   39   76 1
  82   39   77 1

#	End of record

