#	Name: ASD01900524
#	Creating user name:	WinNT
#	Creation time:	15. 06. 2019 19:52

#	Modifying user name:	WinNT
#	Modification time:	15. 06. 2019 19:52

#	Program:	/corina/corina34_cracker 3.40 0067  02.08.2006

@<TRIPOS>MOLECULE
ASD01900524
  25   27    0    0    0
SMALL
NO_CHARGES


@<TRIPOS>ATOM
   1 C1            -0.0261     1.3887     0.1268 C.ar    
   2 C2             0.0065     0.0003    -0.0632 C.ar    
   3 C3             1.2218    -0.6705     0.0522 C.ar    
   4 C4             2.3516     0.0663     0.3512 C.ar    
   5 C5             2.2461     1.4418     0.5267 C.ar    
   6 N6             1.0875     2.0558     0.4130 N.ar    
   7 O7            -1.2511    -0.4002    -0.3368 O.3     
   8 N8            -2.1134     0.7198    -0.3279 N.2     
   9 C9            -1.4303     1.7955    -0.0523 C.2     
  10 N10           -1.9321     3.0871     0.0450 N.pl3   
  11 F11            3.3521     2.1603     0.8194 F       
  12 C12           -3.3090     3.3100    -0.0404 C.ar    
  13 C13           -4.2001     2.3276     0.3728 C.ar    
  14 C14           -5.5611     2.5515     0.2869 C.ar    
  15 C15           -6.0359     3.7529    -0.2106 C.ar    
  16 C16           -5.1510     4.7317    -0.6228 C.ar    
  17 C17           -3.7895     4.5165    -0.5333 C.ar    
  18 Cl18          -6.6761     1.3250     0.8028 Cl      
  19 H19            1.2794    -1.7398    -0.0881 H       
  20 H20            3.3097    -0.4224     0.4482 H       
  21 H21           -1.3268     3.8343     0.1723 H       
  22 H22           -3.8297     1.3901     0.7604 H       
  23 H23           -7.0999     3.9257    -0.2773 H       
  24 H24           -5.5246     5.6677    -1.0112 H       
  25 H25           -3.0990     5.2838    -0.8511 H       
@<TRIPOS>BOND
   1    1    2 ar
   2    1    6 ar
   3    1    9 1
   4    2    3 ar
   5    2    7 1
   6    3    4 ar
   7    3   19 1
   8    4    5 ar
   9    4   20 1
  10    5    6 ar
  11    5   11 1
  12    7    8 1
  13    8    9 2
  14    9   10 1
  15   10   12 1
  16   10   21 1
  17   12   13 ar
  18   12   17 ar
  19   13   14 ar
  20   13   22 1
  21   14   15 ar
  22   14   18 1
  23   15   16 ar
  24   15   23 1
  25   16   17 ar
  26   16   24 1
  27   17   25 1

#	End of record

