#	Name: ASD01914885
#	Creating user name:	WinNT
#	Creation time:	15. 06. 2019 20:04

#	Modifying user name:	WinNT
#	Modification time:	15. 06. 2019 20:04

#	Program:	/corina/corina34_cracker 3.40 0067  02.08.2006

@<TRIPOS>MOLECULE
ASD01914885
  49   51    0    0    0
SMALL
NO_CHARGES


@<TRIPOS>ATOM
   1 C1             0.6074     1.2702    -0.9468 C.ar    
   2 C2             0.6015    -0.0889    -0.6139 C.ar    
   3 C3             1.6369    -0.9083    -1.0965 C.ar    
   4 N4             2.5971    -0.3980    -1.8512 N.ar    
   5 C5             2.6202     0.8803    -2.1759 C.ar    
   6 C6             1.6363     1.7486    -1.7395 C.ar    
   7 N7             1.6525    -2.2557    -0.7805 N.3     
   8 C8             0.4009    -2.9063    -1.1883 C.3     
   9 C9             2.8041    -2.9300    -1.4019 C.3     
  10 C10            2.9557    -4.3161    -0.7703 C.3     
  11 C11            1.6282    -5.0218    -0.7723 C.2     
  12 C12            0.4858    -4.3877    -0.9565 C.2     
  13 C13            1.6018    -6.4769    -0.5606 C.2     
  14 N14            0.4443    -7.1555    -0.6875 N.am    
  15 O15            2.6247    -7.0680    -0.2710 O.2     
  16 C16            0.4478    -8.5559    -0.6686 C.ar    
  17 C17           -0.5877    -9.2609    -1.2684 C.ar    
  18 C18           -0.5843   -10.6412    -1.2504 C.ar    
  19 C19            0.4552   -11.3252    -0.6321 C.ar    
  20 C20            1.4910   -10.6195    -0.0322 C.ar    
  21 C21            1.4897    -9.2394    -0.0552 C.ar    
  22 C22            3.9682    -5.1340    -1.5744 C.3     
  23 C23            5.3691    -4.5533    -1.3714 C.3     
  24 C24           -0.4396    -0.6349     0.2038 C.1     
  25 N25           -1.2655    -1.0681     0.8524 N.1     
  26 S26            0.4597   -13.0870    -0.6084 S.3     
  27 C27            1.9851   -13.4792     0.2915 C.3     
  28 F28            1.9255   -12.9243     1.5744 F       
  29 F29            2.1246   -14.8677     0.3900 F       
  30 F30            3.0817   -12.9479    -0.3959 F       
  31 H31           -0.1742     1.9287    -0.5976 H       
  32 H32            3.4223     1.2557    -2.7940 H       
  33 H33            1.6707     2.7924    -2.0148 H       
  34 H34           -0.4250    -2.4967    -0.6068 H       
  35 H35            0.2234    -2.7161    -2.2468 H       
  36 H36            2.6336    -3.0328    -2.4736 H       
  37 H37            3.7082    -2.3469    -1.2265 H       
  38 H38            3.3086    -4.2105     0.2556 H       
  39 H39           -0.4299    -4.9599    -0.9391 H       
  40 H40           -0.3913    -6.6739    -0.7918 H       
  41 H41           -1.3958    -8.7292    -1.7486 H       
  42 H42           -1.3897   -11.1893    -1.7165 H       
  43 H43            2.2990   -11.1509     0.4487 H       
  44 H44            2.2949    -8.6908     0.4108 H       
  45 H45            3.9513    -6.1694    -1.2339 H       
  46 H46            3.7086    -5.0951    -2.6323 H       
  47 H47            5.3715    -3.5016    -1.6579 H       
  48 H48            5.6519    -4.6448    -0.3227 H       
  49 H49            6.0820    -5.0998    -1.9889 H       
@<TRIPOS>BOND
   1    1    2 ar
   2    1    6 ar
   3    1   31 1
   4    2    3 ar
   5    2   24 1
   6    3    4 ar
   7    3    7 1
   8    4    5 ar
   9    5    6 ar
  10    5   32 1
  11    6   33 1
  12    7    8 1
  13    7    9 1
  14    8   12 1
  15    8   34 1
  16    8   35 1
  17    9   10 1
  18    9   36 1
  19    9   37 1
  20   10   11 1
  21   10   22 1
  22   10   38 1
  23   11   12 2
  24   11   13 1
  25   12   39 1
  26   13   14 am
  27   13   15 2
  28   14   16 1
  29   14   40 1
  30   16   17 ar
  31   16   21 ar
  32   17   18 ar
  33   17   41 1
  34   18   19 ar
  35   18   42 1
  36   19   20 ar
  37   19   26 1
  38   20   21 ar
  39   20   43 1
  40   21   44 1
  41   22   23 1
  42   22   45 1
  43   22   46 1
  44   23   47 1
  45   23   48 1
  46   23   49 1
  47   24   25 3
  48   26   27 1
  49   27   28 1
  50   27   29 1
  51   27   30 1

#	End of record

