#	Name: ASD01150751
#	Creating user name:	WinNT
#	Creation time:	15. 06. 2019 19:04

#	Modifying user name:	WinNT
#	Modification time:	15. 06. 2019 19:04

#	Program:	/corina/corina34_cracker 3.40 0067  02.08.2006

@<TRIPOS>MOLECULE
ASD01150751
  41   43    0    0    0
SMALL
NO_CHARGES


@<TRIPOS>ATOM
   1 C1             0.0305     1.5083     0.4582 C.2     
   2 C2            -0.3578     1.2394     1.8893 C.3     
   3 F3            -1.6164     0.6296     1.9243 F       
   4 F4             0.5874     0.3922     2.4776 F       
   5 F5            -0.4048     2.4468     2.5945 F       
   6 N6             3.6094     2.0321    -0.3223 N.ar    
   7 C7             2.4709     1.4493    -0.0519 C.ar    
   8 C8             1.2935     2.1906     0.1568 C.ar    
   9 C9             1.3419     3.5940     0.0724 C.ar    
  10 C10            2.5912     4.1930    -0.2222 C.ar    
  11 C11            2.7231     5.5846    -0.3231 C.ar    
  12 C12            3.9416     6.1278    -0.6078 C.ar    
  13 C13            5.0564     5.3150    -0.7999 C.ar    
  14 C14            4.9610     3.9591    -0.7091 C.ar    
  15 C15            3.7231     3.3638    -0.4166 C.ar    
  16 C16            2.4183    -0.0541     0.0381 C.3     
  17 C17            0.1313     4.4147     0.2833 C.ar    
  18 C18            0.0547     5.2845     1.3733 C.ar    
  19 C19           -1.0781     6.0480     1.5639 C.ar    
  20 C20           -2.1371     5.9537     0.6781 C.ar    
  21 C21           -2.0681     5.0936    -0.4038 C.ar    
  22 C22           -0.9390     4.3285    -0.6096 C.ar    
  23 S23           -3.5803     6.9328     0.9293 S.o2    
  24 O24           -4.6188     6.1939     0.3009 O.2     
  25 O25           -3.5987     7.1772     2.3290 O.2     
  26 C26           -3.2504     8.4671     0.0195 C.3     
  27 Br27           4.1192     8.0055    -0.7438 Br      
  28 O28           -0.6992     1.1561    -0.4447 O.2     
  29 H29            1.8647     6.2234    -0.1766 H       
  30 H30            6.0112     5.7668    -1.0247 H       
  31 H31            5.8351     3.3434    -0.8616 H       
  32 H32            2.5218    -0.3596     1.0793 H       
  33 H33            1.4637    -0.4082    -0.3512 H       
  34 H34            3.2311    -0.4819    -0.5487 H       
  35 H35            0.8803     5.3588     2.0656 H       
  36 H36           -1.1389     6.7208     2.4066 H       
  37 H37           -2.8983     5.0246    -1.0910 H       
  38 H38           -0.8846     3.6609    -1.4569 H       
  39 H39           -3.0925     8.2378    -1.0343 H       
  40 H40           -4.1017     9.1401     0.1214 H       
  41 H41           -2.3586     8.9452     0.4248 H       
@<TRIPOS>BOND
   1    1    2 1
   2    1    8 1
   3    1   28 2
   4    2    3 1
   5    2    4 1
   6    2    5 1
   7    6    7 ar
   8    6   15 ar
   9    7    8 ar
  10    7   16 1
  11    8    9 ar
  12    9   10 ar
  13    9   17 1
  14   10   11 ar
  15   10   15 ar
  16   11   12 ar
  17   11   29 1
  18   12   13 ar
  19   12   27 1
  20   13   14 ar
  21   13   30 1
  22   14   15 ar
  23   14   31 1
  24   16   32 1
  25   16   33 1
  26   16   34 1
  27   17   18 ar
  28   17   22 ar
  29   18   19 ar
  30   18   35 1
  31   19   20 ar
  32   19   36 1
  33   20   21 ar
  34   20   23 1
  35   21   22 ar
  36   21   37 1
  37   22   38 1
  38   23   24 2
  39   23   25 2
  40   23   26 1
  41   26   39 1
  42   26   40 1
  43   26   41 1

#	End of record

