#	Name: ASD01208479
#	Creating user name:	WinNT
#	Creation time:	15. 06. 2019 19:09

#	Modifying user name:	WinNT
#	Modification time:	15. 06. 2019 19:09

#	Program:	/corina/corina34_cracker 3.40 0067  02.08.2006

@<TRIPOS>MOLECULE
ASD01208479
  30   30    0    0    0
SMALL
NO_CHARGES


@<TRIPOS>ATOM
   1 C1             1.2173    -0.6842    -0.0212 C.ar    
   2 C2             0.0080    -0.0139     0.0028 C.ar    
   3 C3            -0.0172     1.3731     0.0194 C.ar    
   4 C4             1.1714     2.0873     0.0119 C.ar    
   5 C5             2.3825     1.4135    -0.0123 C.ar    
   6 C6             2.4033     0.0259    -0.0289 C.ar    
   7 O7             3.5487     2.1111    -0.0202 O.3     
   8 C8             3.4533     3.5332    -0.1226 C.3     
   9 C9             4.7445     4.0888    -0.7267 C.3     
  10 C10            3.2427     4.1319     1.2696 C.3     
  11 O11            5.8319     3.8464     0.1681 O.3     
  12 C12            7.0915     4.3290    -0.3036 C.3     
  13 O13           -1.2058     2.0314     0.0426 O.3     
  14 C14           -2.3902     1.2319     0.0487 C.3     
  15 Br15           1.2487    -2.5749    -0.0359 Br      
  16 H16           -0.9176    -0.5705     0.0084 H       
  17 H17            1.1535     3.1671     0.0244 H       
  18 H18            3.3468    -0.4994    -0.0477 H       
  19 H19            2.6106     3.7957    -0.7622 H       
  20 H20            4.9412     3.5967    -1.6792 H       
  21 H21            4.6383     5.1617    -0.8872 H       
  22 H22            2.3228     3.7360     1.6999 H       
  23 H23            4.0854     3.8694     1.9092 H       
  24 H24            3.1699     5.2166     1.1914 H       
  25 H25            7.3369     3.8418    -1.2473 H       
  26 H26            7.0340     5.4068    -0.4553 H       
  27 H27            7.8645     4.1063     0.4319 H       
  28 H28           -2.4155     0.6132    -0.8484 H       
  29 H29           -2.3923     0.5923     0.9313 H       
  30 H30           -3.2662     1.8803     0.0677 H       
@<TRIPOS>BOND
   1    1    2 ar
   2    1    6 ar
   3    1   15 1
   4    2    3 ar
   5    2   16 1
   6    3    4 ar
   7    3   13 1
   8    4    5 ar
   9    4   17 1
  10    5    6 ar
  11    5    7 1
  12    6   18 1
  13    7    8 1
  14    8    9 1
  15    8   10 1
  16    8   19 1
  17    9   11 1
  18    9   20 1
  19    9   21 1
  20   10   22 1
  21   10   23 1
  22   10   24 1
  23   11   12 1
  24   12   25 1
  25   12   26 1
  26   12   27 1
  27   13   14 1
  28   14   28 1
  29   14   29 1
  30   14   30 1

#	End of record

