#	Name: ASD02030465
#	Creating user name:	WinNT
#	Creation time:	15. 06. 2019 20:15

#	Modifying user name:	WinNT
#	Modification time:	15. 06. 2019 20:15

#	Program:	/corina/corina34_cracker 3.40 0067  02.08.2006

@<TRIPOS>MOLECULE
ASD02030465
  20   21    0    0    0
SMALL
NO_CHARGES


@<TRIPOS>ATOM
   1 C1            -0.0169     1.3980     0.0097 C.ar    
   2 C2             0.0021    -0.0041     0.0020 C.ar    
   3 C3             1.1950    -0.6666    -0.0549 C.ar    
   4 C4             2.3915     0.0372    -0.0948 C.ar    
   5 C5             2.3969     1.4160    -0.0641 C.ar    
   6 C6             1.1965     2.1115     0.0020 C.ar    
   7 O7             1.1947     3.4631     0.0824 O.3     
   8 C8             0.1026     4.0922    -0.4066 C.2     
   9 C9            -1.2151     3.4772    -0.1626 C.2     
  10 C10           -1.2486     2.1017     0.0312 C.2     
  11 O11            0.2038     5.1332    -1.0282 O.2     
  12 C12           -2.4432     4.2864    -0.1254 C.2     
  13 O13           -3.5163     3.7531     0.0778 O.2     
  14 O14           -2.3783     5.6191    -0.3166 O.3     
  15 I15            1.2200    -2.7613    -0.0814 I       
  16 H16           -0.9240    -0.5584     0.0413 H       
  17 H17            3.3267    -0.5003    -0.1501 H       
  18 H18            3.3330     1.9540    -0.0910 H       
  19 H19           -2.1829     1.5844     0.1923 H       
  20 H20           -3.2116     6.1085    -0.2831 H       
@<TRIPOS>BOND
   1    1    2 ar
   2    1    6 ar
   3    1   10 1
   4    2    3 ar
   5    2   16 1
   6    3    4 ar
   7    3   15 1
   8    4    5 ar
   9    4   17 1
  10    5    6 ar
  11    5   18 1
  12    6    7 1
  13    7    8 1
  14    8    9 1
  15    8   11 2
  16    9   10 2
  17    9   12 1
  18   10   19 1
  19   12   13 2
  20   12   14 1
  21   14   20 1

#	End of record

