#	Name: ASD01885379
#	Creating user name:	WinNT
#	Creation time:	15. 06. 2019 19:49

#	Modifying user name:	WinNT
#	Modification time:	15. 06. 2019 19:49

#	Program:	/corina/corina34_cracker 3.40 0067  02.08.2006

@<TRIPOS>MOLECULE
ASD01885379
  57   61    0    0    0
SMALL
NO_CHARGES


@<TRIPOS>ATOM
   1 C1             0.0590     1.4277    -0.3389 C.2     
   2 C2            -0.0018     0.0547    -0.0321 C.2     
   3 C3             1.1398    -0.6004     0.3110 C.2     
   4 C4             2.3585     0.0982     0.3546 C.2     
   5 C5             2.4015     1.4141     0.0580 C.2     
   6 N6             1.2646     2.0835    -0.2876 N.pl3   
   7 C7             1.0015     3.3737    -0.6302 C.2     
   8 N8            -0.2818     3.4641    -0.8671 N.2     
   9 N9            -0.8475     2.3200    -0.7028 N.2     
  10 C10            2.0052     4.4942    -0.7199 C.3     
  11 C11            1.0979    -2.0697     0.6437 C.3     
  12 C12            2.5788     4.5529    -2.1371 C.3     
  13 N13            1.8414    -2.8237    -0.3744 N.3     
  14 C14            2.1417    -4.1832     0.0924 C.3     
  15 C15            3.0381    -4.8881    -0.9282 C.3     
  16 C16            2.3215    -4.9392    -2.2803 C.3     
  17 C17            1.9771    -3.5138    -2.7208 C.3     
  18 C18            1.1114    -2.8488    -1.6483 C.3     
  19 C19            3.2233    -5.5788    -3.3044 C.ar    
  20 C20            2.8167    -6.7360    -3.9462 C.ar    
  21 C21            3.6552    -7.3170    -4.8880 C.ar    
  22 C22            4.8755    -6.7093    -5.1491 C.ar    
  23 C23            5.2125    -5.5527    -4.4663 C.ar    
  24 N24            4.3880    -5.0265    -3.5823 N.ar    
  25 F25            5.7236    -7.2396    -6.0572 F       
  26 C26            3.5258     5.7420    -2.3696 C.3     
  27 C27            4.4079     4.7793    -3.1821 C.3     
  28 C28            3.7994     3.6412    -2.3459 C.3     
  29 F29            1.6197    -7.2930    -3.6596 F       
  30 C30           -1.3165    -0.6802    -0.0829 C.3     
  31 F31           -1.7717    -0.9122     1.2194 F       
  32 F32           -2.2559     0.0919    -0.7747 F       
  33 F33           -1.1424    -1.9026    -0.7407 F       
  34 H34            3.2655    -0.4207     0.6273 H       
  35 H35            3.3434     1.9412     0.0950 H       
  36 H36            1.5159     5.4399    -0.4865 H       
  37 H37            2.8118     4.3173    -0.0085 H       
  38 H38            1.5517    -2.2340     1.6211 H       
  39 H39            0.0621    -2.4086     0.6625 H       
  40 H40            1.8152     4.4458    -2.9075 H       
  41 H41            2.6549    -4.1324     1.0527 H       
  42 H42            1.2125    -4.7415     0.2065 H       
  43 H43            3.9732    -4.3379    -1.0325 H       
  44 H44            3.2480    -5.9025    -0.5889 H       
  45 H45            1.4055    -5.5225    -2.1853 H       
  46 H46            2.8955    -2.9420    -2.8534 H       
  47 H47            1.4289    -3.5463    -3.6624 H       
  48 H48            0.1870    -3.4133    -1.5261 H       
  49 H49            0.8763    -1.8288    -1.9523 H       
  50 H50            3.3652    -8.2200    -5.4046 H       
  51 H51            6.1601    -5.0735    -4.6635 H       
  52 H52            3.0857     6.5404    -2.9670 H       
  53 H53            4.0011     6.1062    -1.4588 H       
  54 H54            4.1453     4.7332    -4.2390 H       
  55 H55            5.4759     4.9203    -3.0160 H       
  56 H56            4.3495     3.4311    -1.4286 H       
  57 H57            3.5801     2.7436    -2.9241 H       
@<TRIPOS>BOND
   1    1    2 1
   2    1    6 1
   3    1    9 2
   4    2   30 1
   5    2    3 2
   6    3    4 1
   7    3   11 1
   8    4    5 2
   9    4   34 1
  10    5    6 1
  11    5   35 1
  12    6    7 1
  13    7    8 2
  14    7   10 1
  15    8    9 1
  16   10   12 1
  17   10   36 1
  18   10   37 1
  19   11   13 1
  20   11   38 1
  21   11   39 1
  22   12   26 1
  23   12   28 1
  24   12   40 1
  25   13   14 1
  26   13   18 1
  27   14   15 1
  28   14   41 1
  29   14   42 1
  30   15   16 1
  31   15   43 1
  32   15   44 1
  33   16   17 1
  34   16   19 1
  35   16   45 1
  36   17   18 1
  37   17   46 1
  38   17   47 1
  39   18   48 1
  40   18   49 1
  41   19   20 ar
  42   19   24 ar
  43   20   21 ar
  44   20   29 1
  45   21   22 ar
  46   21   50 1
  47   22   23 ar
  48   22   25 1
  49   23   24 ar
  50   23   51 1
  51   26   27 1
  52   26   52 1
  53   26   53 1
  54   27   28 1
  55   27   54 1
  56   27   55 1
  57   28   56 1
  58   28   57 1
  59   30   31 1
  60   30   32 1
  61   30   33 1

#	End of record

