#	Name: ASD02508023
#	Creating user name:	WinNT
#	Creation time:	15. 06. 2019 20:23

#	Modifying user name:	WinNT
#	Modification time:	15. 06. 2019 20:23

#	Program:	/corina/corina34_cracker 3.40 0067  02.08.2006

@<TRIPOS>MOLECULE
ASD02508023
  55   58    0    0    0
SMALL
NO_CHARGES


@<TRIPOS>ATOM
   1 C1            -0.0121     1.4375     0.0174 C.3     
   2 N2             0.0010    -0.0321     0.0115 N.am    
   3 C3             1.4368     1.9405     0.0078 C.3     
   4 N4             2.1690     1.2430    -1.0586 N.am    
   5 C5             2.1820    -0.2266    -1.0645 C.3     
   6 C6             0.7332    -0.7296    -1.0549 C.3     
   7 C7             4.6055     2.3759    -1.6541 C.ar    
   8 C8             5.6010     1.4588    -1.9350 C.ar    
   9 C9             4.8962     3.5134    -0.9249 C.ar    
  10 C10            6.1838     3.7388    -0.4752 C.ar    
  11 C11            7.1875     2.8241    -0.7554 C.ar    
  12 C12            6.8943     1.6781    -1.4857 C.ar    
  13 O13            8.4523     3.0634    -0.3130 O.3     
  14 C14            9.3485     1.9470    -0.2912 C.3     
  15 C15            9.2195     1.2006    -1.6259 C.3     
  16 O16            7.8629     0.7637    -1.7653 O.3     
  17 C17           -2.4357    -1.1644     0.6073 C.ar    
  18 C18           -2.7263    -2.2996    -0.1275 C.ar    
  19 C19           -3.4314    -0.2513     0.8928 C.ar    
  20 C20           -4.7259    -0.4738     0.4413 C.ar    
  21 C21           -5.0144    -1.6144    -0.2961 C.ar    
  22 C22           -4.0138    -2.5237    -0.5787 C.ar    
  23 S23           -0.7947    -0.8867     1.1857 S.o2    
  24 O24           -0.1698    -2.1614     1.2473 O.2     
  25 O25           -0.9056    -0.0206     2.3068 O.2     
  26 S26            2.9646     2.0976    -2.2329 S.o2    
  27 O27            3.0760     1.2313    -3.3538 O.2     
  28 O28            2.3394     3.3722    -2.2947 O.2     
  29 N29           -5.7373     0.4493     0.7294 N.am    
  30 O30           -6.6686     0.1590    -1.2633 O.2     
  31 C31           -6.7161     0.6786    -0.1684 C.2     
  32 C32           -7.8694     1.5806     0.1882 C.3     
  33 H33           -0.5318     1.8023    -0.8686 H       
  34 H34           -0.5176     1.7953     0.9144 H       
  35 H35            1.4501     3.0139    -0.1811 H       
  36 H36            1.9035     1.7300     0.9701 H       
  37 H37            2.6875    -0.5844    -1.9615 H       
  38 H38            2.7018    -0.5914    -0.1786 H       
  39 H39            0.7199    -1.8030    -0.8661 H       
  40 H40            0.2665    -0.5191    -2.0172 H       
  41 H41            5.3712     0.5706    -2.5047 H       
  42 H42            4.1161     4.2276    -0.7063 H       
  43 H43            6.4082     4.6284     0.0946 H       
  44 H44           10.3720     2.2998    -0.1648 H       
  45 H45            9.0850     1.2802     0.5298 H       
  46 H46            9.4774     1.8690    -2.4473 H       
  47 H47            9.8856     0.3378    -1.6303 H       
  48 H48           -1.9457    -3.0122    -0.3495 H       
  49 H49           -3.2039     0.6348     1.4669 H       
  50 H50           -6.0201    -1.7904    -0.6482 H       
  51 H51           -4.2375    -3.4111    -1.1522 H       
  52 H52           -5.7340     0.9242     1.5752 H       
  53 H53           -7.7399     1.9513     1.2050 H       
  54 H54           -7.9002     2.4219    -0.5041 H       
  55 H55           -8.8024     1.0209     0.1217 H       
@<TRIPOS>BOND
   1    1    2 1
   2    1    3 1
   3    1   33 1
   4    1   34 1
   5    2   23 am
   6    2    6 1
   7    3    4 1
   8    3   35 1
   9    3   36 1
  10    4    5 1
  11    4   26 am
  12    5    6 1
  13    5   37 1
  14    5   38 1
  15    6   39 1
  16    6   40 1
  17    7    8 ar
  18    7    9 ar
  19    7   26 1
  20    8   12 ar
  21    8   41 1
  22    9   10 ar
  23    9   42 1
  24   10   11 ar
  25   10   43 1
  26   11   12 ar
  27   11   13 1
  28   12   16 1
  29   13   14 1
  30   14   15 1
  31   14   44 1
  32   14   45 1
  33   15   16 1
  34   15   46 1
  35   15   47 1
  36   17   18 ar
  37   17   19 ar
  38   17   23 1
  39   18   22 ar
  40   18   48 1
  41   19   20 ar
  42   19   49 1
  43   20   21 ar
  44   20   29 1
  45   21   22 ar
  46   21   50 1
  47   22   51 1
  48   23   24 2
  49   23   25 2
  50   26   27 2
  51   26   28 2
  52   29   31 am
  53   29   52 1
  54   30   31 2
  55   31   32 1
  56   32   53 1
  57   32   54 1
  58   32   55 1

#	End of record

