#	Name: ASD01908060
#	Creating user name:	WinNT
#	Creation time:	15. 06. 2019 19:54

#	Modifying user name:	WinNT
#	Modification time:	15. 06. 2019 19:54

#	Program:	/corina/corina34_cracker 3.40 0067  02.08.2006

@<TRIPOS>MOLECULE
ASD01908060
  40   41    0    0    0
SMALL
NO_CHARGES


@<TRIPOS>ATOM
   1 N1            -0.2864     1.4494    -0.2518 N.pl3   
   2 N2            -0.6250     0.1000    -0.4041 N.2     
   3 C3             0.4273    -0.6295    -0.1508 C.2     
   4 C4             1.4918     0.2369     0.1772 C.2     
   5 C5             1.0083     1.5249     0.1034 C.2     
   6 C6             2.8696    -0.1632     0.5342 C.2     
   7 N7             3.7599     0.7463     0.8172 N.2     
   8 N8             3.2128    -1.4973     0.5678 N.pl3   
   9 C9             1.7874     2.7867     0.3715 C.3     
  10 C10            1.7798     3.0814     1.8729 C.3     
  11 C11            2.5591     4.3700     2.1435 C.3     
  12 C12           -1.1878     2.5869    -0.4515 C.3     
  13 C13           -1.2229     2.9492    -1.9139 C.ar    
  14 C14           -2.0891     2.2911    -2.7674 C.ar    
  15 C15           -2.1232     2.6215    -4.1083 C.ar    
  16 C16           -1.2874     3.6144    -4.5984 C.ar    
  17 C17           -0.4192     4.2732    -3.7400 C.ar    
  18 C18           -0.3930     3.9431    -2.3988 C.ar    
  19 O19           -1.3187     3.9408    -5.9172 O.3     
  20 C20           -0.4304     4.9726    -6.3515 C.3     
  21 H21            0.4749    -1.7078    -0.1860 H       
  22 H22            4.6639     0.4838     1.0514 H       
  23 H23            2.5504    -2.1739     0.3572 H       
  24 H24            4.1168    -1.7598     0.8020 H       
  25 H25            2.8151     2.6583     0.0317 H       
  26 H26            1.3287     3.6177    -0.1642 H       
  27 H27            0.7516     3.2001     2.2146 H       
  28 H28            2.2474     2.2548     2.4078 H       
  29 H29            2.0916     5.1966     1.6086 H       
  30 H30            2.5537     4.5800     3.2131 H       
  31 H31            3.5874     4.2513     1.8018 H       
  32 H32           -2.1907     2.3183    -0.1196 H       
  33 H33           -0.8303     3.4396     0.1256 H       
  34 H34           -2.7393     1.5180    -2.3855 H       
  35 H35           -2.7997     2.1069    -4.7747 H       
  36 H36            0.2325     5.0465    -4.1191 H       
  37 H37            0.2793     4.4589    -1.7292 H       
  38 H38           -0.6554     5.8949    -5.8160 H       
  39 H39            0.5984     4.6758    -6.1476 H       
  40 H40           -0.5567     5.1339    -7.4220 H       
@<TRIPOS>BOND
   1    1    2 1
   2    1    5 1
   3    1   12 1
   4    2    3 2
   5    3    4 1
   6    3   21 1
   7    4    5 2
   8    4    6 1
   9    5    9 1
  10    6    7 2
  11    6    8 1
  12    7   22 1
  13    8   23 1
  14    8   24 1
  15    9   10 1
  16    9   25 1
  17    9   26 1
  18   10   11 1
  19   10   27 1
  20   10   28 1
  21   11   29 1
  22   11   30 1
  23   11   31 1
  24   12   13 1
  25   12   32 1
  26   12   33 1
  27   13   14 ar
  28   13   18 ar
  29   14   15 ar
  30   14   34 1
  31   15   16 ar
  32   15   35 1
  33   16   17 ar
  34   16   19 1
  35   17   18 ar
  36   17   36 1
  37   18   37 1
  38   19   20 1
  39   20   38 1
  40   20   39 1
  41   20   40 1

#	End of record

