#	Name: ASD00310023
#	Creating user name:	WinNT
#	Creation time:	15. 06. 2019 18:33

#	Modifying user name:	WinNT
#	Modification time:	15. 06. 2019 18:33

#	Program:	/corina/corina34_cracker 3.40 0067  02.08.2006

@<TRIPOS>MOLECULE
ASD00310023
  42   45    0    0    0
SMALL
NO_CHARGES


@<TRIPOS>ATOM
   1 N1            -0.0162     1.3431     0.0061 N.pl3   
   2 C2             0.0019    -0.0039    -0.0179 C.2     
   3 C3             1.3059    -0.4488    -0.0409 C.2     
   4 C4             2.1534     0.7610    -0.0293 C.ar    
   5 C5             3.5287     0.9749    -0.0414 C.ar    
   6 C6             4.0213     2.2761    -0.0241 C.ar    
   7 C7             3.1344     3.3588     0.0053 C.ar    
   8 C8             1.7737     3.1470     0.0177 C.ar    
   9 C9             1.2675     1.8492     0.0002 C.ar    
  10 C10            1.7454    -1.7957    -0.0693 C.2     
  11 O11            0.9341    -2.6990    -0.0760 O.2     
  12 C12            5.4850     2.5159    -0.0363 C.ar    
  13 C13            6.0807     3.1508    -1.1246 C.ar    
  14 C14            7.4430     3.3716    -1.1303 C.ar    
  15 C15            8.2169     2.9642    -0.0586 C.ar    
  16 C16            7.6311     2.3332     1.0240 C.ar    
  17 C17            6.2689     2.1123     1.0431 C.ar    
  18 C18            9.7040     3.2083    -0.0708 C.3     
  19 C19           10.0850     4.6786    -0.3115 C.3     
  20 C20           11.1858     4.4842     0.7445 C.3     
  21 C21           10.3145     3.3616     1.3323 C.3     
  22 C22           10.4601     2.2247    -0.9662 C.3     
  23 O23           10.0663     0.8890    -0.6455 O.3     
  24 F24            3.6168     4.6206     0.0220 F       
  25 F25            4.3798    -0.0740    -0.0693 F       
  26 H26           -0.8217     1.8834     0.0213 H       
  27 H27           -0.8723    -0.6381    -0.0185 H       
  28 H28            1.0975     3.9888     0.0408 H       
  29 H29            2.8020    -2.0188    -0.0851 H       
  30 H30            5.4775     3.4690    -1.9620 H       
  31 H31            7.9058     3.8632    -1.9733 H       
  32 H32            8.2401     2.0169     1.8579 H       
  33 H33            5.8119     1.6235     1.8908 H       
  34 H34           10.4697     4.8716    -1.3129 H       
  35 H35            9.3113     5.3850    -0.0107 H       
  36 H36           12.1307     4.1323     0.3306 H       
  37 H37           11.3066     5.3378     1.4116 H       
  38 H38            9.6036     3.7080     2.0824 H       
  39 H39           10.8846     2.4915     1.6578 H       
  40 H40           10.2272     2.4313    -2.0107 H       
  41 H41           11.5322     2.3362    -0.8041 H       
  42 H42           10.5070     0.2110    -1.1757 H       
@<TRIPOS>BOND
   1    1    2 1
   2    1    9 1
   3    1   26 1
   4    2    3 2
   5    2   27 1
   6    3    4 1
   7    3   10 1
   8    4    5 ar
   9    4    9 ar
  10    5    6 ar
  11    5   25 1
  12    6    7 ar
  13    6   12 1
  14    7    8 ar
  15    7   24 1
  16    8    9 ar
  17    8   28 1
  18   10   11 2
  19   10   29 1
  20   12   13 ar
  21   12   17 ar
  22   13   14 ar
  23   13   30 1
  24   14   15 ar
  25   14   31 1
  26   15   16 ar
  27   15   18 1
  28   16   17 ar
  29   16   32 1
  30   17   33 1
  31   18   19 1
  32   18   21 1
  33   18   22 1
  34   19   20 1
  35   19   34 1
  36   19   35 1
  37   20   21 1
  38   20   36 1
  39   20   37 1
  40   21   38 1
  41   21   39 1
  42   22   23 1
  43   22   40 1
  44   22   41 1
  45   23   42 1

#	End of record

