#	Name: ASD03082274
#	Creating user name:	WinNT
#	Creation time:	15. 06. 2019 20:27

#	Modifying user name:	WinNT
#	Modification time:	15. 06. 2019 20:27

#	Program:	/corina/corina34_cracker 3.40 0067  02.08.2006

@<TRIPOS>MOLECULE
ASD03082274
  57   60    0    0    0
SMALL
NO_CHARGES


@<TRIPOS>ATOM
   1 N1             0.1721     1.4490     0.2463 N.am    
   2 N2             0.0646     0.0862     0.5680 N.2     
   3 C3             1.1669    -0.2485     1.1959 C.2     
   4 N4             1.9634     0.8200     1.2902 N.2     
   5 C5             1.3845     1.8587     0.7236 C.2     
   6 N6             1.4606    -1.5194     1.6880 N.pl3   
   7 C7             0.4912    -2.5252     1.6487 C.ar    
   8 C8             0.8746    -3.8583     1.5895 C.ar    
   9 C9            -0.0897    -4.8527     1.5505 C.ar    
  10 C10           -1.4358    -4.5143     1.5707 C.ar    
  11 C11           -1.8157    -3.1870     1.6292 C.ar    
  12 C12           -0.8575    -2.1928     1.6744 C.ar    
  13 O13            0.2823    -6.1585     1.4921 O.3     
  14 C14            1.9457     3.2214     0.6221 C.ar    
  15 C15           -0.7362     2.2003    -0.4073 C.2     
  16 C16            3.3056     3.4018     0.3649 C.ar    
  17 C17            3.8305     4.6791     0.2699 C.ar    
  18 C18            3.0013     5.7861     0.4263 C.ar    
  19 C19            1.6439     5.6027     0.6850 C.ar    
  20 C20            1.1168     4.3344     0.7774 C.ar    
  21 N21           -1.8602     1.6325    -0.8874 N.am    
  22 C22           -2.8475     2.4491    -1.5979 C.3     
  23 O23           -0.5416     3.3895    -0.5636 O.2     
  24 C24           -2.4505     2.5623    -3.0711 C.3     
  25 C25           -4.2252     1.7925    -1.4899 C.3     
  26 O26            5.1634     4.8205     0.0292 O.3     
  27 C27            5.6083     6.1172    -0.3823 C.3     
  28 C28            4.9402     7.1557     0.5281 C.3     
  29 N29            3.4883     7.0902     0.3262 N.3     
  30 C30            2.7867     7.9870     1.2544 C.3     
  31 C31           -0.7648    -7.1302     1.4545 C.3     
  32 F32           -1.5604    -6.9150     0.3240 F       
  33 F33           -0.2089    -8.4127     1.3963 F       
  34 F34           -1.5502    -7.0142     2.6064 F       
  35 H35            2.3379    -1.7055     2.0577 H       
  36 H36            1.9224    -4.1198     1.5734 H       
  37 H37           -2.1872    -5.2894     1.5404 H       
  38 H38           -2.8637    -2.9266     1.6445 H       
  39 H39           -1.1571    -1.1564     1.7250 H       
  40 H40            3.9493     2.5436     0.2403 H       
  41 H41            1.0009     6.4613     0.8100 H       
  42 H42            0.0641     4.2002     0.9779 H       
  43 H43           -2.0156     0.6832    -0.7626 H       
  44 H44           -2.8834     3.4439    -1.1538 H       
  45 H45           -2.4147     1.5675    -3.5152 H       
  46 H46           -3.1851     3.1699    -3.5997 H       
  47 H47           -1.4690     3.0302    -3.1480 H       
  48 H48           -4.5080     1.7118    -0.4403 H       
  49 H49           -4.9597     2.4001    -2.0184 H       
  50 H50           -4.1893     0.7977    -1.9340 H       
  51 H51            6.6919     6.1836    -0.2843 H       
  52 H52            5.3195     6.2946    -1.4182 H       
  53 H53            5.1752     6.9348     1.5693 H       
  54 H54            5.3006     8.1522     0.2725 H       
  55 H55            3.1120     9.0132     1.0838 H       
  56 H56            1.7120     7.9140     1.0876 H       
  57 H57            3.0155     7.6991     2.2805 H       
@<TRIPOS>BOND
   1    1    2 1
   2    1    5 1
   3    1   15 am
   4    2    3 2
   5    3    4 1
   6    3    6 1
   7    4    5 2
   8    5   14 1
   9    6    7 1
  10    6   35 1
  11    7    8 ar
  12    7   12 ar
  13    8    9 ar
  14    8   36 1
  15    9   10 ar
  16    9   13 1
  17   10   11 ar
  18   10   37 1
  19   11   12 ar
  20   11   38 1
  21   12   39 1
  22   13   31 1
  23   14   16 ar
  24   14   20 ar
  25   15   21 am
  26   15   23 2
  27   16   17 ar
  28   16   40 1
  29   17   18 ar
  30   17   26 1
  31   18   19 ar
  32   18   29 1
  33   19   20 ar
  34   19   41 1
  35   20   42 1
  36   21   22 1
  37   21   43 1
  38   22   24 1
  39   22   25 1
  40   22   44 1
  41   24   45 1
  42   24   46 1
  43   24   47 1
  44   25   48 1
  45   25   49 1
  46   25   50 1
  47   26   27 1
  48   27   28 1
  49   27   51 1
  50   27   52 1
  51   28   29 1
  52   28   53 1
  53   28   54 1
  54   29   30 1
  55   30   55 1
  56   30   56 1
  57   30   57 1
  58   31   32 1
  59   31   33 1
  60   31   34 1

#	End of record

