#	Name: ASD05170036
#	Creating user name:	WinNT
#	Creation time:	15. 06. 2019 20:57

#	Modifying user name:	WinNT
#	Modification time:	15. 06. 2019 20:57

#	Program:	/corina/corina34_cracker 3.40 0067  02.08.2006

@<TRIPOS>MOLECULE
ASD05170036
  46   48    0    0    0
SMALL
NO_CHARGES


@<TRIPOS>ATOM
   1 C1             0.0702     1.3628     0.0630 C.ar    
   2 C2             0.1022    -0.0145     0.0647 C.ar    
   3 C3             1.3199    -0.6833     0.0612 C.ar    
   4 C4             2.5107     0.0323     0.0561 C.ar    
   5 C5             2.4892     1.4098     0.0544 C.ar    
   6 C6             1.2661     2.0876     0.0574 C.ar    
   7 O7             1.3463    -2.0413     0.0634 O.3     
   8 C8             2.6320    -2.6652     0.0596 C.3     
   9 C9             1.2382     3.5193     0.0551 C.1     
  10 C10            1.2154     4.6931     0.0533 C.1     
  11 C11            1.1876     6.1248     0.0510 C.ar    
  12 C12           -0.0598     8.1790     0.0581 C.ar    
  13 C13           -0.0369     6.8002     0.0603 C.ar    
  14 C14            2.3864     6.8482     0.0453 C.ar    
  15 C15            2.3644     8.2123     0.0432 C.ar    
  16 C16            1.1438     8.8956     0.0471 C.ar    
  17 F17           -1.2397     8.8368     0.0665 F       
  18 C18            1.1241    10.3700     0.0447 C.2     
  19 O19            0.5145    10.9714     0.9082 O.2     
  20 N20            1.7818    11.0512    -0.9144 N.am    
  21 C21            2.5932    10.3424    -1.9133 C.3     
  22 C22            1.6960    12.5163    -0.9846 C.3     
  23 C23            1.2549    12.9173    -2.3958 C.3     
  24 C24            2.2059    12.2935    -3.4198 C.3     
  25 C25            2.1400    10.7726    -3.3120 C.3     
  26 O26            3.0008    10.1899    -4.2926 O.3     
  27 H27           -0.8769     1.8818     0.0616 H       
  28 H28           -0.8208    -0.5752     0.0691 H       
  29 H29            3.4549    -0.4921     0.0538 H       
  30 H30            3.4154     1.9653     0.0510 H       
  31 H31            3.1865    -2.3601     0.9470 H       
  32 H32            2.5102    -3.7484     0.0618 H       
  33 H33            3.1798    -2.3630    -0.8329 H       
  34 H34           -0.9622     6.2434     0.0687 H       
  35 H35            3.3312     6.3249     0.0430 H       
  36 H36            3.2916     8.7660     0.0388 H       
  37 H37            3.6446    10.5951    -1.7760 H       
  38 H38            2.4558     9.2671    -1.7994 H       
  39 H39            0.9668    12.8748    -0.2581 H       
  40 H40            2.6726    12.9502    -0.7699 H       
  41 H41            0.2411    12.5593    -2.5756 H       
  42 H42            1.2799    14.0029    -2.4901 H       
  43 H43            1.9089    12.5974    -4.4235 H       
  44 H44            3.2232    12.6325    -3.2241 H       
  45 H45            1.1163    10.4389    -3.4815 H       
  46 H46            3.0120     9.2230    -4.2814 H       
@<TRIPOS>BOND
   1    1    2 ar
   2    1    6 ar
   3    1   27 1
   4    2    3 ar
   5    2   28 1
   6    3    4 ar
   7    3    7 1
   8    4    5 ar
   9    4   29 1
  10    5    6 ar
  11    5   30 1
  12    6    9 1
  13    7    8 1
  14    8   31 1
  15    8   32 1
  16    8   33 1
  17    9   10 3
  18   10   11 1
  19   11   14 ar
  20   11   13 ar
  21   12   13 ar
  22   12   16 ar
  23   12   17 1
  24   13   34 1
  25   14   15 ar
  26   14   35 1
  27   15   16 ar
  28   15   36 1
  29   16   18 1
  30   18   19 2
  31   18   20 am
  32   20   22 1
  33   20   21 1
  34   21   25 1
  35   21   37 1
  36   21   38 1
  37   22   23 1
  38   22   39 1
  39   22   40 1
  40   23   24 1
  41   23   41 1
  42   23   42 1
  43   24   25 1
  44   24   43 1
  45   24   44 1
  46   25   26 1
  47   25   45 1
  48   26   46 1

#	End of record

