#	Name: ASD00069389
#	Creating user name:	WinNT
#	Creation time:	15. 06. 2019 18:29

#	Modifying user name:	WinNT
#	Modification time:	15. 06. 2019 18:29

#	Program:	/corina/corina34_cracker 3.40 0067  02.08.2006

@<TRIPOS>MOLECULE
ASD00069389
  51   53    0    0    0
SMALL
NO_CHARGES


@<TRIPOS>ATOM
   1 C1            -0.4040     1.5284    -0.2561 C.ar    
   2 C2            -0.3192     0.1356    -0.2581 C.ar    
   3 N3             0.8649    -0.4389    -0.4481 N.ar    
   4 C4             1.9503     0.2970    -0.6333 C.ar    
   5 N5             1.9007     1.6210    -0.6365 N.ar    
   6 C6             0.7534     2.2600    -0.4531 C.ar    
   7 Cl7            0.7043     3.9953    -0.4606 Cl      
   8 N8            -1.4524    -0.6377    -0.0643 N.3     
   9 C9            -1.1249    -2.0747    -0.1059 C.3     
  10 C10           -2.0832    -0.3362     1.2384 C.3     
  11 C11           -2.6778    -1.6859     1.7118 C.3     
  12 C12           -1.5996    -2.6906     1.2270 C.3     
  13 C13           -2.2040    -4.0522     0.9995 C.2     
  14 O14           -2.5466    -4.3850    -0.1153 O.2     
  15 N15           -2.3639    -4.9001     2.0349 N.am    
  16 C16           -3.0550    -6.1765     1.8364 C.3     
  17 C17           -2.5874    -7.1794     2.8931 C.3     
  18 C18           -3.3092    -8.5124     2.6858 C.3     
  19 C19           -4.8188    -8.3006     2.8164 C.3     
  20 C20           -5.2864    -7.2978     1.7597 C.3     
  21 C21           -4.5646    -5.9648     1.9670 C.3     
  22 O22           -0.5213    -2.7647     2.1618 O.3     
  23 C23            0.4890    -3.7120     1.8097 C.3     
  24 N24            3.1671    -0.3329    -0.8278 N.pl3   
  25 C25            4.3794     0.4634    -1.0343 C.3     
  26 H26           -1.3523     2.0238    -0.1088 H       
  27 H27           -1.6433    -2.5492    -0.9391 H       
  28 H28           -0.0482    -2.2068    -0.2127 H       
  29 H29           -1.3365     0.0194     1.9483 H       
  30 H30           -2.8736     0.4042     1.1149 H       
  31 H31           -2.7746    -1.7107     2.7972 H       
  32 H32           -3.6367    -1.8802     1.2313 H       
  33 H33           -2.0213    -4.6652     2.9114 H       
  34 H34           -2.8269    -6.5626     0.8429 H       
  35 H35           -1.5119    -7.3302     2.8000 H       
  36 H36           -2.8155    -6.7933     3.8865 H       
  37 H37           -3.0810    -8.8985     1.6923 H       
  38 H38           -2.9760    -9.2268     3.4386 H       
  39 H39           -5.3330    -9.2503     2.6687 H       
  40 H40           -5.0469    -7.9146     3.8099 H       
  41 H41           -5.0583    -7.6839     0.7663 H       
  42 H42           -6.3619    -7.1469     1.8528 H       
  43 H43           -4.7928    -5.5787     2.9605 H       
  44 H44           -4.8978    -5.2503     1.2142 H       
  45 H45            1.2277    -3.7694     2.6092 H       
  46 H46            0.0338    -4.6917     1.6647 H       
  47 H47            0.9762    -3.3975     0.8868 H       
  48 H48            3.2174    -1.3016    -0.8273 H       
  49 H49            4.2594     1.0843    -1.9221 H       
  50 H50            4.5482     1.1000    -0.1658 H       
  51 H51            5.2324    -0.2017    -1.1686 H       
@<TRIPOS>BOND
   1    1    2 ar
   2    1    6 ar
   3    1   26 1
   4    2    3 ar
   5    2    8 1
   6    3    4 ar
   7    4    5 ar
   8    4   24 1
   9    5    6 ar
  10    6    7 1
  11    8    9 1
  12    8   10 1
  13    9   12 1
  14    9   27 1
  15    9   28 1
  16   10   11 1
  17   10   29 1
  18   10   30 1
  19   11   12 1
  20   11   31 1
  21   11   32 1
  22   12   13 1
  23   12   22 1
  24   13   14 2
  25   13   15 am
  26   15   16 1
  27   15   33 1
  28   16   17 1
  29   16   21 1
  30   16   34 1
  31   17   18 1
  32   17   35 1
  33   17   36 1
  34   18   19 1
  35   18   37 1
  36   18   38 1
  37   19   20 1
  38   19   39 1
  39   19   40 1
  40   20   21 1
  41   20   41 1
  42   20   42 1
  43   21   43 1
  44   21   44 1
  45   22   23 1
  46   23   45 1
  47   23   46 1
  48   23   47 1
  49   24   25 1
  50   24   48 1
  51   25   49 1
  52   25   50 1
  53   25   51 1

#	End of record

