#	Name: ASD01418034
#	Creating user name:	WinNT
#	Creation time:	15. 06. 2019 19:20

#	Modifying user name:	WinNT
#	Modification time:	15. 06. 2019 19:20

#	Program:	/corina/corina34_cracker 3.40 0067  02.08.2006

@<TRIPOS>MOLECULE
ASD01418034
  68   72    0    0    0
SMALL
NO_CHARGES


@<TRIPOS>ATOM
   1 C1            -0.0178     1.4638     0.0101 C.3     
   2 N2             0.0021    -0.0041     0.0020 N.pl3   
   3 C3             0.6019    -0.7897     0.9591 C.2     
   4 C4             1.2672    -0.2897     2.1781 C.ar    
   5 C5             2.0017     0.9078     2.1878 C.ar    
   6 C6             2.2592     1.6930     0.9888 C.2     
   7 C7             1.4032     1.9590    -0.0008 C.2     
   8 C8             1.1460    -1.0384     3.3529 C.ar    
   9 C9             1.7099    -0.5882     4.5268 C.ar    
  10 C10            2.3985     0.6158     4.5524 C.ar    
  11 C11            2.5455     1.3594     3.4030 C.ar    
  12 C12           -0.5480    -0.8182    -0.9506 C.ar    
  13 C13           -0.2575    -2.1592    -0.5812 C.ar    
  14 C14            0.4681    -2.1041     0.6174 C.2     
  15 C15           -1.2691    -0.5363    -2.1026 C.ar    
  16 C16           -1.6864    -1.6307    -2.8708 C.ar    
  17 C17           -1.3928    -2.9482    -2.5001 C.ar    
  18 C18           -0.6842    -3.2422    -1.3674 C.ar    
  19 C19            1.0038    -3.2830     1.3884 C.3     
  20 C20           -0.1561    -4.1901     1.8041 C.3     
  21 C21            1.9759    -4.0697     0.5069 C.3     
  22 C22            2.5197    -5.2666     1.2897 C.3     
  23 C23            1.3598    -6.1737     1.7054 C.3     
  24 C24            0.3877    -5.3869     2.5868 C.3     
  25 C25           -2.4568    -1.3882    -4.1042 C.2     
  26 O26           -2.7214    -0.2513    -4.4417 O.2     
  27 O27           -2.8676    -2.4275    -4.8574 O.3     
  28 C28            1.8623     2.7590    -1.1341 C.2     
  29 O29            3.0067     3.1701    -1.1645 O.2     
  30 O30            1.0168     3.0418    -2.1469 O.3     
  31 C31           -3.6215    -2.1141    -6.0581 C.3     
  32 C32           -2.7671    -1.2470    -6.9850 C.3     
  33 C33           -3.9981    -3.4112    -6.7769 C.3     
  34 C34           -4.8936    -1.3539    -5.6777 C.3     
  35 C35            1.5328     3.8286    -3.2223 C.3     
  36 Cl36           3.0792     1.1886     6.0431 Cl      
  37 H37           -0.5396     1.8281    -0.8749 H       
  38 H38           -0.5226     1.8185     0.9087 H       
  39 H39            3.2521     2.1061     0.8892 H       
  40 H40            0.6072    -1.9743     3.3402 H       
  41 H41            1.6153    -1.1740     5.4292 H       
  42 H42            3.0820     2.2962     3.4352 H       
  43 H43           -1.4979     0.4786    -2.3926 H       
  44 H44           -1.7362    -3.7574    -3.1275 H       
  45 H45           -0.4624    -4.2621    -1.0901 H       
  46 H46            1.5249    -2.9290     2.2778 H       
  47 H47           -0.8487    -3.6296     2.4320 H       
  48 H48           -0.6773    -4.5441     0.9146 H       
  49 H49            1.4547    -4.4238    -0.3825 H       
  50 H50            2.8022    -3.4235     0.2108 H       
  51 H51            3.2122    -5.8271     0.6617 H       
  52 H52            3.0408    -4.9126     2.1791 H       
  53 H53            0.8386    -6.5277     0.8159 H       
  54 H54            1.7472    -7.0263     2.2630 H       
  55 H55            0.9089    -5.0329     3.4763 H       
  56 H56           -0.4386    -6.0332     2.8830 H       
  57 H57           -1.8608    -1.7886    -7.2560 H       
  58 H58           -3.3330    -1.0118    -7.8864 H       
  59 H59           -2.4987    -0.3230    -6.4730 H       
  60 H60           -4.6068    -4.0289    -6.1166 H       
  61 H61           -4.5641    -3.1760    -7.6783 H       
  62 H62           -3.0919    -3.9528    -7.0479 H       
  63 H63           -4.6252    -0.4299    -5.1657 H       
  64 H64           -5.4595    -1.1187    -6.5791 H       
  65 H65           -5.5023    -1.9716    -5.0174 H       
  66 H66            1.8647     4.7938    -2.8397 H       
  67 H67            2.3753     3.3102    -3.6802 H       
  68 H68            0.7522     3.9820    -3.9674 H       
@<TRIPOS>BOND
   1    1    2 1
   2    1    7 1
   3    1   37 1
   4    1   38 1
   5    2    3 1
   6    2   12 1
   7    3    4 1
   8    3   14 2
   9    4    5 ar
  10    4    8 ar
  11    5    6 1
  12    5   11 ar
  13    6    7 2
  14    6   39 1
  15    7   28 1
  16    8    9 ar
  17    8   40 1
  18    9   10 ar
  19    9   41 1
  20   10   11 ar
  21   10   36 1
  22   11   42 1
  23   12   13 ar
  24   12   15 ar
  25   13   14 1
  26   13   18 ar
  27   14   19 1
  28   15   16 ar
  29   15   43 1
  30   16   17 ar
  31   16   25 1
  32   17   18 ar
  33   17   44 1
  34   18   45 1
  35   19   20 1
  36   19   21 1
  37   19   46 1
  38   20   24 1
  39   20   47 1
  40   20   48 1
  41   21   22 1
  42   21   49 1
  43   21   50 1
  44   22   23 1
  45   22   51 1
  46   22   52 1
  47   23   24 1
  48   23   53 1
  49   23   54 1
  50   24   55 1
  51   24   56 1
  52   25   26 2
  53   25   27 1
  54   27   31 1
  55   28   29 2
  56   28   30 1
  57   30   35 1
  58   31   32 1
  59   31   33 1
  60   31   34 1
  61   32   57 1
  62   32   58 1
  63   32   59 1
  64   33   60 1
  65   33   61 1
  66   33   62 1
  67   34   63 1
  68   34   64 1
  69   34   65 1
  70   35   66 1
  71   35   67 1
  72   35   68 1

#	End of record

