#	Name: ASD08830036
#	Creating user name:	WinNT
#	Creation time:	15. 06. 2019 21:19

#	Modifying user name:	WinNT
#	Modification time:	15. 06. 2019 21:19

#	Program:	/corina/corina34_cracker 3.40 0067  02.08.2006

@<TRIPOS>MOLECULE
ASD08830036
  44   46    0    0    0
SMALL
NO_CHARGES


@<TRIPOS>ATOM
   1 C1            -0.0221     1.3760     0.0421 C.ar    
   2 C2             0.0029    -0.0423     0.0293 C.ar    
   3 C3             1.1880     2.0953     0.0332 C.ar    
   4 C4             2.3717     1.4336     0.0121 C.ar    
   5 C5             2.4113     0.0251    -0.0013 C.ar    
   6 C6             1.2349    -0.7117     0.0075 C.ar    
   7 C7             3.7077    -0.6689    -0.0251 C.2     
   8 C8             4.9879     0.1261    -0.0352 C.3     
   9 C9             6.1819    -0.8303    -0.0601 C.3     
  10 N10            7.4298    -0.0554    -0.0699 N.3     
  11 O11            3.7465    -1.8809    -0.0367 O.2     
  12 C12            8.5926    -0.9271     0.1446 C.3     
  13 C13           -1.2587     2.0409     0.0576 C.ar    
  14 C14           -1.2104    -0.7536     0.0384 C.ar    
  15 C15           -2.3897    -0.0739     0.0592 C.ar    
  16 C16           -2.4137     1.3191     0.0602 C.ar    
  17 C17            9.8779    -0.1163    -0.0522 C.3     
  18 N18            9.8204     1.0688     0.8169 N.am    
  19 C19            8.6210     1.9180     0.7573 C.3     
  20 C20            7.3852     1.0271     0.9222 C.3     
  21 C21           10.8400     1.3689     1.6457 C.2     
  22 O22           11.7810     0.6065     1.7528 O.2     
  23 N23           10.8164     2.5142     2.3558 N.am    
  24 H24            1.1738     3.1752     0.0429 H       
  25 H25            3.2954     1.9931     0.0051 H       
  26 H26            1.2682    -1.7912    -0.0028 H       
  27 H27            5.0135     0.7623    -0.9198 H       
  28 H28            5.0376     0.7461     0.8599 H       
  29 H29            6.1563    -1.4666     0.8246 H       
  30 H30            6.1322    -1.4503    -0.9551 H       
  31 H31            8.5659    -1.3261     1.1586 H       
  32 H32            8.5679    -1.7491    -0.5709 H       
  33 H33           -1.2938     3.1203     0.0678 H       
  34 H34           -1.2066    -1.8336     0.0285 H       
  35 H35           -3.3201    -0.6222     0.0658 H       
  36 H36           -3.3626     1.8345     0.0773 H       
  37 H37           10.7404    -0.7262     0.2169 H       
  38 H38            9.9577     0.1966    -1.0933 H       
  39 H39            8.6525     2.6531     1.5614 H       
  40 H40            8.5800     2.4264    -0.2060 H       
  41 H41            6.4848     1.6225     0.7706 H       
  42 H42            7.3753     0.6009     1.9254 H       
  43 H43           10.1038     3.1572     2.2156 H       
  44 H44           11.5121     2.6955     3.0070 H       
@<TRIPOS>BOND
   1    1    2 ar
   2    1    3 ar
   3    1   13 ar
   4    2   14 ar
   5    2    6 ar
   6    3    4 ar
   7    3   24 1
   8    4    5 ar
   9    4   25 1
  10    5    6 ar
  11    5    7 1
  12    6   26 1
  13    7    8 1
  14    7   11 2
  15    8    9 1
  16    8   27 1
  17    8   28 1
  18    9   10 1
  19    9   29 1
  20    9   30 1
  21   10   12 1
  22   10   20 1
  23   12   17 1
  24   12   31 1
  25   12   32 1
  26   13   16 ar
  27   13   33 1
  28   14   15 ar
  29   14   34 1
  30   15   16 ar
  31   15   35 1
  32   16   36 1
  33   17   18 1
  34   17   37 1
  35   17   38 1
  36   18   19 1
  37   18   21 am
  38   19   20 1
  39   19   39 1
  40   19   40 1
  41   20   41 1
  42   20   42 1
  43   21   22 2
  44   21   23 am
  45   23   43 1
  46   23   44 1

#	End of record

