#	Name: ASD01022016
#	Creating user name:	WinNT
#	Creation time:	15. 06. 2019 18:56

#	Modifying user name:	WinNT
#	Modification time:	15. 06. 2019 18:56

#	Program:	/corina/corina34_cracker 3.40 0067  02.08.2006

@<TRIPOS>MOLECULE
ASD01022016
  39   43    0    0    0
SMALL
NO_CHARGES


@<TRIPOS>ATOM
   1 C1            -0.0169     1.3944     0.0097 C.ar    
   2 C2             0.0021    -0.0041     0.0020 C.ar    
   3 C3             1.2056    -0.6914    -0.0128 C.ar    
   4 C4             2.4016     0.0088    -0.0204 C.ar    
   5 C5             2.3827     1.4249    -0.0131 C.ar    
   6 C6             1.1435     2.1019     0.0024 C.ar    
   7 O7             3.5754    -0.6620    -0.0344 O.3     
   8 C8             4.7312     0.0349    -0.0413 C.2     
   9 C9             4.6846     1.5042    -0.0340 C.2     
  10 N10            3.5196     2.1249    -0.0206 N.2     
  11 C11            5.9403    -0.5945    -0.0544 C.2     
  12 C12            7.1262     0.1529    -0.0605 C.2     
  13 C13            7.1102     1.5676    -0.0534 C.2     
  14 C14            5.9427     2.2500    -0.0417 C.2     
  15 O15            8.2003    -0.4318    -0.0718 O.2     
  16 As16           6.0223    -2.5828    -0.0644 Du      
  17 As17           1.2162    -2.6813    -0.0223 Du      
  18 S18            1.1997    -3.4306    -2.1739 S.3     
  19 C19            2.9031    -4.1235    -2.1497 C.3     
  20 C20            3.3549    -4.6892    -0.8021 C.3     
  21 S21            3.2921    -3.4336     0.5539 S.3     
  22 S22            8.1998    -3.2531    -0.0859 S.3     
  23 C23            8.1993    -3.9641     1.6102 C.3     
  24 C24            6.8728    -4.5831     2.0544 C.3     
  25 S25            5.4721    -3.3771     2.0028 S.3     
  26 O26           -1.1658    -0.6927     0.0095 O.3     
  27 H27           -0.9621     1.9168     0.0170 H       
  28 H28            1.1179     3.1815     0.0077 H       
  29 H29            8.0438     2.1104    -0.0577 H       
  30 H30            5.9395     3.3300    -0.0370 H       
  31 H31            2.9601    -4.9195    -2.8922 H       
  32 H32            3.5979    -3.3359    -2.4412 H       
  33 H33            2.7093    -5.5265    -0.5371 H       
  34 H34            4.3778    -5.0534    -0.8979 H       
  35 H35            8.9702    -4.7331     1.6599 H       
  36 H36            8.4614    -3.1736     2.3135 H       
  37 H37            6.6391    -5.4228     1.3998 H       
  38 H38            6.9809    -4.9542     3.0736 H       
  39 H39           -1.5130    -0.8877    -0.8717 H       
@<TRIPOS>BOND
   1    1    2 ar
   2    1    6 ar
   3    1   27 1
   4    2    3 ar
   5    2   26 1
   6    3    4 ar
   7    3   17 1
   8    4    5 ar
   9    4    7 1
  10    5    6 ar
  11    5   10 1
  12    6   28 1
  13    7    8 1
  14    8    9 1
  15    8   11 2
  16    9   10 2
  17    9   14 1
  18   11   12 1
  19   11   16 1
  20   12   13 1
  21   12   15 2
  22   13   14 2
  23   13   29 1
  24   14   30 1
  25   16   22 1
  26   16   25 1
  27   17   18 1
  28   17   21 1
  29   18   19 1
  30   19   20 1
  31   19   31 1
  32   19   32 1
  33   20   21 1
  34   20   33 1
  35   20   34 1
  36   22   23 1
  37   23   24 1
  38   23   35 1
  39   23   36 1
  40   24   25 1
  41   24   37 1
  42   24   38 1
  43   26   39 1

#	End of record

