#	Name: ASD03731811
#	Creating user name:	WinNT
#	Creation time:	15. 06. 2019 20:46

#	Modifying user name:	WinNT
#	Modification time:	15. 06. 2019 20:46

#	Program:	/corina/corina34_cracker 3.40 0067  02.08.2006

@<TRIPOS>MOLECULE
ASD03731811
  38   39    0    0    0
SMALL
NO_CHARGES


@<TRIPOS>ATOM
   1 C1             0.3754     1.0899     1.9866 C.2     
   2 C2             0.2912    -0.2851     1.4556 C.ar    
   3 C3             1.3730    -0.8346     0.7699 C.ar    
   4 C4             1.2884    -2.1322     0.2715 C.ar    
   5 C5             0.1135    -2.8774     0.4637 C.ar    
   6 C6            -0.9582    -2.3195     1.1485 C.ar    
   7 C7            -0.8722    -1.0383     1.6458 C.ar    
   8 O8             1.3883     1.7428     1.8257 O.2     
   9 N9            -0.6727     1.6234     2.6449 N.am    
  10 S10           -0.5784     3.1657     3.2405 S.o2    
  11 O11           -1.8308     3.3719     3.8794 O.2     
  12 O12            0.6337     3.1814     3.9820 O.2     
  13 C13           -0.4360     4.2125     1.7659 C.3     
  14 O14            0.0255    -4.1403    -0.0195 O.3     
  15 C15           -1.1661    -4.7852     0.0931 C.ar    
  16 C16           -2.1189    -4.6618    -0.9078 C.ar    
  17 C17           -3.3292    -5.3173    -0.7936 C.ar    
  18 C18           -3.5921    -6.0989     0.3218 C.ar    
  19 C19           -2.6398    -6.2219     1.3228 C.ar    
  20 C20           -1.4272    -5.5711     1.2061 C.ar    
  21 O21           -4.7837    -6.7442     0.4341 O.3     
  22 C22           -4.9868    -7.5317     1.6091 C.3     
  23 C23            2.3950    -2.7044    -0.4346 C.1     
  24 N24            3.2728    -3.1584    -0.9948 N.1     
  25 H25            2.2735    -0.2561     0.6252 H       
  26 H26           -1.8609    -2.8941     1.2950 H       
  27 H27           -1.7077    -0.6119     2.1811 H       
  28 H28           -1.4823     1.1039     2.7698 H       
  29 H29           -1.3140     4.0729     1.1351 H       
  30 H30           -0.3678     5.2577     2.0675 H       
  31 H31            0.4592     3.9358     1.2089 H       
  32 H32           -1.9143    -4.0530    -1.7761 H       
  33 H33           -4.0710    -5.2211    -1.5726 H       
  34 H34           -2.8447    -6.8302     2.1913 H       
  35 H35           -0.6840    -5.6705     1.9833 H       
  36 H36           -4.2259    -8.3105     1.6605 H       
  37 H37           -4.9145    -6.8945     2.4905 H       
  38 H38           -5.9747    -7.9907     1.5726 H       
@<TRIPOS>BOND
   1    1    2 1
   2    1    8 2
   3    1    9 am
   4    2    3 ar
   5    2    7 ar
   6    3    4 ar
   7    3   25 1
   8    4    5 ar
   9    4   23 1
  10    5    6 ar
  11    5   14 1
  12    6    7 ar
  13    6   26 1
  14    7   27 1
  15    9   10 am
  16    9   28 1
  17   10   11 2
  18   10   12 2
  19   10   13 1
  20   13   29 1
  21   13   30 1
  22   13   31 1
  23   14   15 1
  24   15   16 ar
  25   15   20 ar
  26   16   17 ar
  27   16   32 1
  28   17   18 ar
  29   17   33 1
  30   18   19 ar
  31   18   21 1
  32   19   20 ar
  33   19   34 1
  34   20   35 1
  35   21   22 1
  36   22   36 1
  37   22   37 1
  38   22   38 1
  39   23   24 3

#	End of record

