#	Name: ASD01001075
#	Creating user name:	WinNT
#	Creation time:	15. 06. 2019 18:55

#	Modifying user name:	WinNT
#	Modification time:	15. 06. 2019 18:55

#	Program:	/corina/corina34_cracker 3.40 0067  02.08.2006

@<TRIPOS>MOLECULE
ASD01001075
  36   38    0    0    0
SMALL
NO_CHARGES


@<TRIPOS>ATOM
   1 C1            -0.0166     1.3748     0.0096 C.ar    
   2 C2             0.0021    -0.0041     0.0020 C.ar    
   3 C3             1.1854     2.0866     0.0019 C.ar    
   4 C4             1.2090    -0.6831    -0.0127 C.ar    
   5 C5             2.3993     1.3956    -0.0134 C.ar    
   6 C6             1.1728     3.5613     0.0095 C.2     
   7 C7             2.4041     0.0166    -0.0199 C.ar    
   8 N8             0.1145     4.2954     0.0236 N.2     
   9 N9             0.3715     5.6649     0.0279 N.am    
  10 C10            1.8279     5.8756     0.0147 C.3     
  11 C11            2.4002     4.4443     0.0085 C.3     
  12 C12           -0.5613     6.6376     0.0415 C.2     
  13 C13            2.2442     6.6244    -1.2251 C.ar    
  14 C14            3.2375     7.5830    -1.1528 C.ar    
  15 C15            3.6193     8.2699    -2.2900 C.ar    
  16 C16            3.0082     7.9977    -3.4997 C.ar    
  17 C17            2.0155     7.0384    -3.5722 C.ar    
  18 C18            1.6367     6.3485    -2.4358 C.ar    
  19 C19           -2.0247     6.2781     0.0541 C.3     
  20 O20           -0.2229     7.8025     0.0437 O.2     
  21 Cl21           1.2238    -2.4191    -0.0216 Cl      
  22 H22           -0.9585     1.9033     0.0169 H       
  23 H23           -0.9265    -0.5556     0.0079 H       
  24 H24            3.3320     1.9401    -0.0190 H       
  25 H25            3.3420    -0.5189    -0.0306 H       
  26 H26            2.1465     6.4082     0.9108 H       
  27 H27            3.0042     4.2701     0.8990 H       
  28 H28            2.9878     4.2714    -0.8931 H       
  29 H29            3.7149     7.7957    -0.2076 H       
  30 H30            4.3948     9.0193    -2.2333 H       
  31 H31            3.3060     8.5348    -4.3881 H       
  32 H32            1.5379     6.8260    -4.5173 H       
  33 H33            0.8612     5.5990    -2.4924 H       
  34 H34           -2.2463     5.6882     0.9436 H       
  35 H35           -2.6227     7.1894     0.0642 H       
  36 H36           -2.2636     5.6965    -0.8363 H       
@<TRIPOS>BOND
   1    1    2 ar
   2    1    3 ar
   3    1   22 1
   4    2    4 ar
   5    2   23 1
   6    3    6 1
   7    3    5 ar
   8    4    7 ar
   9    4   21 1
  10    5    7 ar
  11    5   24 1
  12    6    8 2
  13    6   11 1
  14    7   25 1
  15    8    9 1
  16    9   10 1
  17    9   12 am
  18   10   11 1
  19   10   13 1
  20   10   26 1
  21   11   27 1
  22   11   28 1
  23   12   19 1
  24   12   20 2
  25   13   14 ar
  26   13   18 ar
  27   14   15 ar
  28   14   29 1
  29   15   16 ar
  30   15   30 1
  31   16   17 ar
  32   16   31 1
  33   17   18 ar
  34   17   32 1
  35   18   33 1
  36   19   34 1
  37   19   35 1
  38   19   36 1

#	End of record

