#	Name: ASD06710008
#	Creating user name:	WinNT
#	Creation time:	15. 06. 2019 21:08

#	Modifying user name:	WinNT
#	Modification time:	15. 06. 2019 21:08

#	Program:	/corina/corina34_cracker 3.40 0067  02.08.2006

@<TRIPOS>MOLECULE
ASD06710008
  41   43    0    0    0
SMALL
NO_CHARGES


@<TRIPOS>ATOM
   1 N1             0.0241     1.3249    -0.0874 N.ar    
   2 C2             0.0336     0.0037    -0.0778 C.ar    
   3 N3             1.1460    -0.6976    -0.0678 N.ar    
   4 C4             2.3319    -0.0912    -0.0669 C.ar    
   5 C5             2.3748     1.3168    -0.0769 C.ar    
   6 C6             1.1556     2.0212    -0.0874 C.ar    
   7 N7             3.6261    -0.5191    -0.0581 N.pl3   
   8 N8             4.4602     0.6060    -0.0626 N.2     
   9 C9             3.7366     1.6889    -0.0736 C.2     
  10 C10            4.2639     3.1006    -0.0815 C.3     
  11 N11            1.1365     3.4021    -0.0970 N.pl3   
  12 C12            4.0684    -1.9157    -0.0456 C.3     
  13 C13            3.5401    -2.6292    -1.2918 C.3     
  14 C14            5.5975    -1.9663    -0.0387 C.3     
  15 C15            3.5294    -2.6102     1.2066 C.3     
  16 C16            4.5160     3.5347    -1.5025 C.ar    
  17 C17            3.5124     4.1511    -2.2240 C.ar    
  18 C18            3.7453     4.5510    -3.5321 C.ar    
  19 C19            4.9860     4.3305    -4.1119 C.ar    
  20 C20            5.9866     3.7135    -3.3859 C.ar    
  21 C21            5.7537     3.3208    -2.0810 C.ar    
  22 O22            2.7593     5.1573    -4.2443 O.3     
  23 H23           -0.9102    -0.5213    -0.0778 H       
  24 H24            3.5311     3.7648     0.3767 H       
  25 H25            5.1958     3.1435     0.4822 H       
  26 H26            1.9646     3.8993    -0.0080 H       
  27 H27            0.2949     3.8749    -0.1928 H       
  28 H28            3.9241    -2.1344    -2.1839 H       
  29 H29            3.8692    -3.6683    -1.2825 H       
  30 H30            2.4507    -2.5931    -1.2967 H       
  31 H31            5.9739    -1.4581     0.8491 H       
  32 H32            5.9266    -3.0054    -0.0294 H       
  33 H33            5.9815    -1.4716    -0.9308 H       
  34 H34            2.4400    -2.5741     1.2017 H       
  35 H35            3.8585    -3.6493     1.2159 H       
  36 H36            3.9058    -2.1019     2.0944 H       
  37 H37            2.5471     4.3214    -1.7705 H       
  38 H38            5.1696     4.6405    -5.1300 H       
  39 H39            6.9528     3.5416    -3.8368 H       
  40 H40            6.5371     2.8386    -1.5151 H       
  41 H41            2.7491     6.1206    -4.1606 H       
@<TRIPOS>BOND
   1    1    2 ar
   2    1    6 ar
   3    2    3 ar
   4    2   23 1
   5    3    4 ar
   6    4    5 ar
   7    4    7 1
   8    5    6 ar
   9    5    9 1
  10    6   11 1
  11    7    8 1
  12    7   12 1
  13    8    9 2
  14    9   10 1
  15   10   16 1
  16   10   24 1
  17   10   25 1
  18   11   26 1
  19   11   27 1
  20   12   13 1
  21   12   14 1
  22   12   15 1
  23   13   28 1
  24   13   29 1
  25   13   30 1
  26   14   31 1
  27   14   32 1
  28   14   33 1
  29   15   34 1
  30   15   35 1
  31   15   36 1
  32   16   17 ar
  33   16   21 ar
  34   17   18 ar
  35   17   37 1
  36   18   19 ar
  37   18   22 1
  38   19   20 ar
  39   19   38 1
  40   20   21 ar
  41   20   39 1
  42   21   40 1
  43   22   41 1

#	End of record

