#	Name: ASD00311129
#	Creating user name:	WinNT
#	Creation time:	15. 06. 2019 18:34

#	Modifying user name:	WinNT
#	Modification time:	15. 06. 2019 18:34

#	Program:	/corina/corina34_cracker 3.40 0067  02.08.2006

@<TRIPOS>MOLECULE
ASD00311129
  36   39    0    0    0
SMALL
NO_CHARGES


@<TRIPOS>ATOM
   1 C1            -0.0167     1.3777     0.0096 C.2     
   2 C2             0.0021    -0.0041     0.0020 C.2     
   3 C3             1.2586    -0.6766    -0.0128 C.2     
   4 C4             2.4315     0.0673    -0.0193 C.2     
   5 C5             2.3576     1.4751    -0.0111 C.2     
   6 N6             1.1650     2.0903     0.0022 N.am    
   7 C7            -1.3434    -0.5752     0.0118 C.2     
   8 C8            -2.3230     0.3265     0.0260 C.2     
   9 S9            -1.6792     1.9564     0.0358 S.3     
  10 O10            3.3825     2.1371    -0.0163 O.2     
  11 C11            3.7476    -0.6121    -0.0343 C.ar    
  12 C12            4.5940    -0.4748    -1.1343 C.ar    
  13 C13            5.8188    -1.1102    -1.1423 C.ar    
  14 C14            6.2076    -1.8827    -0.0624 C.ar    
  15 C15            5.3724    -2.0227     1.0316 C.ar    
  16 C16            4.1478    -1.3872     1.0541 C.ar    
  17 O17            1.3084    -2.0292    -0.0201 O.3     
  18 C18           -1.5961    -2.0357     0.0056 C.ar    
  19 C19           -1.7274    -2.7190    -1.2054 C.ar    
  20 C20           -1.9623    -4.0804    -1.2047 C.ar    
  21 C21           -2.0680    -4.7663    -0.0056 C.ar    
  22 C22           -1.9388    -4.0919     1.1975 C.ar    
  23 C23           -1.6977    -2.7329     1.2080 C.ar    
  24 F24           -2.2983    -6.0975    -0.0096 F       
  25 F25           -1.6252    -2.0501    -2.3747 F       
  26 Cl26          -4.0151    -0.0614     0.0395 Cl      
  27 H27            1.1329     3.0598     0.0077 H       
  28 H28            4.2913     0.1274    -1.9782 H       
  29 H29            6.4751    -1.0047    -1.9935 H       
  30 H30            7.1669    -2.3787    -0.0736 H       
  31 H31            5.6813    -2.6273     1.8715 H       
  32 H32            3.4987    -1.4933     1.9107 H       
  33 H33            2.2057    -2.3896    -0.0301 H       
  34 H34           -2.0642    -4.6105    -2.1401 H       
  35 H35           -2.0227    -4.6314     2.1293 H       
  36 H36           -1.5925    -2.2097     2.1470 H       
@<TRIPOS>BOND
   1    1    2 2
   2    1    6 1
   3    1    9 1
   4    2    3 1
   5    2    7 1
   6    3    4 2
   7    3   17 1
   8    4    5 1
   9    4   11 1
  10    5    6 am
  11    5   10 2
  12    6   27 1
  13    7    8 2
  14    7   18 1
  15    8    9 1
  16    8   26 1
  17   11   12 ar
  18   11   16 ar
  19   12   13 ar
  20   12   28 1
  21   13   14 ar
  22   13   29 1
  23   14   15 ar
  24   14   30 1
  25   15   16 ar
  26   15   31 1
  27   16   32 1
  28   17   33 1
  29   18   19 ar
  30   18   23 ar
  31   19   20 ar
  32   19   25 1
  33   20   21 ar
  34   20   34 1
  35   21   22 ar
  36   21   24 1
  37   22   23 ar
  38   22   35 1
  39   23   36 1

#	End of record

