#	Name: ASD01882196
#	Creating user name:	WinNT
#	Creation time:	15. 06. 2019 19:44

#	Modifying user name:	WinNT
#	Modification time:	15. 06. 2019 19:44

#	Program:	/corina/corina34_cracker 3.40 0067  02.08.2006

@<TRIPOS>MOLECULE
ASD01882196
  26   27    0    0    0
SMALL
NO_CHARGES


@<TRIPOS>ATOM
   1 C1            -0.0183     1.4608     0.0140 C.2     
   2 C2             0.0013    -0.0038     0.0032 C.2     
   3 C3             1.2358    -0.6468    -0.0195 C.2     
   4 C4             2.4060     0.1199    -0.0312 C.2     
   5 C5             2.3552     1.4695    -0.0204 C.2     
   6 N6             1.1715     2.1416     0.0013 N.pl3   
   7 N7            -1.0054     2.3409     0.0400 N.2     
   8 C8            -0.5032     3.5743     0.0386 C.2     
   9 C9             0.8611     3.4857     0.0155 C.2     
  10 C10           -1.2179    -0.7547     0.0163 C.1     
  11 N11           -2.1851    -1.3505     0.0266 N.1     
  12 C12            1.8129     4.6059     0.0095 C.2     
  13 C13            1.3676     5.8569    -0.0774 C.2     
  14 C14            2.3322     7.0095     0.0327 C.3     
  15 C15            2.1950     7.9087    -1.1975 C.3     
  16 F16            0.8875     8.4004    -1.2723 F       
  17 F17            3.0906     8.9786    -1.0953 F       
  18 F18            2.4817     7.1691    -2.3500 F       
  19 Cl19           1.3222    -2.3806    -0.0325 Cl      
  20 H20            3.3655    -0.3755    -0.0488 H       
  21 H21            3.2780     2.0304    -0.0296 H       
  22 H22           -1.0763     4.4895     0.0566 H       
  23 H23            2.8736     4.4137     0.0756 H       
  24 H24            0.3148     6.0462    -0.2268 H       
  25 H25            2.1089     7.5857     0.9306 H       
  26 H26            3.3510     6.6263     0.0909 H       
@<TRIPOS>BOND
   1    1    2 1
   2    1    6 1
   3    1    7 2
   4    2    3 2
   5    2   10 1
   6    3    4 1
   7    3   19 1
   8    4    5 2
   9    4   20 1
  10    5    6 1
  11    5   21 1
  12    6    9 1
  13    7    8 1
  14    8    9 2
  15    8   22 1
  16    9   12 1
  17   10   11 3
  18   12   13 2
  19   12   23 1
  20   13   14 1
  21   13   24 1
  22   14   15 1
  23   14   25 1
  24   14   26 1
  25   15   16 1
  26   15   17 1
  27   15   18 1

#	End of record

