#	Name: ASD01911453
#	Creating user name:	WinNT
#	Creation time:	15. 06. 2019 19:57

#	Modifying user name:	WinNT
#	Modification time:	15. 06. 2019 19:57

#	Program:	/corina/corina34_cracker 3.40 0067  02.08.2006

@<TRIPOS>MOLECULE
ASD01911453
  29   30    0    0    0
SMALL
NO_CHARGES


@<TRIPOS>ATOM
   1 C1            -0.0269     1.5403    -0.0003 C.3     
   2 C2             0.0022    -0.0042     0.0018 C.3     
   3 N3             1.2906    -0.3707     0.6016 N.am    
   4 C4             1.4807     1.8840    -0.0101 C.3     
   5 C5             1.5927    -1.6354     1.1049 C.ar    
   6 C6             2.0542    -2.6263     0.2457 C.ar    
   7 C7             2.3507    -3.8768     0.7581 C.ar    
   8 C8             2.1747    -4.0941     2.1186 C.ar    
   9 C9             1.7124    -3.0634     2.9135 C.ar    
  10 N10            1.4427    -1.8797     2.3970 N.ar    
  11 I11            2.6052    -5.9655     2.9561 I       
  12 C12           -0.7181     2.0731    -1.2570 C.3     
  13 C13            2.1421     0.6694     0.6029 C.2     
  14 O14            3.2755     0.6387     1.0334 O.2     
  15 C15           -0.7027     2.0770     1.2631 C.3     
  16 O16           -1.0738    -0.5180     0.7894 O.3     
  17 H17           -0.0608    -0.3841    -1.0179 H       
  18 H18            1.8311     2.0347    -1.0312 H       
  19 H19            1.6739     2.7698     0.5951 H       
  20 H20            2.1791    -2.4228    -0.8075 H       
  21 H21            2.7106    -4.6661     0.1148 H       
  22 H22            1.5735    -3.2274     3.9718 H       
  23 H23           -1.7430     1.7039    -1.2921 H       
  24 H24           -0.7250     3.1629    -1.2335 H       
  25 H25           -0.1786     1.7322    -2.1406 H       
  26 H26           -0.1525     1.7387     2.1411 H       
  27 H27           -0.7099     3.1666     1.2363 H       
  28 H28           -1.7271     1.7079     1.3118 H       
  29 H29           -1.1580    -1.4809     0.7598 H       
@<TRIPOS>BOND
   1    1    2 1
   2    1    4 1
   3    1   12 1
   4    1   15 1
   5    2    3 1
   6    2   16 1
   7    2   17 1
   8    3    5 1
   9    3   13 am
  10    4   13 1
  11    4   18 1
  12    4   19 1
  13    5    6 ar
  14    5   10 ar
  15    6    7 ar
  16    6   20 1
  17    7    8 ar
  18    7   21 1
  19    8    9 ar
  20    8   11 1
  21    9   10 ar
  22    9   22 1
  23   12   23 1
  24   12   24 1
  25   12   25 1
  26   13   14 2
  27   15   26 1
  28   15   27 1
  29   15   28 1
  30   16   29 1

#	End of record

