#	Name: ASD01580012
#	Creating user name:	WinNT
#	Creation time:	15. 06. 2019 19:22

#	Modifying user name:	WinNT
#	Modification time:	15. 06. 2019 19:22

#	Program:	/corina/corina34_cracker 3.40 0067  02.08.2006

@<TRIPOS>MOLECULE
ASD01580012
  20   20    0    0    0
SMALL
NO_CHARGES


@<TRIPOS>ATOM
   1 C1            -0.0184     1.5028     0.0103 C.2     
   2 N2            -1.1181    -0.5134     0.8044 N.3     
   3 C3             0.0021    -0.0041     0.0020 C.3     
   4 C4            -0.1304    -0.5080    -1.4365 C.3     
   5 O5             1.0197     2.1211     0.0037 O.2     
   6 O6            -1.1898     2.1580     0.0194 O.3     
   7 C7             1.3021    -0.4920     0.5875 C.2     
   8 C8             1.5144    -0.7526     1.8783 C.2     
   9 C9             2.7915    -1.1915     2.1825 C.2     
  10 C10            3.6164    -1.2873     1.1386 C.2     
  11 S11            2.7695    -0.8123    -0.3279 S.3     
  12 H12           -1.1647    -1.5204     0.7621 H       
  13 H13           -1.0533    -0.1942     1.7594 H       
  14 H14            0.7007    -0.1301    -2.0319 H       
  15 H15           -0.1157    -1.5979    -1.4425 H       
  16 H16           -1.0708    -0.1551    -1.8600 H       
  17 H17           -1.1523     3.1243     0.0245 H       
  18 H18            0.7480    -0.6301     2.6293 H       
  19 H19            3.0970    -1.4373     3.1888 H       
  20 H20            4.6457    -1.6106     1.1862 H       
@<TRIPOS>BOND
   1    1    3 1
   2    1    5 2
   3    1    6 1
   4    2    3 1
   5    2   12 1
   6    2   13 1
   7    3    4 1
   8    3    7 1
   9    4   14 1
  10    4   15 1
  11    4   16 1
  12    6   17 1
  13    7    8 2
  14    7   11 1
  15    8    9 1
  16    8   18 1
  17    9   10 2
  18    9   19 1
  19   10   11 1
  20   10   20 1

#	End of record

