#	Name: ASD04880374
#	Creating user name:	WinNT
#	Creation time:	15. 06. 2019 20:53

#	Modifying user name:	WinNT
#	Modification time:	15. 06. 2019 20:53

#	Program:	/corina/corina34_cracker 3.40 0067  02.08.2006

@<TRIPOS>MOLECULE
ASD04880374
  45   48    0    0    0
SMALL
NO_CHARGES


@<TRIPOS>ATOM
   1 C1             0.1060     1.5978     0.0828 C.ar    
   2 C2             0.0809     0.2220     0.1696 C.ar    
   3 C3             1.2755    -0.5011     0.1419 C.ar    
   4 C4             2.5019     0.1873     0.0249 C.ar    
   5 C5             2.5025     1.5808    -0.0615 C.ar    
   6 C6             1.3108     2.2739    -0.0321 C.ar    
   7 C7             3.7701    -0.5578    -0.0055 C.2     
   8 N8             4.5764    -0.6145    -1.0107 N.2     
   9 N9             5.7128    -1.3885    -0.7850 N.am    
  10 C10            5.6555    -1.9315     0.5814 C.3     
  11 C11            4.3328    -1.3698     1.1392 C.3     
  12 C12            6.7029    -1.6048    -1.6735 C.2     
  13 O13            7.6986    -2.2163    -1.3373 O.2     
  14 C14            6.5783    -1.0988    -3.0565 C.ar    
  15 C15            7.6565    -1.1961    -3.9384 C.ar    
  16 C16            5.3806    -0.5269    -3.4881 C.ar    
  17 C17            5.2712    -0.0557    -4.7827 C.ar    
  18 C18            6.3475    -0.1512    -5.6501 C.ar    
  19 C19            7.5349    -0.7222    -5.2280 C.ar    
  20 F20            4.1131     0.4984    -5.2032 F       
  21 C21            1.2561    -1.9301     0.2320 C.1     
  22 C22            1.2402    -3.1017     0.3059 C.1     
  23 C23            1.2207    -4.5307     0.3961 C.ar    
  24 C24            2.4174    -5.2525     0.3682 C.ar    
  25 C25            2.3907    -6.6286     0.4560 C.ar    
  26 C26            1.1832    -7.2948     0.5710 C.ar    
  27 C27           -0.0056    -6.5870     0.5993 C.ar    
  28 C28            0.0054    -5.2103     0.5182 C.ar    
  29 H29           -0.8204     2.1527     0.1001 H       
  30 H30           -0.8623    -0.2964     0.2592 H       
  31 H31            3.4364     2.1158    -0.1509 H       
  32 H32            1.3160     3.3518    -0.0991 H       
  33 H33            5.6350    -3.0211     0.5605 H       
  34 H34            6.4991    -1.5740     1.1718 H       
  35 H35            4.5216    -0.7376     2.0068 H       
  36 H36            3.6515    -2.1807     1.3968 H       
  37 H37            8.5843    -1.6414    -3.6111 H       
  38 H38            4.5414    -0.4531    -2.8123 H       
  39 H39            6.2577     0.2179    -6.6611 H       
  40 H40            8.3702    -0.7933    -5.9089 H       
  41 H41            3.3604    -4.7340     0.2778 H       
  42 H42            3.3145    -7.1877     0.4346 H       
  43 H43            1.1686    -8.3726     0.6386 H       
  44 H44           -0.9442    -7.1138     0.6888 H       
  45 H45           -0.9231    -4.6592     0.5405 H       
@<TRIPOS>BOND
   1    1    2 ar
   2    1    6 ar
   3    1   29 1
   4    2    3 ar
   5    2   30 1
   6    3    4 ar
   7    3   21 1
   8    4    5 ar
   9    4    7 1
  10    5    6 ar
  11    5   31 1
  12    6   32 1
  13    7    8 2
  14    7   11 1
  15    8    9 1
  16    9   10 1
  17    9   12 am
  18   10   11 1
  19   10   33 1
  20   10   34 1
  21   11   35 1
  22   11   36 1
  23   12   13 2
  24   12   14 1
  25   14   15 ar
  26   14   16 ar
  27   15   19 ar
  28   15   37 1
  29   16   17 ar
  30   16   38 1
  31   17   18 ar
  32   17   20 1
  33   18   19 ar
  34   18   39 1
  35   19   40 1
  36   21   22 3
  37   22   23 1
  38   23   24 ar
  39   23   28 ar
  40   24   25 ar
  41   24   41 1
  42   25   26 ar
  43   25   42 1
  44   26   27 ar
  45   26   43 1
  46   27   28 ar
  47   27   44 1
  48   28   45 1

#	End of record

