#	Name: ASD01230383
#	Creating user name:	WinNT
#	Creation time:	15. 06. 2019 19:14

#	Modifying user name:	WinNT
#	Modification time:	15. 06. 2019 19:14

#	Program:	/corina/corina34_cracker 3.40 0067  02.08.2006

@<TRIPOS>MOLECULE
ASD01230383
  46   48    0    0    0
SMALL
NO_CHARGES


@<TRIPOS>ATOM
   1 S1            -0.0222     0.9504    -0.6223 S.o2    
   2 S2           -10.0904     2.6919    -1.7550 S.3     
   3 O3            -0.7966     4.7739    -3.4844 O.3     
   4 O4            -3.3300     2.6003    -2.1585 O.3     
   5 O5            -0.5789     1.3765     0.6137 O.2     
   6 O6            -0.1185    -0.4041    -1.0410 O.2     
   7 N7            -0.8736     1.7928    -1.7658 N.am    
   8 N8           -13.8304     3.6271    -1.5895 N.1     
   9 C9            -1.0192     3.2458    -1.6478 C.3     
  10 C10           -2.4105     3.6941    -2.1575 C.3     
  11 C11           -0.0254     3.9650    -2.5804 C.3     
  12 C12           -2.0942     4.1521    -3.6041 C.3     
  13 C13            1.6813     1.5499    -0.7935 C.3     
  14 C14            2.5574     0.9120     0.2865 C.3     
  15 C15            2.2187     1.1718    -2.1752 C.3     
  16 C16           -4.6523     2.9061    -2.0973 C.ar    
  17 C17           -5.5929     1.8914    -1.9764 C.ar    
  18 C18           -5.0594     4.2329    -2.1502 C.ar    
  19 C19           -6.9353     2.1972    -1.9140 C.ar    
  20 C20           -6.3998     4.5475    -2.0879 C.ar    
  21 C21           -7.3493     3.5298    -1.9725 C.ar    
  22 C22           -8.7870     3.8622    -1.9065 C.2     
  23 C23           -9.3042     5.1234    -1.9543 C.2     
  24 C24          -10.6697     5.1869    -1.8762 C.2     
  25 C25          -11.2921     3.9756    -1.7631 C.2     
  26 C26          -12.7075     3.7812    -1.6663 C.1     
  27 H27           -0.8718     3.5603    -0.6146 H       
  28 H28           -2.7946     4.5223    -1.5620 H       
  29 H29            0.5536     3.2315    -3.1415 H       
  30 H30            0.6417     4.5972    -1.9945 H       
  31 H31           -2.8351     4.8734    -3.9490 H       
  32 H32           -2.0488     3.2956    -4.2766 H       
  33 H33           -1.2759     1.3243    -2.5138 H       
  34 H34            1.6979     2.6340    -0.6814 H       
  35 H35            2.5408    -0.1721     0.1744 H       
  36 H36            1.5353     1.5351    -2.9427 H       
  37 H37            3.2002     1.6233    -2.3194 H       
  38 H38            2.3033     0.0875    -2.2479 H       
  39 H39            3.5810     1.2722     0.1837 H       
  40 H40            2.1746     1.1814     1.2709 H       
  41 H41           -5.2719     0.8611    -1.9316 H       
  42 H42           -4.3246     5.0193    -2.2398 H       
  43 H43           -7.6661     1.4076    -1.8203 H       
  44 H44           -6.7155     5.5795    -2.1284 H       
  45 H45           -8.6848     6.0034    -2.0462 H       
  46 H46          -11.2120     6.1206    -1.9017 H       
@<TRIPOS>BOND
   1    1    5 2
   2    1    6 2
   3    1    7 am
   4    1   13 1
   5    2   22 1
   6    2   25 1
   7    3   11 1
   8    3   12 1
   9    4   16 1
  10    4   10 1
  11    7   33 1
  12    7    9 1
  13    8   26 3
  14    9   10 1
  15    9   11 1
  16    9   27 1
  17   10   12 1
  18   10   28 1
  19   11   29 1
  20   11   30 1
  21   12   31 1
  22   12   32 1
  23   13   14 1
  24   13   15 1
  25   13   34 1
  26   14   35 1
  27   14   39 1
  28   14   40 1
  29   15   36 1
  30   15   37 1
  31   15   38 1
  32   16   17 ar
  33   16   18 ar
  34   17   19 ar
  35   17   41 1
  36   18   20 ar
  37   18   42 1
  38   19   21 ar
  39   19   43 1
  40   20   21 ar
  41   20   44 1
  42   21   22 1
  43   22   23 2
  44   23   24 1
  45   23   45 1
  46   24   25 2
  47   24   46 1
  48   25   26 1

#	End of record

