#	Name: ASD01812410
#	Creating user name:	WinNT
#	Creation time:	15. 06. 2019 19:28

#	Modifying user name:	WinNT
#	Modification time:	15. 06. 2019 19:28

#	Program:	/corina/corina34_cracker 3.40 0067  02.08.2006

@<TRIPOS>MOLECULE
ASD01812410
  68   72    0    0    0
SMALL
NO_CHARGES


@<TRIPOS>ATOM
   1 O1            -4.9362    -2.7118     1.2486 O.3     
   2 C2            -4.4917    -1.5978     2.0255 C.3     
   3 H3            -5.3508    -0.9968     2.3235 H       
   4 C4            -3.7657    -2.1038     3.2736 C.3     
   5 C5            -3.2898    -0.9111     4.1055 C.3     
   6 C6            -2.3341    -0.0561     3.2709 C.3     
   7 C7            -3.0601     0.4499     2.0228 C.3     
   8 C8            -3.5360    -0.7428     1.1910 C.3     
   9 H9            -2.6769    -1.3438     0.8929 H       
  10 N10           -4.2312    -0.2583    -0.0041 N.am    
  11 C11           -3.5285     0.0658    -1.1076 C.2     
  12 O12           -2.3119     0.0444    -1.0824 O.2     
  13 C13           -4.2299     0.4444    -2.3386 C.2     
  14 C14           -5.6325     0.3676    -2.4079 C.2     
  15 C15           -6.2632     0.7258    -3.5644 C.2     
  16 C16           -7.7655     0.6507    -3.6576 C.3     
  17 N17           -8.1656    -0.7135    -4.0276 N.3     
  18 C18           -7.3434    -1.2215    -5.1332 C.3     
  19 C19           -7.6878    -2.6896    -5.3940 C.3     
  20 C20           -9.1741    -2.8058    -5.7433 C.3     
  21 C21          -10.0067    -2.2258    -4.5966 C.3     
  22 C22           -9.5950    -0.7711    -4.3588 C.3     
  23 C23           -9.4491    -2.0553    -6.9794 C.1     
  24 N24           -9.6613    -1.4762    -7.9333 N.1     
  25 C25           -9.5327    -4.2559    -5.9426 C.ar    
  26 C26          -10.4065    -4.8778    -5.0712 C.ar    
  27 C27          -10.7356    -6.2082    -5.2540 C.ar    
  28 C28          -10.1912    -6.9166    -6.3086 C.ar    
  29 C29           -9.3170    -6.2953    -7.1808 C.ar    
  30 C30           -8.9916    -4.9631    -7.0014 C.ar    
  31 Br31          -7.8015    -4.1107    -8.1984 Br      
  32 C32           -5.5139     1.1639    -4.6649 C.2     
  33 C33           -6.1725     1.5303    -5.8506 C.2     
  34 C34           -5.4405     1.9562    -6.9200 C.2     
  35 C35           -4.0442     2.0212    -6.8183 C.2     
  36 C36           -3.4280     1.6643    -5.6690 C.2     
  37 N37           -4.1492     1.2375    -4.5933 N.am    
  38 C38           -3.5047     0.8937    -3.4600 C.2     
  39 O39           -2.2885     0.9677    -3.4068 O.2     
  40 H40           -5.5466    -3.2985     1.7156 H       
  41 H41           -4.4465    -2.7129     3.8681 H       
  42 H42           -2.9065    -2.7048     2.9756 H       
  43 H43           -4.1489    -0.3101     4.4035 H       
  44 H44           -2.7725    -1.2716     4.9946 H       
  45 H45           -1.9951     0.7936     3.8635 H       
  46 H46           -1.4750    -0.6571     2.9729 H       
  47 H47           -3.9193     1.0509     2.3208 H       
  48 H48           -2.3793     1.0590     1.4283 H       
  49 H49           -5.1973    -0.1709    -0.0012 H       
  50 H50           -6.2038     0.0288    -1.5563 H       
  51 H51           -8.2027     0.9087    -2.6931 H       
  52 H52           -8.1179     1.3508    -4.4152 H       
  53 H53           -7.5415    -0.6368    -6.0315 H       
  54 H54           -6.2889    -1.1370    -4.8702 H       
  55 H55           -7.0885    -3.0619    -6.2249 H       
  56 H56           -7.4769    -3.2772    -4.5005 H       
  57 H57          -11.0641    -2.2667    -4.8577 H       
  58 H58           -9.8323    -2.8061    -3.6905 H       
  59 H59          -10.1760    -0.3595    -3.5335 H       
  60 H60           -9.7826    -0.1885    -5.2608 H       
  61 H61          -10.8321    -4.3246    -4.2470 H       
  62 H62          -11.4180    -6.6941    -4.5723 H       
  63 H63          -10.4486    -7.9558    -6.4510 H       
  64 H64           -8.8914    -6.8490    -8.0047 H       
  65 H65           -7.2492     1.4750    -5.9149 H       
  66 H66           -5.9331     2.2408    -7.8380 H       
  67 H67           -3.4583     2.3571    -7.6612 H       
  68 H68           -2.3515     1.7180    -5.6020 H       
@<TRIPOS>BOND
   1    1    2 1
   2    1   40 1
   3    2    3 1
   4    2    8 1
   5    2    4 1
   6    4    5 1
   7    4   41 1
   8    4   42 1
   9    5    6 1
  10    5   43 1
  11    5   44 1
  12    6    7 1
  13    6   45 1
  14    6   46 1
  15    7    8 1
  16    7   47 1
  17    7   48 1
  18    8    9 1
  19    8   10 1
  20   10   11 am
  21   10   49 1
  22   11   12 2
  23   11   13 1
  24   13   38 1
  25   13   14 2
  26   14   15 1
  27   14   50 1
  28   15   16 1
  29   15   32 2
  30   16   17 1
  31   16   51 1
  32   16   52 1
  33   17   22 1
  34   17   18 1
  35   18   19 1
  36   18   53 1
  37   18   54 1
  38   19   20 1
  39   19   55 1
  40   19   56 1
  41   20   21 1
  42   20   23 1
  43   20   25 1
  44   21   22 1
  45   21   57 1
  46   21   58 1
  47   22   59 1
  48   22   60 1
  49   23   24 3
  50   25   30 ar
  51   25   26 ar
  52   26   27 ar
  53   26   61 1
  54   27   28 ar
  55   27   62 1
  56   28   29 ar
  57   28   63 1
  58   29   30 ar
  59   29   64 1
  60   30   31 1
  61   32   37 1
  62   32   33 1
  63   33   34 2
  64   33   65 1
  65   34   35 1
  66   34   66 1
  67   35   36 2
  68   35   67 1
  69   36   37 1
  70   36   68 1
  71   37   38 am
  72   38   39 2

#	End of record

