#	Name: ASD03540056
#	Creating user name:	WinNT
#	Creation time:	15. 06. 2019 20:42

#	Modifying user name:	WinNT
#	Modification time:	15. 06. 2019 20:42

#	Program:	/corina/corina34_cracker 3.40 0067  02.08.2006

@<TRIPOS>MOLECULE
ASD03540056
  53   57    0    0    0
SMALL
NO_CHARGES


@<TRIPOS>ATOM
   1 C1            -0.0164     1.3579     0.0095 C.2     
   2 N2             0.0021    -0.0041     0.0020 N.am    
   3 C3             1.2284    -0.6238    -0.0131 C.2     
   4 C4             2.3974     0.1025    -0.0208 C.2     
   5 C5             2.3228     1.5016    -0.0130 C.2     
   6 N6             1.1082     2.0844     0.0027 N.am    
   7 S7             0.9036    -2.3626    -0.0187 S.3     
   8 C8            -1.0724    -0.8452     0.0083 C.2     
   9 C9            -0.8584    -2.1683    -0.0005 C.2     
  10 C10           -1.8701    -3.2326     0.0040 C.2     
  11 O11           -3.0529    -2.9475     0.0165 O.2     
  12 N12           -1.4886    -4.5252    -0.0058 N.am    
  13 C13           -2.4979    -5.5869    -0.0013 C.3     
  14 C14           -1.8144    -6.9299    -0.0142 C.ar    
  15 C15           -1.4898    -7.5512     1.1774 C.ar    
  16 C16           -0.8633    -8.7829     1.1668 C.ar    
  17 C17           -0.5608    -9.3949    -0.0378 C.ar    
  18 C18           -0.8864    -8.7717    -1.2306 C.ar    
  19 C19           -1.5176    -7.5423    -1.2175 C.ar    
  20 F20            0.0520   -10.5988    -0.0493 F       
  21 O21            3.3377     2.1787    -0.0193 O.2     
  22 O22           -1.0879     1.9319     0.0177 O.2     
  23 C23            3.7334    -0.5944    -0.0369 C.3     
  24 C24            1.0159     3.5465     0.0110 C.3     
  25 N25           -0.1424     4.0838     2.0802 N.ar    
  26 C26            0.9975     4.0406     1.4345 C.ar    
  27 C27            2.1929     4.4389     2.0295 C.ar    
  28 C28            2.1955     4.8891     3.3189 C.ar    
  29 C29            0.9694     4.9341     4.0094 C.ar    
  30 C30            0.8944     5.3853     5.3363 C.ar    
  31 C31           -0.3125     5.4144     5.9707 C.ar    
  32 C32           -1.4738     5.0011     5.3169 C.ar    
  33 C33           -1.4352     4.5583     4.0309 C.ar    
  34 C34           -0.2094     4.5139     3.3442 C.ar    
  35 F35           -0.3845     5.8484     7.2481 F       
  36 H36           -2.0780    -0.4515     0.0204 H       
  37 H37           -0.5456    -4.7524    -0.0158 H       
  38 H38           -3.1122    -5.5005     0.8949 H       
  39 H39           -3.1291    -5.4920    -0.8850 H       
  40 H40           -1.7255    -7.0735     2.1169 H       
  41 H41           -0.6095    -9.2679     2.0978 H       
  42 H42           -0.6509    -9.2481    -2.1708 H       
  43 H43           -1.7753    -7.0580    -2.1478 H       
  44 H44            4.0458    -0.7575    -1.0683 H       
  45 H45            4.4721     0.0243     0.4729 H       
  46 H46            3.6489    -1.5539     0.4733 H       
  47 H47            1.8764     3.9678    -0.5088 H       
  48 H48            0.1000     3.8556    -0.4928 H       
  49 H49            3.1164     4.3915     1.4717 H       
  50 H50            3.1128     5.2014     3.7958 H       
  51 H51            1.7871     5.7072     5.8519 H       
  52 H52           -2.4182     5.0328     5.8400 H       
  53 H53           -2.3434     4.2422     3.5392 H       
@<TRIPOS>BOND
   1    1    2 am
   2    1    6 am
   3    1   22 2
   4    2    3 1
   5    2    8 1
   6    3    4 2
   7    3    7 1
   8    4    5 1
   9    4   23 1
  10    5    6 am
  11    5   21 2
  12    6   24 1
  13    7    9 1
  14    8    9 2
  15    8   36 1
  16    9   10 1
  17   10   11 2
  18   10   12 am
  19   12   13 1
  20   12   37 1
  21   13   14 1
  22   13   38 1
  23   13   39 1
  24   14   15 ar
  25   14   19 ar
  26   15   16 ar
  27   15   40 1
  28   16   17 ar
  29   16   41 1
  30   17   18 ar
  31   17   20 1
  32   18   19 ar
  33   18   42 1
  34   19   43 1
  35   23   44 1
  36   23   45 1
  37   23   46 1
  38   24   26 1
  39   24   47 1
  40   24   48 1
  41   25   26 ar
  42   25   34 ar
  43   26   27 ar
  44   27   28 ar
  45   27   49 1
  46   28   29 ar
  47   28   50 1
  48   29   30 ar
  49   29   34 ar
  50   30   31 ar
  51   30   51 1
  52   31   32 ar
  53   31   35 1
  54   32   33 ar
  55   32   52 1
  56   33   34 ar
  57   33   53 1

#	End of record

