#	Name: ASD01410330
#	Creating user name:	WinNT
#	Creation time:	15. 06. 2019 19:17

#	Modifying user name:	WinNT
#	Modification time:	15. 06. 2019 19:17

#	Program:	/corina/corina34_cracker 3.40 0067  02.08.2006

@<TRIPOS>MOLECULE
ASD01410330
  60   64    0    0    0
SMALL
NO_CHARGES


@<TRIPOS>ATOM
   1 O1            -0.0161     1.3361     0.0094 O.3     
   2 C2             0.0021    -0.0041     0.0020 C.2     
   3 C3             1.2991    -0.4163    -0.0126 C.2     
   4 C4             2.1062     0.8106    -0.0137 C.2     
   5 C5             1.2316     1.8296     0.0001 C.2     
   6 N6             2.7985    -2.2896    -0.8291 N.pl3   
   7 C7             1.7928    -1.8099    -0.0248 C.2     
   8 C8             1.3241    -2.8159     0.7576 C.2     
   9 C9             2.0561    -3.9858     0.4442 C.ar    
  10 C10            2.9775    -3.6329    -0.5632 C.ar    
  11 C11            2.0127    -5.3035     0.9231 C.ar    
  12 C12            2.8625    -6.2394     0.4197 C.ar    
  13 C13            3.7866    -5.8962    -0.5791 C.ar    
  14 C14            3.8381    -4.5919    -1.0709 C.ar    
  15 C15           -0.9163    -3.6592     1.4044 C.3     
  16 C16           -2.0366    -3.5477     2.4405 C.3     
  17 C17           -1.4929    -3.9192     3.8215 C.3     
  18 C18           -0.3558    -2.9661     4.1952 C.3     
  19 C19            0.7644    -3.0776     3.1591 C.3     
  20 C20            0.2207    -2.7061     1.7781 C.3     
  21 C21            3.5523    -1.5064    -1.8113 C.3     
  22 C22            4.7666    -0.9067    -1.1504 C.2     
  23 O23            4.9813    -1.1131     0.0253 O.2     
  24 N24            5.6141    -0.1410    -1.8659 N.am    
  25 C25            6.8063     0.4553    -1.2425 C.3     
  26 C26            8.0235     0.1262    -2.1143 C.3     
  27 O27            7.7533     0.5110    -3.4644 O.3     
  28 C28            6.6618    -0.1898    -4.0655 C.3     
  29 C29            5.3779     0.1185    -3.2950 C.3     
  30 C30            4.7015    -6.9192    -1.1151 C.2     
  31 O31            5.5027    -6.6246    -1.9801 O.2     
  32 O32            4.6499    -8.1817    -0.6461 O.3     
  33 H33           -0.8653    -0.6476     0.0072 H       
  34 H34            3.1840     0.8794    -0.0236 H       
  35 H35            1.4908     2.8780     0.0027 H       
  36 H36            1.3045    -5.5753     1.6919 H       
  37 H37            2.8259    -7.2528     0.7915 H       
  38 H38            4.5497    -4.3298    -1.8399 H       
  39 H39           -0.5409    -4.6823     1.3838 H       
  40 H40           -1.3037    -3.3945     0.4205 H       
  41 H41           -2.4120    -2.5246     2.4610 H       
  42 H42           -2.8467    -4.2267     2.1742 H       
  43 H43           -2.2910    -3.8398     4.5596 H       
  44 H44           -1.1174    -4.9423     3.8009 H       
  45 H45           -0.7312    -1.9430     4.2157 H       
  46 H46            0.0316    -3.2308     5.1791 H       
  47 H47            1.5745    -2.3986     3.4254 H       
  48 H48            1.1399    -4.1007     3.1386 H       
  49 H49           -0.1547    -1.6830     1.7986 H       
  50 H50            3.8667    -2.1550    -2.6290 H       
  51 H51            2.9204    -0.7090    -2.2024 H       
  52 H52            6.6839     1.5364    -1.1760 H       
  53 H53            6.9459     0.0391    -0.2449 H       
  54 H54            8.8926     0.6721    -1.7471 H       
  55 H55            8.2215    -0.9449    -2.0737 H       
  56 H56            6.5513     0.1287    -5.1020 H       
  57 H57            6.8549    -1.2621    -4.0319 H       
  58 H58            4.5707    -0.5185    -3.6567 H       
  59 H59            5.1095     1.1659    -3.4328 H       
  60 H60            5.2699    -8.8178    -1.0284 H       
@<TRIPOS>BOND
   1    1    2 1
   2    1    5 1
   3    2    3 2
   4    2   33 1
   5    3    4 1
   6    3    7 1
   7    4    5 2
   8    4   34 1
   9    5   35 1
  10    6    7 1
  11    6   21 1
  12    6   10 1
  13    7    8 2
  14    8    9 1
  15    8   20 1
  16    9   10 ar
  17    9   11 ar
  18   10   14 ar
  19   11   12 ar
  20   11   36 1
  21   12   13 ar
  22   12   37 1
  23   13   14 ar
  24   13   30 1
  25   14   38 1
  26   15   16 1
  27   15   20 1
  28   15   39 1
  29   15   40 1
  30   16   17 1
  31   16   41 1
  32   16   42 1
  33   17   18 1
  34   17   43 1
  35   17   44 1
  36   18   19 1
  37   18   45 1
  38   18   46 1
  39   19   20 1
  40   19   47 1
  41   19   48 1
  42   20   49 1
  43   21   22 1
  44   21   50 1
  45   21   51 1
  46   22   23 2
  47   22   24 am
  48   24   25 1
  49   24   29 1
  50   25   26 1
  51   25   52 1
  52   25   53 1
  53   26   27 1
  54   26   54 1
  55   26   55 1
  56   27   28 1
  57   28   29 1
  58   28   56 1
  59   28   57 1
  60   29   58 1
  61   29   59 1
  62   30   31 2
  63   30   32 1
  64   32   60 1

#	End of record

