#	Name: ASD01812547
#	Creating user name:	WinNT
#	Creation time:	15. 06. 2019 19:28

#	Modifying user name:	WinNT
#	Modification time:	15. 06. 2019 19:28

#	Program:	/corina/corina34_cracker 3.40 0067  02.08.2006

@<TRIPOS>MOLECULE
ASD01812547
  62   66    0    0    0
SMALL
NO_CHARGES


@<TRIPOS>ATOM
   1 C1            -0.0178     1.4608     0.0101 C.3     
   2 N2             0.0021    -0.0041     0.0020 N.pl3   
   3 C3             0.0077    -0.7875    -1.0939 C.2     
   4 C4             0.0273    -2.0862    -0.6731 C.2     
   5 C5             0.0335    -2.0755     0.7360 C.2     
   6 N6             0.0245    -0.8305     1.1319 N.2     
   7 C7             0.0393    -3.2890    -1.5409 C.ar    
   8 C8             0.0533    -4.5572    -0.9640 C.ar    
   9 C9             0.0639    -5.6700    -1.7865 C.ar    
  10 C10            0.0601    -5.4781    -3.1611 C.ar    
  11 C11            0.0708    -6.6613    -4.0943 C.3     
  12 C12           -1.3464    -7.0701    -4.4034 C.ar    
  13 C13           -1.9650    -8.0686    -3.6721 C.ar    
  14 C14           -3.2763    -8.4166    -3.9892 C.ar    
  15 N15           -3.9125    -7.8029    -4.9744 N.ar    
  16 C16           -3.3478    -6.8471    -5.6949 C.ar    
  17 C17           -4.1669    -6.2342    -6.8021 C.3     
  18 C18           -3.5719    -4.8949    -7.2316 C.3     
  19 C19           -2.0802    -5.0969    -7.5225 C.3     
  20 C20           -1.3622    -5.3565    -6.1995 C.3     
  21 C21           -2.0552    -6.4453    -5.4250 C.ar    
  22 C22           -3.9625    -9.4804    -3.2192 C.2     
  23 O23           -3.3817   -10.0465    -2.3143 O.2     
  24 N24           -5.2310    -9.8203    -3.5226 N.am    
  25 C25           -5.9095   -10.8721    -2.7613 C.3     
  26 H26           -5.1899   -11.6413    -2.4810 H       
  27 C27           -6.5334   -10.2696    -1.4988 C.3     
  28 C28           -7.3062   -11.3592    -0.7509 C.3     
  29 O29           -8.2996   -11.9150    -1.6148 O.3     
  30 C30           -7.7711   -12.5344    -2.7891 C.3     
  31 C31           -7.0156   -11.4936    -3.6197 C.3     
  32 H32           -7.7070   -10.7151    -3.9423 H       
  33 O33           -6.4353   -12.1228    -4.7640 O.3     
  34 C34            0.0459    -4.1915    -3.6660 C.ar    
  35 N35            0.0309    -3.1486    -2.8603 N.ar    
  36 H36            1.0048     1.8381     0.0023 H       
  37 H37           -0.5450     1.8219    -0.8730 H       
  38 H38           -0.5280     1.8123     0.9069 H       
  39 H39           -0.0015    -0.4495    -2.1196 H       
  40 H40            0.0482    -2.9447     1.3768 H       
  41 H41            0.0563    -4.6702     0.1101 H       
  42 H42            0.0753    -6.6656    -1.3682 H       
  43 H43            0.5806    -6.3903    -5.0188 H       
  44 H44            0.5937    -7.4925    -3.6212 H       
  45 H45           -1.4412    -8.5689    -2.8711 H       
  46 H46           -4.1812    -6.9116    -7.6559 H       
  47 H47           -5.1868    -6.0782    -6.4507 H       
  48 H48           -4.0760    -4.5418    -8.1313 H       
  49 H49           -3.6934    -4.1662    -6.4302 H       
  50 H50           -1.9480    -5.9516    -8.1859 H       
  51 H51           -1.6731    -4.2011    -7.9915 H       
  52 H52           -0.3332    -5.6543    -6.4013 H       
  53 H53           -1.3614    -4.4427    -5.6054 H       
  54 H54           -5.6946    -9.3685    -4.2449 H       
  55 H55           -5.7463    -9.8750    -0.8562 H       
  56 H56           -7.2148    -9.4657    -1.7772 H       
  57 H57           -6.6171   -12.1434    -0.4374 H       
  58 H58           -7.7879   -10.9265     0.1259 H       
  59 H59           -7.0881   -13.3341    -2.5023 H       
  60 H60           -8.5877   -12.9484    -3.3806 H       
  61 H61           -7.0796   -12.5383    -5.3534 H       
  62 H62            0.0432    -4.0388    -4.7351 H       
@<TRIPOS>BOND
   1    1    2 1
   2    1   36 1
   3    1   37 1
   4    1   38 1
   5    2    6 1
   6    2    3 1
   7    3    4 2
   8    3   39 1
   9    4    5 1
  10    4    7 1
  11    5    6 2
  12    5   40 1
  13    7   35 ar
  14    7    8 ar
  15    8    9 ar
  16    8   41 1
  17    9   10 ar
  18    9   42 1
  19   10   11 1
  20   10   34 ar
  21   11   12 1
  22   11   43 1
  23   11   44 1
  24   12   21 ar
  25   12   13 ar
  26   13   14 ar
  27   13   45 1
  28   14   15 ar
  29   14   22 1
  30   15   16 ar
  31   16   21 ar
  32   16   17 1
  33   17   18 1
  34   17   46 1
  35   17   47 1
  36   18   19 1
  37   18   48 1
  38   18   49 1
  39   19   20 1
  40   19   50 1
  41   19   51 1
  42   20   21 1
  43   20   52 1
  44   20   53 1
  45   22   23 2
  46   22   24 am
  47   24   25 1
  48   24   54 1
  49   25   26 1
  50   25   31 1
  51   25   27 1
  52   27   28 1
  53   27   55 1
  54   27   56 1
  55   28   29 1
  56   28   57 1
  57   28   58 1
  58   29   30 1
  59   30   31 1
  60   30   59 1
  61   30   60 1
  62   31   32 1
  63   31   33 1
  64   33   61 1
  65   34   35 ar
  66   34   62 1

#	End of record

