#	Name: ASD02508006
#	Creating user name:	WinNT
#	Creation time:	15. 06. 2019 20:23

#	Modifying user name:	WinNT
#	Modification time:	15. 06. 2019 20:23

#	Program:	/corina/corina34_cracker 3.40 0067  02.08.2006

@<TRIPOS>MOLECULE
ASD02508006
  50   53    0    0    0
SMALL
NO_CHARGES


@<TRIPOS>ATOM
   1 N1            -0.0179     1.4654     0.0101 N.am    
   2 C2             0.0021    -0.0041     0.0020 C.3     
   3 C3            -0.8091    -0.5118     1.2005 C.3     
   4 N4            -2.1063     0.1789     1.2161 N.am    
   5 S5             1.3960     2.3276     0.0012 S.o2    
   6 C6             1.8252     2.6081    -1.6845 C.ar    
   7 C7             1.3698     3.7407    -2.3332 C.ar    
   8 O8             1.0932     3.6005     0.5554 O.2     
   9 O9             2.3943     1.4665     0.5315 O.2     
  10 C10            2.6214     1.6983    -2.3543 C.ar    
  11 C11            2.9615     1.9157    -3.6764 C.ar    
  12 C12            2.5052     3.0479    -4.3340 C.ar    
  13 C13            1.7060     3.9640    -3.6597 C.ar    
  14 S14           -3.5201    -0.6832     1.2250 S.o2    
  15 C15           -3.9497    -0.9633     2.9107 C.ar    
  16 O16           -4.5183     0.1776     0.6941 O.2     
  17 C17           -4.7406    -0.0515     3.5814 C.ar    
  18 O18           -3.2172    -1.9564     0.6713 O.2     
  19 C19           -5.0789    -0.2731     4.9106 C.ar    
  20 C20           -4.6199    -1.4117     5.5602 C.ar    
  21 C21           -3.8291    -2.3197     4.8833 C.ar    
  22 C22           -3.4991    -2.0989     3.5589 C.ar    
  23 N23           -5.8783     0.6474     5.5922 N.pl3   
  24 C24           -2.1262     1.6484     1.2242 C.3     
  25 C25           -1.3150     2.1561     0.0200 C.3     
  26 O26            2.8548     3.2527    -5.6334 O.3     
  27 C27            2.0753     4.2030    -6.3676 C.3     
  28 C28            1.9022     5.4564    -5.4993 C.3     
  29 O29            1.2411     5.0781    -4.2884 O.3     
  30 H30           -0.4431    -0.3709    -0.9228 H       
  31 H31            1.0305    -0.3564     0.0807 H       
  32 H32           -0.9678    -1.5860     1.1062 H       
  33 H33           -0.2701    -0.2988     2.1237 H       
  34 H34            0.7511     4.4521    -1.8064 H       
  35 H35            2.9787     0.8162    -1.8437 H       
  36 H36            3.5836     1.2030    -4.1976 H       
  37 H37           -5.0955     0.8330     3.0735 H       
  38 H38           -4.8807    -1.5868     6.5935 H       
  39 H39           -3.4719    -3.2052     5.3878 H       
  40 H40           -2.8809    -2.8106     3.0319 H       
  41 H41           -6.1980     1.4423     5.1376 H       
  42 H42           -6.1138     0.4916     6.5202 H       
  43 H43           -3.1547     2.0007     1.1455 H       
  44 H44           -1.6810     2.0152     2.1490 H       
  45 H45           -1.1556     3.2304     0.1131 H       
  46 H46           -1.8562     1.9426    -0.9018 H       
  47 H47            2.5900     4.4645    -7.2922 H       
  48 H48            1.0985     3.7775    -6.5978 H       
  49 H49            2.8792     5.8786    -5.2643 H       
  50 H50            1.3015     6.1931    -6.0328 H       
@<TRIPOS>BOND
   1    1    2 1
   2    1    5 am
   3    1   25 1
   4    2    3 1
   5    2   30 1
   6    2   31 1
   7    3    4 1
   8    3   32 1
   9    3   33 1
  10    4   14 am
  11    4   24 1
  12    5    6 1
  13    5    9 2
  14    5    8 2
  15    6    7 ar
  16    6   10 ar
  17    7   13 ar
  18    7   34 1
  19   10   11 ar
  20   10   35 1
  21   11   12 ar
  22   11   36 1
  23   12   13 ar
  24   12   26 1
  25   13   29 1
  26   14   15 1
  27   14   16 2
  28   14   18 2
  29   15   17 ar
  30   15   22 ar
  31   17   19 ar
  32   17   37 1
  33   19   20 ar
  34   19   23 1
  35   20   21 ar
  36   20   38 1
  37   21   22 ar
  38   21   39 1
  39   22   40 1
  40   23   41 1
  41   23   42 1
  42   24   25 1
  43   24   43 1
  44   24   44 1
  45   25   45 1
  46   25   46 1
  47   26   27 1
  48   27   28 1
  49   27   47 1
  50   27   48 1
  51   28   29 1
  52   28   49 1
  53   28   50 1

#	End of record

