#	Name: ASD00230003
#	Creating user name:	WinNT
#	Creation time:	15. 06. 2019 18:33

#	Modifying user name:	WinNT
#	Modification time:	15. 06. 2019 18:33

#	Program:	/corina/corina34_cracker 3.40 0067  02.08.2006

@<TRIPOS>MOLECULE
ASD00230003
  96   96    0    0    0
SMALL
NO_CHARGES


@<TRIPOS>ATOM
   1 C1             0.8987     2.1208    -0.7484 C.ar    
   2 C2             0.7073     0.7603    -0.5601 C.ar    
   3 C3             1.8044    -0.0805    -0.4161 C.ar    
   4 C4             3.0897     0.4464    -0.4616 C.ar    
   5 C5             3.2725     1.8080    -0.6503 C.ar    
   6 C6             2.1786     2.6409    -0.7931 C.ar    
   7 O7             1.6208    -1.4161    -0.2307 O.3     
   8 O8             4.1665    -0.3721    -0.3208 O.3     
   9 O9            -0.5524     0.2496    -0.5159 O.3     
  10 C10            5.4573     0.2383    -0.3780 C.3     
  11 C11            6.5361    -0.8322    -0.2013 C.3     
  12 N12            6.5357    -1.7249    -1.3680 N.4     
  13 C13            1.4451    -2.2156    -1.4020 C.3     
  14 C14            1.3610    -3.6908    -1.0047 C.3     
  15 N15            0.1188    -3.9264    -0.2568 N.4     
  16 C16           -1.6330     1.1839    -0.5547 C.3     
  17 C17           -2.9573     0.4399    -0.3722 C.3     
  18 N18           -4.0587     1.4097    -0.3053 N.4     
  19 C19            7.6639    -2.6606    -1.2690 C.3     
  20 C20            7.6635    -3.5903    -2.4841 C.3     
  21 C21            5.2758    -2.4793    -1.4070 C.3     
  22 C22            5.0762    -3.2078    -0.0765 C.3     
  23 C23            6.6672    -0.9275    -2.5947 C.3     
  24 C24            7.9794    -0.1417    -2.5541 C.3     
  25 C25           -0.0303    -5.3644     0.0042 C.3     
  26 C26           -1.3241    -5.6098     0.7831 C.3     
  27 C27            0.1701    -3.2000     1.0190 C.3     
  28 C28            1.4355    -3.5974     1.7817 C.3     
  29 C29           -1.0254    -3.4506    -1.0456 C.3     
  30 C30           -1.0112    -4.1214    -2.4206 C.3     
  31 C31           -5.3192     0.7019    -0.0445 C.3     
  32 C32           -6.4663     1.7120     0.0251 C.3     
  33 C33           -3.8021     2.3681     0.7780 C.3     
  34 C34           -3.5825     1.6097     2.0886 C.3     
  35 C35           -4.1561     2.1289    -1.5825 C.3     
  36 C36           -4.4233     1.1306    -2.7108 C.3     
  37 H37            0.0467     2.7742    -0.8648 H       
  38 H38            4.2709     2.2182    -0.6857 H       
  39 H39            2.3243     3.7009    -0.9399 H       
  40 H40            5.5855     0.7274    -1.3436 H       
  41 H41            5.5453     0.9775     0.4182 H       
  42 H42            7.5112    -0.3539    -0.1101 H       
  43 H43            6.3296    -1.4110     0.6990 H       
  44 H44            0.5249    -1.9225    -1.9073 H       
  45 H45            2.2912    -2.0678    -2.0731 H       
  46 H46            1.3679    -4.3097    -1.9019 H       
  47 H47            2.2160    -3.9479    -0.3793 H       
  48 H48           -1.5122     1.9127     0.2468 H       
  49 H49           -1.6345     1.6980    -1.5159 H       
  50 H50           -3.1157    -0.2322    -1.2156 H       
  51 H51           -2.9252    -0.1377     0.5517 H       
  52 H52            8.5987    -2.1008    -1.2400 H       
  53 H53            7.5663    -3.2522    -0.3588 H       
  54 H54            8.5006    -4.2845    -2.4106 H       
  55 H55            6.7287    -4.1500    -2.5130 H       
  56 H56            7.7611    -2.9986    -3.3943 H       
  57 H57            4.4460    -1.7923    -1.5732 H       
  58 H58            5.3130    -3.2070    -2.2177 H       
  59 H59            5.0390    -2.4801     0.7342 H       
  60 H60            4.1414    -3.7675    -0.1054 H       
  61 H61            5.9060    -3.8947     0.0897 H       
  62 H62            6.6669    -1.5898    -3.4604 H       
  63 H63            5.8301    -0.2332    -2.6682 H       
  64 H64            7.9796     0.5206    -1.6884 H       
  65 H65            8.8165    -0.8360    -2.4806 H       
  66 H66            8.0769     0.4499    -3.4643 H       
  67 H67           -0.0684    -5.9034    -0.9425 H       
  68 H68            0.8187    -5.7174     0.5895 H       
  69 H69           -1.4348    -6.6767     0.9767 H       
  70 H70           -1.2861    -5.0708     1.7297 H       
  71 H71           -2.1732    -5.2567     0.1978 H       
  72 H72            0.1840    -2.1273     0.8260 H       
  73 H73           -0.7073    -3.4505     1.6153 H       
  74 H74            1.4735    -3.0584     2.7283 H       
  75 H75            1.4216    -4.6701     1.9747 H       
  76 H76            2.3129    -3.3468     1.1855 H       
  77 H77           -1.9520    -3.7007    -0.5289 H       
  78 H78           -0.9580    -2.3696    -1.1680 H       
  79 H79           -1.0786    -5.2024    -2.2982 H       
  80 H80           -1.8602    -3.7684    -3.0059 H       
  81 H81           -0.0846    -3.8714    -2.9373 H       
  82 H82           -5.5096    -0.0093    -0.8483 H       
  83 H83           -5.2470     0.1683     0.9032 H       
  84 H84           -7.4016     1.1868     0.2186 H       
  85 H85           -6.2759     2.4231     0.8289 H       
  86 H86           -6.5386     2.2456    -0.9226 H       
  87 H87           -2.9125     2.9525     0.5430 H       
  88 H88           -4.6577     3.0352     0.8832 H       
  89 H89           -3.4800     2.3217     2.9075 H       
  90 H90           -4.4352     0.9579     2.2784 H       
  91 H91           -2.6759     1.0093     2.0134 H       
  92 H92           -4.9733     2.8485    -1.5329 H       
  93 H93           -3.2207     2.6540    -1.7760 H       
  94 H94           -4.4956     1.6643    -3.6585 H       
  95 H95           -3.6061     0.4110    -2.7604 H       
  96 H96           -5.3587     0.6055    -2.5173 H       
@<TRIPOS>BOND
   1    1    2 ar
   2    1    6 ar
   3    1   37 1
   4    2    3 ar
   5    2    9 1
   6    3    4 ar
   7    3    7 1
   8    4    5 ar
   9    4    8 1
  10    5    6 ar
  11    5   38 1
  12    6   39 1
  13    7   13 1
  14    8   10 1
  15    9   16 1
  16   10   11 1
  17   10   40 1
  18   10   41 1
  19   11   12 1
  20   11   42 1
  21   11   43 1
  22   12   19 1
  23   12   21 1
  24   12   23 1
  25   13   14 1
  26   13   44 1
  27   13   45 1
  28   14   15 1
  29   14   46 1
  30   14   47 1
  31   15   25 1
  32   15   27 1
  33   15   29 1
  34   16   17 1
  35   16   48 1
  36   16   49 1
  37   17   18 1
  38   17   50 1
  39   17   51 1
  40   18   31 1
  41   18   33 1
  42   18   35 1
  43   19   20 1
  44   19   52 1
  45   19   53 1
  46   20   54 1
  47   20   55 1
  48   20   56 1
  49   21   22 1
  50   21   57 1
  51   21   58 1
  52   22   59 1
  53   22   60 1
  54   22   61 1
  55   23   24 1
  56   23   62 1
  57   23   63 1
  58   24   64 1
  59   24   65 1
  60   24   66 1
  61   25   26 1
  62   25   67 1
  63   25   68 1
  64   26   69 1
  65   26   70 1
  66   26   71 1
  67   27   28 1
  68   27   72 1
  69   27   73 1
  70   28   74 1
  71   28   75 1
  72   28   76 1
  73   29   30 1
  74   29   77 1
  75   29   78 1
  76   30   79 1
  77   30   80 1
  78   30   81 1
  79   31   32 1
  80   31   82 1
  81   31   83 1
  82   32   84 1
  83   32   85 1
  84   32   86 1
  85   33   34 1
  86   33   87 1
  87   33   88 1
  88   34   89 1
  89   34   90 1
  90   34   91 1
  91   35   36 1
  92   35   92 1
  93   35   93 1
  94   36   94 1
  95   36   95 1
  96   36   96 1

#	End of record

