#	Name: ASD01410987
#	Creating user name:	WinNT
#	Creation time:	15. 06. 2019 19:19

#	Modifying user name:	WinNT
#	Modification time:	15. 06. 2019 19:19

#	Program:	/corina/corina34_cracker 3.40 0067  02.08.2006

@<TRIPOS>MOLECULE
ASD01410987
  70   73    0    0    0
SMALL
NO_CHARGES


@<TRIPOS>ATOM
   1 C1             0.9716     0.7943     1.2334 C.ar    
   2 C2             1.1193    -0.3571     0.4639 C.ar    
   3 C3             0.0115    -1.0983     0.0969 C.ar    
   4 C4            -1.2562    -0.6983     0.4940 C.ar    
   5 C5            -1.4106     0.4614     1.2702 C.ar    
   6 C6            -0.2838     1.2015     1.6408 C.ar    
   7 O7             2.0675     1.5169     1.5895 O.3     
   8 C8             2.5865     2.3777     0.6784 C.ar    
   9 N9            -2.3725    -1.4448     0.1233 N.am    
  10 C10           -2.7444    -2.5113     0.8586 C.2     
  11 C11           -1.9855    -2.8720     2.0720 C.ar    
  12 O12           -3.7051    -3.1763     0.5224 O.2     
  13 C13           -1.0378    -1.9889     2.5955 C.ar    
  14 C14           -1.5010    -4.4272     3.8430 C.ar    
  15 C15           -0.5605    -3.5487     4.3508 C.ar    
  16 C16           -0.3327    -2.3310     3.7288 C.ar    
  17 Cl17           0.3332    -3.9700     5.7782 Cl      
  18 N18            1.9610     2.5704    -0.4714 N.ar    
  19 C19           -3.1421    -1.0705    -1.0657 C.3     
  20 C20           -2.6082     0.2502    -1.6239 C.3     
  21 C21            3.7665     3.0525     0.9638 C.ar    
  22 C22            4.2854     3.9280     0.0256 C.ar    
  23 C23            3.6021     4.0979    -1.1704 C.ar    
  24 C24            2.4309     3.3982    -1.3848 C.ar    
  25 F25            2.3512    -0.7514     0.0738 F       
  26 C26           -3.0061    -2.1646    -2.1265 C.3     
  27 O27           -3.6485    -3.3557    -1.6675 O.3     
  28 C28           -3.5792    -4.4456    -2.5890 C.3     
  29 C29           -2.2158    -4.0971     2.7066 C.ar    
  30 C30            4.1293     5.0406    -2.2214 C.3     
  31 S31            5.2399     4.1408    -3.3383 S.o     
  32 C32            4.2553     3.2673    -4.1855 C.2     
  33 N33            4.1193     3.7577    -5.3784 N.2     
  34 C34            4.7335     4.8300    -5.7784 C.2     
  35 C35            5.5952     5.3730    -4.6470 C.3     
  36 O36           -2.9109     1.3092    -0.7134 O.3     
  37 C37           -2.4531     2.5931    -1.1423 C.3     
  38 F38           -3.1343    -4.9550     2.2108 F       
  39 C39           -2.7523     0.8933     1.6960 C.2     
  40 O40           -3.7312     0.2575     1.3577 O.2     
  41 O41           -2.8948     1.9937     2.4610 O.3     
  42 C42            4.4720     2.8349     2.2775 C.3     
  43 F43            5.6271     3.6228     2.3227 F       
  44 F44            3.6214     3.1936     3.3287 F       
  45 F45            4.8225     1.4861     2.4008 F       
  46 H46            0.1331    -1.9899    -0.5002 H       
  47 H47           -0.3955     2.0946     2.2378 H       
  48 H48           -0.8579    -1.0399     2.1124 H       
  49 H49           -1.6734    -5.3745     4.3322 H       
  50 H50            0.3998    -1.6484     4.1336 H       
  51 H51           -4.1919    -0.9535    -0.7970 H       
  52 H52           -1.5282     0.1799    -1.7533 H       
  53 H53           -3.0770     0.4537    -2.5867 H       
  54 H54            5.2010     4.4668     0.2200 H       
  55 H55            1.8956     3.5266    -2.3139 H       
  56 H56           -3.4750    -1.8328    -3.0529 H       
  57 H57           -1.9503    -2.3674    -2.3061 H       
  58 H58           -2.5353    -4.6957    -2.7782 H       
  59 H59           -4.0895    -5.3113    -2.1669 H       
  60 H60           -4.0600    -4.1611    -3.5250 H       
  61 H61            3.2962     5.4521    -2.7912 H       
  62 H62            4.6764     5.8515    -1.7406 H       
  63 H63            3.7582     2.3783    -3.8264 H       
  64 H64            4.6466     5.2683    -6.7616 H       
  65 H65            5.2717     6.3701    -4.3484 H       
  66 H66            6.6510     5.3676    -4.9178 H       
  67 H67           -2.7216     3.3421    -0.3973 H       
  68 H68           -1.3699     2.5714    -1.2617 H       
  69 H69           -2.9186     2.8452    -2.0951 H       
  70 H70           -3.7952     2.2379     2.7156 H       
@<TRIPOS>BOND
   1    1    2 ar
   2    1    7 1
   3    1    6 ar
   4    2    3 ar
   5    2   25 1
   6    3    4 ar
   7    3   46 1
   8    4    5 ar
   9    4    9 1
  10    5    6 ar
  11    5   39 1
  12    6   47 1
  13    7    8 1
  14    8   21 ar
  15    8   18 ar
  16    9   10 am
  17    9   19 1
  18   10   11 1
  19   10   12 2
  20   11   13 ar
  21   11   29 ar
  22   13   16 ar
  23   13   48 1
  24   14   15 ar
  25   14   29 ar
  26   14   49 1
  27   15   16 ar
  28   15   17 1
  29   16   50 1
  30   18   24 ar
  31   19   20 1
  32   19   26 1
  33   19   51 1
  34   20   36 1
  35   20   52 1
  36   20   53 1
  37   21   22 ar
  38   21   42 1
  39   22   23 ar
  40   22   54 1
  41   23   24 ar
  42   23   30 1
  43   24   55 1
  44   26   27 1
  45   26   56 1
  46   26   57 1
  47   27   28 1
  48   28   58 1
  49   28   59 1
  50   28   60 1
  51   29   38 1
  52   30   31 1
  53   30   61 1
  54   30   62 1
  55   31   32 2
  56   31   35 1
  57   32   33 1
  58   32   63 1
  59   33   34 2
  60   34   35 1
  61   34   64 1
  62   35   65 1
  63   35   66 1
  64   36   37 1
  65   37   67 1
  66   37   68 1
  67   37   69 1
  68   39   40 2
  69   39   41 1
  70   41   70 1
  71   42   43 1
  72   42   44 1
  73   42   45 1

#	End of record

