#	Name: ASD01841006
#	Creating user name:	WinNT
#	Creation time:	15. 06. 2019 19:38

#	Modifying user name:	WinNT
#	Modification time:	15. 06. 2019 19:38

#	Program:	/corina/corina34_cracker 3.40 0067  02.08.2006

@<TRIPOS>MOLECULE
ASD01841006
  61   64    0    0    0
SMALL
NO_CHARGES


@<TRIPOS>ATOM
   1 C1            -0.0178     1.4648     0.0101 C.3     
   2 N2             0.0021    -0.0041     0.0020 N.4     
   3 C3             0.6897    -0.4778    -1.2066 C.3     
   4 C4             2.1250     0.0518    -1.2175 C.3     
   5 N5             2.1051     1.5206    -1.2094 N.4     
   6 C6             1.4175     1.9944    -0.0008 C.3     
   7 C7            -1.3761    -0.5125     0.0124 C.3     
   8 C8            -1.3584    -2.0365    -0.1216 C.3     
   9 C9            -2.7938    -2.5661    -0.1108 C.3     
  10 C10           -2.7762    -4.0901    -0.2449 C.3     
  11 C11           -4.1895    -4.6009    -0.3576 C.ar    
  12 C12           -2.0023    -4.4769    -1.4788 C.ar    
  13 O13           -2.1533    -4.6625     0.9069 O.3     
  14 C14           -4.5097    -5.8590     0.1173 C.ar    
  15 C15           -5.8061    -6.3275     0.0138 C.ar    
  16 C16           -6.7824    -5.5378    -0.5642 C.ar    
  17 C17           -6.4624    -4.2793    -1.0383 C.ar    
  18 C18           -5.1669    -3.8091    -0.9309 C.ar    
  19 C19           -1.3194    -5.6782    -1.5181 C.ar    
  20 C20           -0.6095    -6.0329    -2.6499 C.ar    
  21 C21           -0.5829    -5.1867    -3.7426 C.ar    
  22 C22           -1.2665    -3.9858    -3.7037 C.ar    
  23 C23           -1.9800    -3.6331    -2.5734 C.ar    
  24 C24            3.4167     2.0045    -1.2193 C.ar    
  25 C25            3.8481     2.8109    -2.2559 C.ar    
  26 C26            5.1449     3.2893    -2.2658 C.ar    
  27 C27            6.0103     2.9617    -1.2387 C.ar    
  28 C28            5.5786     2.1561    -0.2017 C.ar    
  29 C29            4.2805     1.6812    -0.1896 C.ar    
  30 H30           -0.5450     1.8259    -0.8730 H       
  31 H31           -0.5280     1.8163     0.9069 H       
  32 H32            0.4901    -0.3383     0.8195 H       
  33 H33            0.7044    -1.5677    -1.2126 H       
  34 H34            0.1625    -0.1167    -2.0897 H       
  35 H35            2.6522    -0.3093    -0.3344 H       
  36 H36            2.6352    -0.2998    -2.1143 H       
  37 H37            1.6171     1.8549    -2.0268 H       
  38 H38            1.4028     3.0842     0.0052 H       
  39 H39            1.9447     1.6333     0.8823 H       
  40 H40           -1.8584    -0.2358     0.9500 H       
  41 H41           -1.9290    -0.0808    -0.8218 H       
  42 H42           -0.8762    -2.3132    -1.0592 H       
  43 H43           -0.8055    -2.4683     0.7126 H       
  44 H44           -3.2761    -2.2894     0.8267 H       
  45 H45           -3.3467    -2.1344    -0.9450 H       
  46 H46           -2.5992    -4.4544     1.7394 H       
  47 H47           -3.7470    -6.4760     0.5688 H       
  48 H48           -6.0561    -7.3107     0.3842 H       
  49 H49           -7.7951    -5.9041    -0.6457 H       
  50 H50           -7.2250    -3.6624    -1.4902 H       
  51 H51           -4.9168    -2.8259    -1.3013 H       
  52 H52           -1.3402    -6.3393    -0.6644 H       
  53 H53           -0.0754    -6.9711    -2.6804 H       
  54 H54           -0.0277    -5.4635    -4.6267 H       
  55 H55           -1.2455    -3.3245    -4.5573 H       
  56 H56           -2.5141    -2.6949    -2.5430 H       
  57 H57            3.1720     3.0668    -3.0583 H       
  58 H58            5.4822     3.9187    -3.0760 H       
  59 H59            7.0237     3.3350    -1.2468 H       
  60 H60            6.2548     1.8999     0.6005 H       
  61 H61            3.9432     1.0518     0.6206 H       
@<TRIPOS>BOND
   1    1    2 1
   2    1    6 1
   3    1   30 1
   4    1   31 1
   5    2    3 1
   6    2    7 1
   7    2   32 1
   8    3    4 1
   9    3   33 1
  10    3   34 1
  11    4    5 1
  12    4   35 1
  13    4   36 1
  14    5    6 1
  15    5   24 1
  16    5   37 1
  17    6   38 1
  18    6   39 1
  19    7    8 1
  20    7   40 1
  21    7   41 1
  22    8    9 1
  23    8   42 1
  24    8   43 1
  25    9   10 1
  26    9   44 1
  27    9   45 1
  28   10   11 1
  29   10   12 1
  30   10   13 1
  31   11   14 ar
  32   11   18 ar
  33   12   19 ar
  34   12   23 ar
  35   13   46 1
  36   14   15 ar
  37   14   47 1
  38   15   16 ar
  39   15   48 1
  40   16   17 ar
  41   16   49 1
  42   17   18 ar
  43   17   50 1
  44   18   51 1
  45   19   20 ar
  46   19   52 1
  47   20   21 ar
  48   20   53 1
  49   21   22 ar
  50   21   54 1
  51   22   23 ar
  52   22   55 1
  53   23   56 1
  54   24   25 ar
  55   24   29 ar
  56   25   26 ar
  57   25   57 1
  58   26   27 ar
  59   26   58 1
  60   27   28 ar
  61   27   59 1
  62   28   29 ar
  63   28   60 1
  64   29   61 1

#	End of record

