#	Name: ASD00960228
#	Creating user name:	WinNT
#	Creation time:	15. 06. 2019 18:53

#	Modifying user name:	WinNT
#	Modification time:	15. 06. 2019 18:53

#	Program:	/corina/corina34_cracker 3.40 0067  02.08.2006

@<TRIPOS>MOLECULE
ASD00960228
  17   18    0    0    0
SMALL
NO_CHARGES


@<TRIPOS>ATOM
   1 C1            -0.0163     1.3477     0.0095 C.2     
   2 C2             0.0021    -0.0041     0.0020 C.2     
   3 N3             1.2556     1.8185    -0.0002 N.pl3   
   4 C4             2.1228     0.7538    -0.0142 C.2     
   5 C5             1.3536    -0.4159    -0.0131 C.2     
   6 N6             1.7936     3.1140     0.0017 N.2     
   7 C7             3.0887     3.2843    -0.0098 C.2     
   8 N8             3.9377     2.2609    -0.0238 N.2     
   9 C9             3.5102     1.0087    -0.0260 C.2     
  10 N10            4.4125    -0.0372    -0.0403 N.pl3   
  11 C11            1.8401    -1.7627    -0.0250 C.1     
  12 N12            2.2260    -2.8311    -0.0344 N.1     
  13 H13           -0.9068     1.9588     0.0172 H       
  14 H14           -0.8614    -0.6528     0.0068 H       
  15 H15            3.4830     4.2897    -0.0082 H       
  16 H16            5.3653     0.1442    -0.0487 H       
  17 H17            4.0932    -0.9532    -0.0418 H       
@<TRIPOS>BOND
   1    1    2 2
   2    1    3 1
   3    1   13 1
   4    2    5 1
   5    2   14 1
   6    3    4 1
   7    3    6 1
   8    4    5 2
   9    4    9 1
  10    5   11 1
  11    6    7 2
  12    7    8 1
  13    7   15 1
  14    8    9 2
  15    9   10 1
  16   10   16 1
  17   10   17 1
  18   11   12 3

#	End of record

