#	Name: ASD01912559
#	Creating user name:	WinNT
#	Creation time:	15. 06. 2019 19:59

#	Modifying user name:	WinNT
#	Modification time:	15. 06. 2019 19:59

#	Program:	/corina/corina34_cracker 3.40 0067  02.08.2006

@<TRIPOS>MOLECULE
ASD01912559
  40   42    0    0    0
SMALL
NO_CHARGES


@<TRIPOS>ATOM
   1 C1            -0.0169     1.3949     0.0097 C.ar    
   2 C2             0.0021    -0.0041     0.0020 C.ar    
   3 C3             1.2235    -0.6864    -0.0133 C.ar    
   4 C4             2.3964     0.0136    -0.0207 C.ar    
   5 C5             2.3767     1.4112    -0.0126 C.ar    
   6 C6             1.1569     2.0936     0.0023 C.ar    
   7 C7            -1.2280    -0.7372     0.0103 C.1     
   8 C8            -2.2364    -1.3383     0.0171 C.1     
   9 C9            -3.4665    -2.0714     0.0254 C.ar    
  10 N10           -3.4426    -3.4010     0.0180 N.ar    
  11 C11           -4.6829    -1.3848     0.0470 C.ar    
  12 C12           -5.8623    -2.1081     0.0552 C.ar    
  13 C13           -5.7903    -3.4941     0.0416 C.ar    
  14 C14           -4.5516    -4.1106     0.0256 C.ar    
  15 C15            3.6452     2.1673    -0.0197 C.2     
  16 O16            4.7064     1.5741    -0.0326 O.2     
  17 N17            3.6266     3.5149    -0.0118 N.am    
  18 C18            4.8850     4.2650    -0.0188 C.3     
  19 C19            4.6616     5.6638    -0.6198 C.3     
  20 C20            5.0286     6.6802     0.4811 C.3     
  21 C21            5.9936     5.9022     1.4099 C.3     
  22 C22            5.3800     4.4802     1.4263 C.3     
  23 H23           -0.9594     1.9223     0.0170 H       
  24 H24            1.2389    -1.7663    -0.0189 H       
  25 H25            3.3393    -0.5129    -0.0326 H       
  26 H26            1.1424     3.1735     0.0086 H       
  27 H27           -4.7024    -0.3050     0.0574 H       
  28 H28           -6.8180    -1.6053     0.0722 H       
  29 H29           -6.6934    -4.0865     0.0475 H       
  30 H30           -4.4937    -5.1890     0.0147 H       
  31 H31            2.7799     3.9882    -0.0015 H       
  32 H32            5.6370     3.7265    -0.5956 H       
  33 H33            5.3058     5.8045    -1.4877 H       
  34 H34            3.6168     5.7845    -0.9063 H       
  35 H35            5.5302     7.5461     0.0490 H       
  36 H36            4.1376     6.9880     1.0284 H       
  37 H37            7.0003     5.8837     0.9925 H       
  38 H38            5.9972     6.3330     2.4111 H       
  39 H39            4.5458     4.4327     2.1263 H       
  40 H40            6.1380     3.7405     1.6841 H       
@<TRIPOS>BOND
   1    1    2 ar
   2    1    6 ar
   3    1   23 1
   4    2    3 ar
   5    2    7 1
   6    3    4 ar
   7    3   24 1
   8    4    5 ar
   9    4   25 1
  10    5    6 ar
  11    5   15 1
  12    6   26 1
  13    7    8 3
  14    8    9 1
  15    9   10 ar
  16    9   11 ar
  17   10   14 ar
  18   11   12 ar
  19   11   27 1
  20   12   13 ar
  21   12   28 1
  22   13   14 ar
  23   13   29 1
  24   14   30 1
  25   15   16 2
  26   15   17 am
  27   17   18 1
  28   17   31 1
  29   18   19 1
  30   18   22 1
  31   18   32 1
  32   19   20 1
  33   19   33 1
  34   19   34 1
  35   20   21 1
  36   20   35 1
  37   20   36 1
  38   21   22 1
  39   21   37 1
  40   21   38 1
  41   22   39 1
  42   22   40 1

#	End of record

