#	Name: ASD07930264
#	Creating user name:	WinNT
#	Creation time:	15. 06. 2019 21:12

#	Modifying user name:	WinNT
#	Modification time:	15. 06. 2019 21:12

#	Program:	/corina/corina34_cracker 3.40 0067  02.08.2006

@<TRIPOS>MOLECULE
ASD07930264
  58   62    0    0    0
SMALL
NO_CHARGES


@<TRIPOS>ATOM
   1 C1            -0.0165     1.3638     0.0095 C.2     
   2 C2             0.0021    -0.0041     0.0020 C.2     
   3 C3             1.2948    -0.6930    -0.0137 C.2     
   4 N4             2.4269     0.0320    -0.0184 N.am    
   5 C5             2.3819     1.4078    -0.0126 C.2     
   6 C6             1.1929     2.0698     0.0018 C.2     
   7 C7             3.7400    -0.6270    -0.0278 C.3     
   8 C8             4.6599     0.1585    -0.9744 C.3     
   9 N9             4.7714     1.5377    -0.4785 N.am    
  10 C10            3.6569     2.1587    -0.0238 C.2     
  11 C11            6.0638     2.2277    -0.4763 C.3     
  12 O12            3.7031     3.3090     0.3671 O.2     
  13 O13            1.3435    -1.9113    -0.0219 O.2     
  14 N14           -1.1914    -0.7315     0.0096 N.pl3   
  15 C15           -1.6504    -1.5415    -0.9805 C.2     
  16 N16           -2.7956    -2.0446    -0.6082 N.2     
  17 C17           -3.1078    -1.5843     0.6125 C.2     
  18 C18           -2.1178    -0.7676     1.0201 C.2     
  19 C19           -4.3493    -1.9268     1.3951 C.3     
  20 C20            6.2498     2.9665    -1.8031 C.3     
  21 O21            5.2694     4.0003    -1.9141 O.3     
  22 C22            5.2960     4.7554    -3.0400 C.ar    
  23 C23            6.2343     4.5265    -4.0302 C.ar    
  24 C24            6.2363     5.3166    -5.1730 C.ar    
  25 N25            5.3674     6.2845    -5.3468 N.ar    
  26 C26            4.4329     6.5609    -4.4307 C.ar    
  27 C27            4.3620     5.7970    -3.2409 C.ar    
  28 C28            3.5085     7.6010    -4.6309 C.ar    
  29 C29            2.5679     7.8610    -3.6823 C.ar    
  30 C30            2.5040     7.1110    -2.5089 C.ar    
  31 C31            3.3799     6.0910    -2.2839 C.ar    
  32 Cl32           1.2895     7.4757    -1.3233 Cl      
  33 C33            1.5802     8.9775    -3.9037 C.3     
  34 C34            7.2653     5.0551    -6.2425 C.3     
  35 F35            6.7591     4.1280    -7.1599 F       
  36 F36            7.5640     6.2508    -6.9045 F       
  37 F37            8.4279     4.5437    -5.6560 F       
  38 H38           -0.9567     1.8952     0.0169 H       
  39 H39            1.1819     3.1497     0.0071 H       
  40 H40            4.1596    -0.6262     0.9782 H       
  41 H41            3.6350    -1.6521    -0.3830 H       
  42 H42            5.6465    -0.3045    -0.9940 H       
  43 H43            4.2345     0.1634    -1.9779 H       
  44 H44            6.0920     2.9435     0.3453 H       
  45 H45            6.8645     1.4989    -0.3509 H       
  46 H46           -1.1514    -1.7356    -1.9184 H       
  47 H47           -2.0667    -0.2372     1.9595 H       
  48 H48           -4.1600    -2.8068     2.0099 H       
  49 H49           -4.6181    -1.0869     2.0358 H       
  50 H50           -5.1676    -2.1343     0.7057 H       
  51 H51            7.2467     3.4059    -1.8376 H       
  52 H52            6.1331     2.2650    -2.6291 H       
  53 H53            6.9625     3.7373    -3.9153 H       
  54 H54            3.5449     8.1919    -5.5341 H       
  55 H55            3.3215     5.5164    -1.3713 H       
  56 H56            0.6993     8.5876    -4.4137 H       
  57 H57            1.2866     9.3988    -2.9422 H       
  58 H58            2.0403     9.7537    -4.5152 H       
@<TRIPOS>BOND
   1    1    2 2
   2    1    6 1
   3    1   38 1
   4    2    3 1
   5    2   14 1
   6    3    4 am
   7    3   13 2
   8    4    5 1
   9    4    7 1
  10    5    6 2
  11    5   10 1
  12    6   39 1
  13    7    8 1
  14    7   40 1
  15    7   41 1
  16    8    9 1
  17    8   42 1
  18    8   43 1
  19    9   10 am
  20    9   11 1
  21   10   12 2
  22   11   20 1
  23   11   44 1
  24   11   45 1
  25   14   15 1
  26   14   18 1
  27   15   16 2
  28   15   46 1
  29   16   17 1
  30   17   18 2
  31   17   19 1
  32   18   47 1
  33   19   48 1
  34   19   49 1
  35   19   50 1
  36   20   21 1
  37   20   51 1
  38   20   52 1
  39   21   22 1
  40   22   23 ar
  41   22   27 ar
  42   23   24 ar
  43   23   53 1
  44   24   25 ar
  45   24   34 1
  46   25   26 ar
  47   26   27 ar
  48   26   28 ar
  49   27   31 ar
  50   28   29 ar
  51   28   54 1
  52   29   30 ar
  53   29   33 1
  54   30   31 ar
  55   30   32 1
  56   31   55 1
  57   33   56 1
  58   33   57 1
  59   33   58 1
  60   34   35 1
  61   34   36 1
  62   34   37 1

#	End of record

