#	Name: ASD04590006
#	Creating user name:	WinNT
#	Creation time:	15. 06. 2019 20:50

#	Modifying user name:	WinNT
#	Modification time:	15. 06. 2019 20:50

#	Program:	/corina/corina34_cracker 3.40 0067  02.08.2006

@<TRIPOS>MOLECULE
ASD04590006
  68   74    0    0    0
SMALL
NO_CHARGES


@<TRIPOS>ATOM
   1 C1            -0.0168     1.3858     0.0097 C.2     
   2 C2             0.0021    -0.0041     0.0020 C.2     
   3 C3             1.4271    -0.3942    -0.0137 C.2     
   4 N4             2.1774     0.7206    -0.0149 N.am    
   5 C5             1.3972     1.8145    -0.0015 C.2     
   6 C6            -1.1625    -0.9053     0.0087 C.2     
   7 C7            -1.9909    -1.1755    -1.0404 C.2     
   8 C8            -1.6576    -1.6970     1.1486 C.ar    
   9 C9            -1.2441    -1.8520     2.4701 C.ar    
  10 N10           -2.9525    -2.0561    -0.6500 N.pl3   
  11 C11           -2.7809    -2.3953     0.6761 C.ar    
  12 C12           -1.9422    -2.6925     3.3090 C.ar    
  13 C13           -3.0519    -3.3833     2.8434 C.ar    
  14 C14           -3.4726    -3.2390     1.5394 C.ar    
  15 C15           -4.0162    -2.5720    -1.5151 C.3     
  16 C16           -4.8668    -1.4075    -2.0300 C.3     
  17 C17           -3.3957    -3.3065    -2.7067 C.3     
  18 C18           -4.5096    -3.7900    -3.6380 C.3     
  19 N19           -5.2939    -2.6393    -4.1039 N.3     
  20 C20           -5.9381    -1.9461    -2.9810 C.3     
  21 C21           -6.2849    -3.0493    -5.1078 C.3     
  22 C22           -7.2268    -1.9049    -5.3804 C.ar    
  23 N23           -8.2744    -1.7232    -4.6005 N.ar    
  24 C24           -9.1252    -0.7357    -4.8009 C.ar    
  25 C25           -8.9461     0.1506    -5.8458 C.ar    
  26 C26           -7.8555    -0.0086    -6.6875 C.ar    
  27 C27           -6.9795    -1.0546    -6.4417 C.ar    
  28 O28            1.7890     2.9645     0.0003 O.2     
  29 O29            1.8500    -1.5330    -0.0235 O.2     
  30 C30           -3.2120     4.6682    -2.7897 C.ar    
  31 C31           -2.0913     4.0072    -3.2719 C.ar    
  32 C32           -3.6054     4.5180    -1.4778 C.ar    
  33 C33           -2.8759     3.6969    -0.6239 C.ar    
  34 C34           -1.7420     3.0281    -1.1135 C.ar    
  35 C35           -1.3559     3.1894    -2.4425 C.ar    
  36 C36           -1.2054     2.2550     0.0203 C.2     
  37 C37           -2.0255     2.5024     1.0815 C.2     
  38 N38           -3.0167     3.3559     0.7053 N.pl3   
  39 C39           -4.0812     3.8430     1.5862 C.3     
  40 H40            3.1473     0.7338    -0.0236 H       
  41 H41           -1.8982    -0.7543    -2.0306 H       
  42 H42           -0.3804    -1.3160     2.8348 H       
  43 H43           -1.6241    -2.8146     4.3338 H       
  44 H44           -3.5914    -4.0399     3.5099 H       
  45 H45           -4.3378    -3.7812     1.1874 H       
  46 H46           -4.6446    -3.2597    -0.9492 H       
  47 H47           -5.3456    -0.9067    -1.1886 H       
  48 H48           -4.2309    -0.6996    -2.5617 H       
  49 H49           -2.7366    -2.6285    -3.2490 H       
  50 H50           -2.8234    -4.1623    -2.3488 H       
  51 H51           -4.0704    -4.3010    -4.4948 H       
  52 H52           -5.1602    -4.4787    -3.0990 H       
  53 H53           -6.5820    -2.6434    -2.4450 H       
  54 H54           -6.5364    -1.1179    -3.3605 H       
  55 H55           -5.7744    -3.3272    -6.0299 H       
  56 H56           -6.8494    -3.9032    -4.7334 H       
  57 H57           -9.9721    -0.6186    -4.1409 H       
  58 H58           -9.6467     0.9569    -6.0052 H       
  59 H59           -7.6903     0.6686    -7.5124 H       
  60 H60           -6.1195    -1.2082    -7.0766 H       
  61 H61           -3.7787     5.3101    -3.4478 H       
  62 H62           -1.7945     4.1341    -4.3025 H       
  63 H63           -4.4790     5.0374    -1.1126 H       
  64 H64           -0.4845     2.6755    -2.8206 H       
  65 H65           -1.9069     2.0840     2.0701 H       
  66 H66           -4.9324     3.1640     1.5373 H       
  67 H67           -3.7120     3.8896     2.6107 H       
  68 H68           -4.3910     4.8378     1.2660 H       
@<TRIPOS>BOND
   1    1    2 2
   2    1    5 1
   3    1   36 1
   4    2    3 1
   5    2    6 1
   6    3    4 am
   7    3   29 2
   8    4    5 am
   9    4   40 1
  10    5   28 2
  11    6    7 2
  12    6    8 1
  13    7   10 1
  14    7   41 1
  15    8    9 ar
  16    8   11 ar
  17    9   12 ar
  18    9   42 1
  19   10   15 1
  20   10   11 1
  21   11   14 ar
  22   12   13 ar
  23   12   43 1
  24   13   14 ar
  25   13   44 1
  26   14   45 1
  27   15   16 1
  28   15   17 1
  29   15   46 1
  30   16   20 1
  31   16   47 1
  32   16   48 1
  33   17   18 1
  34   17   49 1
  35   17   50 1
  36   18   19 1
  37   18   51 1
  38   18   52 1
  39   19   20 1
  40   19   21 1
  41   20   53 1
  42   20   54 1
  43   21   22 1
  44   21   55 1
  45   21   56 1
  46   22   23 ar
  47   22   27 ar
  48   23   24 ar
  49   24   25 ar
  50   24   57 1
  51   25   26 ar
  52   25   58 1
  53   26   27 ar
  54   26   59 1
  55   27   60 1
  56   30   31 ar
  57   30   32 ar
  58   30   61 1
  59   31   35 ar
  60   31   62 1
  61   32   33 ar
  62   32   63 1
  63   33   34 ar
  64   33   38 1
  65   34   35 ar
  66   34   36 1
  67   35   64 1
  68   36   37 2
  69   37   38 1
  70   37   65 1
  71   38   39 1
  72   39   66 1
  73   39   67 1
  74   39   68 1

#	End of record

