#	Name: ASD01816082
#	Creating user name:	WinNT
#	Creation time:	15. 06. 2019 19:34

#	Modifying user name:	WinNT
#	Modification time:	15. 06. 2019 19:34

#	Program:	/corina/corina34_cracker 3.40 0067  02.08.2006

@<TRIPOS>MOLECULE
ASD01816082
  62   67    0    0    0
SMALL
NO_CHARGES


@<TRIPOS>ATOM
   1 C1            -0.4202     0.3671     0.6994 C.ar    
   2 C2            -0.3310    -1.0057     0.5350 C.ar    
   3 C3             0.8988    -1.6263     0.4591 C.ar    
   4 C4             2.0649    -0.8744     0.5476 C.ar    
   5 C5             1.9710     0.5174     0.7138 C.ar    
   6 C6             0.7252     1.1314     0.7890 C.ar    
   7 N7             3.3020    -1.4910     0.4731 N.pl3   
   8 C8             4.4608    -0.8173     0.5527 C.2     
   9 C9             4.4939     0.5454     0.7153 C.2     
  10 C10            3.2208     1.2962     0.8054 C.2     
  11 C11            5.5407     1.5554     0.8357 C.2     
  12 N12            4.9067     2.7394     0.9772 N.am    
  13 N13            3.5221     2.5540     0.9555 N.2     
  14 O14            6.7463     1.3677     0.8135 O.2     
  15 C15            3.3491    -2.9450     0.3000 C.3     
  16 C16            3.3640    -3.2756    -1.1702 C.ar    
  17 C17            4.5466    -3.1858    -1.8860 C.ar    
  18 C18            4.5643    -3.4879    -3.2352 C.ar    
  19 C19            3.3908    -3.8830    -3.8727 C.ar    
  20 C20            2.2046    -3.9717    -3.1465 C.ar    
  21 C21            2.1982    -3.6731    -1.7991 C.ar    
  22 F22            5.6836    -2.8022    -1.2653 F       
  23 C23            5.5461     3.9769     1.1249 C.ar    
  24 C24            5.2503     4.7887     2.2148 C.ar    
  25 C25            6.4808     4.3936     0.1867 C.ar    
  26 C26            7.1097     5.6144     0.3349 C.ar    
  27 C27            6.8100     6.4226     1.4163 C.ar    
  28 C28            5.8840     6.0098     2.3566 C.ar    
  29 F29            4.3452     4.3853     3.1331 F       
  30 C30            3.4033    -4.2081    -5.3206 C.ar    
  31 C31            2.2301    -4.6030    -5.9572 C.ar    
  32 C32            2.2485    -4.9055    -7.3110 C.ar    
  33 C33            3.4361    -4.8137    -8.0267 C.ar    
  34 C34            4.6002    -4.4215    -7.3934 C.ar    
  35 C35            4.5887    -4.1132    -6.0478 C.ar    
  36 N36            1.0738    -5.3027    -7.9542 N.am    
  37 S37           -0.0910    -4.1828    -8.3167 S.o2    
  38 O38           -1.1071    -4.9325    -8.9685 O.2     
  39 O39           -0.3428    -3.5267    -7.0816 O.2     
  40 C40            0.7151    -3.0531    -9.4849 C.3     
  41 H41           -1.3892     0.8409     0.7532 H       
  42 H42           -1.2329    -1.5958     0.4659 H       
  43 H43            0.9557    -2.6972     0.3312 H       
  44 H44            0.6546     2.2015     0.9168 H       
  45 H45            5.3911    -1.3618     0.4874 H       
  46 H46            4.2508    -3.3378     0.7699 H       
  47 H47            2.4717    -3.3948     0.7647 H       
  48 H48            5.4861    -3.4172    -3.7935 H       
  49 H49            1.2922    -4.2777    -3.6367 H       
  50 H50            1.2789    -3.7419    -1.2364 H       
  51 H51            6.7163     3.7635    -0.6583 H       
  52 H52            7.8371     5.9382    -0.3949 H       
  53 H53            7.3038     7.3764     1.5293 H       
  54 H54            5.6522     6.6433     3.2000 H       
  55 H55            1.3083    -4.6739    -5.3988 H       
  56 H56            3.4495    -5.0498    -9.0805 H       
  57 H57            5.5207    -4.3516    -7.9538 H       
  58 H58            5.5004    -3.8071    -5.5563 H       
  59 H59            0.9405    -6.2344    -8.1886 H       
  60 H60            1.1128    -3.6223   -10.3251 H       
  61 H61           -0.0122    -2.3276    -9.8493 H       
  62 H62            1.5290    -2.5307    -8.9822 H       
@<TRIPOS>BOND
   1    1    2 ar
   2    1    6 ar
   3    1   41 1
   4    2    3 ar
   5    2   42 1
   6    3    4 ar
   7    3   43 1
   8    4    5 ar
   9    4    7 1
  10    5    6 ar
  11    5   10 1
  12    6   44 1
  13    7    8 1
  14    7   15 1
  15    8    9 2
  16    8   45 1
  17    9   10 1
  18    9   11 1
  19   10   13 2
  20   11   12 am
  21   11   14 2
  22   12   13 1
  23   12   23 1
  24   15   16 1
  25   15   46 1
  26   15   47 1
  27   16   17 ar
  28   16   21 ar
  29   17   18 ar
  30   17   22 1
  31   18   19 ar
  32   18   48 1
  33   19   20 ar
  34   19   30 1
  35   20   21 ar
  36   20   49 1
  37   21   50 1
  38   23   24 ar
  39   23   25 ar
  40   24   29 1
  41   24   28 ar
  42   25   26 ar
  43   25   51 1
  44   26   27 ar
  45   26   52 1
  46   27   28 ar
  47   27   53 1
  48   28   54 1
  49   30   31 ar
  50   30   35 ar
  51   31   32 ar
  52   31   55 1
  53   32   33 ar
  54   32   36 1
  55   33   34 ar
  56   33   56 1
  57   34   35 ar
  58   34   57 1
  59   35   58 1
  60   36   37 am
  61   36   59 1
  62   37   38 2
  63   37   39 2
  64   37   40 1
  65   40   60 1
  66   40   61 1
  67   40   62 1

#	End of record

