#	Name: ASD01885176
#	Creating user name:	WinNT
#	Creation time:	15. 06. 2019 19:49

#	Modifying user name:	WinNT
#	Modification time:	15. 06. 2019 19:49

#	Program:	/corina/corina34_cracker 3.40 0067  02.08.2006

@<TRIPOS>MOLECULE
ASD01885176
  48   52    0    0    0
SMALL
NO_CHARGES


@<TRIPOS>ATOM
   1 C1            -0.0170     1.4050     0.0098 C.2     
   2 C2             1.1991    -0.6521    -0.0129 C.2     
   3 C3             2.3930     0.0893    -0.0203 C.2     
   4 C4             2.3588     1.4383    -0.0121 C.2     
   5 N5             1.1665     2.1012     0.0022 N.pl3   
   6 C6             0.8241     3.4179     0.0118 C.2     
   7 N7            -0.4823     3.4846     0.0242 N.2     
   8 N8            -0.9895     2.3020     0.0186 N.2     
   9 C9             1.7760     4.5862     0.0091 C.3     
  10 C10            1.2438    -2.1584    -0.0214 C.3     
  11 C11            2.0853     4.9887    -1.4342 C.3     
  12 N12            1.3658    -2.6368    -1.4050 N.3     
  13 C13            0.0021    -0.0041     0.0020 C.2     
  14 C14            2.9455     6.2352    -1.6511 C.3     
  15 C15            3.5315     4.8463    -1.9129 C.3     
  16 C16            1.6508    -4.0834    -1.4408 C.3     
  17 C17            0.0412    -2.9404    -1.9780 C.3     
  18 C18            0.6639    -4.1924    -2.6115 C.3     
  19 N19            1.2661    -3.9626    -3.9271 N.pl3   
  20 C20            0.6804    -4.5154    -5.0704 C.ar    
  21 C21           -0.4716    -5.2822    -4.9606 C.ar    
  22 C22           -1.0479    -5.8270    -6.0918 C.ar    
  23 C23           -0.4792    -5.6099    -7.3333 C.ar    
  24 C24            0.6686    -4.8472    -7.4480 C.ar    
  25 C25            1.2475    -4.2936    -6.3208 C.ar    
  26 F26            2.3652    -3.5430    -6.4334 F       
  27 Cl27          -1.4832    -0.9027     0.0119 Cl      
  28 H28            3.3434    -0.4236    -0.0323 H       
  29 H29            3.2826     1.9976    -0.0175 H       
  30 H30            1.3201     5.4274     0.5312 H       
  31 H31            2.6999     4.3031     0.5133 H       
  32 H32            2.1016    -2.4997     0.5580 H       
  33 H33            0.3278    -2.5516     0.4195 H       
  34 H34            1.2938     4.7914    -2.1572 H       
  35 H35            2.7203     6.8578    -2.5170 H       
  36 H36            3.2911     6.7685    -0.7655 H       
  37 H37            4.2626     4.4659    -1.1995 H       
  38 H38            3.6917     4.5551    -2.9510 H       
  39 H39            2.6792    -4.3166    -1.7166 H       
  40 H40            1.3233    -4.6127    -0.5460 H       
  41 H41           -0.7159    -3.1648    -1.2266 H       
  42 H42           -0.2946    -2.2050    -2.7091 H       
  43 H43            0.0253    -5.0750    -2.5763 H       
  44 H44            2.0711    -3.4270    -4.0052 H       
  45 H45           -0.9168    -5.4529    -3.9916 H       
  46 H46           -1.9440    -6.4238    -6.0062 H       
  47 H47           -0.9323    -6.0374    -8.2156 H       
  48 H48            1.1105    -4.6799    -8.4191 H       
@<TRIPOS>BOND
   1    1   13 1
   2    1    5 1
   3    1    8 2
   4    2    3 1
   5    2   10 1
   6    2   13 2
   7    3    4 2
   8    3   28 1
   9    4    5 1
  10    4   29 1
  11    5    6 1
  12    6    7 2
  13    6    9 1
  14    7    8 1
  15    9   11 1
  16    9   30 1
  17    9   31 1
  18   10   12 1
  19   10   32 1
  20   10   33 1
  21   11   14 1
  22   11   15 1
  23   11   34 1
  24   12   16 1
  25   12   17 1
  26   13   27 1
  27   14   15 1
  28   14   35 1
  29   14   36 1
  30   15   37 1
  31   15   38 1
  32   16   18 1
  33   16   39 1
  34   16   40 1
  35   17   18 1
  36   17   41 1
  37   17   42 1
  38   18   19 1
  39   18   43 1
  40   19   20 1
  41   19   44 1
  42   20   21 ar
  43   20   25 ar
  44   21   22 ar
  45   21   45 1
  46   22   23 ar
  47   22   46 1
  48   23   24 ar
  49   23   47 1
  50   24   25 ar
  51   24   48 1
  52   25   26 1

#	End of record

