#	Name: ASD01814475
#	Creating user name:	WinNT
#	Creation time:	15. 06. 2019 19:32

#	Modifying user name:	WinNT
#	Modification time:	15. 06. 2019 19:32

#	Program:	/corina/corina34_cracker 3.40 0067  02.08.2006

@<TRIPOS>MOLECULE
ASD01814475
  57   62    0    0    0
SMALL
NO_CHARGES


@<TRIPOS>ATOM
   1 C1            -0.0167     1.3807     0.0096 C.ar    
   2 C2             0.0021    -0.0041     0.0020 C.ar    
   3 N3             1.1326    -0.6807    -0.0120 N.ar    
   4 C4             2.3086    -0.0710    -0.0199 C.ar    
   5 C5             2.3610     1.3370    -0.0133 C.ar    
   6 C6             1.1830     2.0750     0.0019 C.ar    
   7 N7             3.4841    -0.7903    -0.0340 N.pl3   
   8 N8             4.6482    -0.2533    -0.0414 N.2     
   9 C9             4.8546     1.0371    -0.0368 C.2     
  10 C10            3.6943     1.9627    -0.0222 C.2     
  11 C11            3.3984    -2.2528    -0.0406 C.3     
  12 C12            3.3563    -2.7472    -1.4635 C.ar    
  13 C13            4.5328    -3.0470    -2.1361 C.ar    
  14 C14            4.4509    -3.4981    -3.4417 C.ar    
  15 C15            3.1968    -3.6352    -4.0332 C.ar    
  16 N16            2.0956    -3.3374    -3.3556 N.ar    
  17 C17            2.1454    -2.9117    -2.1093 C.ar    
  18 C18            3.0920    -4.1176    -5.4319 C.2     
  19 C19            4.1557    -4.5644    -6.2410 C.2     
  20 N20            3.6656    -4.9058    -7.4028 N.2     
  21 N21            2.2820    -4.6927    -7.3825 N.pl3   
  22 C22            1.9465    -4.2153    -6.1683 C.2     
  23 C23            6.0309     1.9106    -0.0430 C.2     
  24 N24            5.5600     3.1762    -0.0329 N.am    
  25 N25            4.1629     3.1751    -0.0206 N.2     
  26 C26            6.3582     4.3259    -0.0341 C.ar    
  27 C27            7.3130     4.5092    -1.0259 C.ar    
  28 C28            8.0991     5.6448    -1.0242 C.ar    
  29 C29            7.9366     6.5985    -0.0362 C.ar    
  30 C30            6.9867     6.4190     0.9529 C.ar    
  31 C31            6.1933     5.2889     0.9535 C.ar    
  32 C32            5.1582     5.0944     2.0313 C.3     
  33 C33            6.8134     7.4608     2.0280 C.3     
  34 O34            7.2002     1.5644    -0.0544 O.2     
  35 C35            1.3574    -4.9499    -8.4894 C.3     
  36 H36           -0.9559     1.9138     0.0170 H       
  37 H37           -0.9338    -0.5431     0.0080 H       
  38 H38            1.2020     3.1548     0.0068 H       
  39 H39            4.2702    -2.6700     0.4634 H       
  40 H40            2.4934    -2.5661     0.4799 H       
  41 H41            5.4908    -2.9304    -1.6513 H       
  42 H42            5.3465    -3.7403    -3.9946 H       
  43 H43            1.2281    -2.6791    -1.5888 H       
  44 H44            5.1949    -4.6154    -5.9512 H       
  45 H45            0.9522    -3.9520    -5.8390 H       
  46 H46            7.4408     3.7643    -1.7974 H       
  47 H47            8.8417     5.7880    -1.7951 H       
  48 H48            8.5530     7.4853    -0.0367 H       
  49 H49            4.2138     5.5350     1.7118 H       
  50 H50            5.0188     4.0287     2.2132 H       
  51 H51            5.4932     5.5787     2.9485 H       
  52 H52            6.0754     8.1956     1.7063 H       
  53 H53            6.4732     6.9821     2.9463 H       
  54 H54            7.7663     7.9581     2.2090 H       
  55 H55            0.9851    -5.9721    -8.4219 H       
  56 H56            0.5204    -4.2539    -8.4329 H       
  57 H57            1.8787    -4.8149    -9.4371 H       
@<TRIPOS>BOND
   1    1    2 ar
   2    1    6 ar
   3    1   36 1
   4    2    3 ar
   5    2   37 1
   6    3    4 ar
   7    4    5 ar
   8    4    7 1
   9    5    6 ar
  10    5   10 1
  11    6   38 1
  12    7    8 1
  13    7   11 1
  14    8    9 2
  15    9   10 1
  16    9   23 1
  17   10   25 2
  18   11   12 1
  19   11   39 1
  20   11   40 1
  21   12   13 ar
  22   12   17 ar
  23   13   14 ar
  24   13   41 1
  25   14   15 ar
  26   14   42 1
  27   15   16 ar
  28   15   18 1
  29   16   17 ar
  30   17   43 1
  31   18   19 1
  32   18   22 2
  33   19   20 2
  34   19   44 1
  35   20   21 1
  36   21   22 1
  37   21   35 1
  38   22   45 1
  39   23   24 am
  40   23   34 2
  41   24   25 1
  42   24   26 1
  43   26   27 ar
  44   26   31 ar
  45   27   28 ar
  46   27   46 1
  47   28   29 ar
  48   28   47 1
  49   29   30 ar
  50   29   48 1
  51   30   31 ar
  52   30   33 1
  53   31   32 1
  54   32   49 1
  55   32   50 1
  56   32   51 1
  57   33   52 1
  58   33   53 1
  59   33   54 1
  60   35   55 1
  61   35   56 1
  62   35   57 1

#	End of record

