#	Name: ASD01140552
#	Creating user name:	WinNT
#	Creation time:	15. 06. 2019 19:01

#	Modifying user name:	WinNT
#	Modification time:	15. 06. 2019 19:01

#	Program:	/corina/corina34_cracker 3.40 0067  02.08.2006

@<TRIPOS>MOLECULE
ASD01140552
  36   39    0    0    0
SMALL
NO_CHARGES


@<TRIPOS>ATOM
   1 Cl1           -4.6829     6.0379     4.7626 Cl      
   2 S2            -0.1926     1.6928    -0.3130 S.3     
   3 O3            -4.2336     1.3150     0.0675 O.2     
   4 N4            -3.3808    -1.6637     0.4904 N.pl3   
   5 N5            -1.6321    -2.0907    -0.7607 N.2     
   6 N6            -2.6799     0.5074     1.4344 N.am    
   7 C7            -2.5037    -0.6234     0.6368 C.2     
   8 C8            -1.4098    -0.9094    -0.1575 C.2     
   9 C9            -2.8116    -2.5594    -0.3836 C.2     
  10 C10           -0.2073    -0.0660    -0.3160 C.2     
  11 C11           -4.6140    -1.9101     1.0285 C.2     
  12 C12           -3.5070    -3.7397    -0.7195 C.2     
  13 C13           -5.2877    -3.0356     0.7148 C.2     
  14 C14           -4.7302    -3.9723    -0.1726 C.2     
  15 C15           -3.6111     1.4249     1.1065 C.2     
  16 C16            1.0491    -0.5253    -0.4861 C.2     
  17 C17           -3.8757     2.5640     2.0092 C.ar    
  18 C18            2.0100     0.4581    -0.6124 C.2     
  19 C19            1.5502     1.7100    -0.5471 C.2     
  20 C20           -4.8399     3.5162     1.6723 C.ar    
  21 C21           -3.1666     2.6897     3.2056 C.ar    
  22 C22           -5.0827     4.5770     2.5192 C.ar    
  23 C23           -3.4184     3.7549     4.0443 C.ar    
  24 C24           -4.3720     4.6993     3.7018 C.ar    
  25 H25           -2.1321     0.6334     2.2249 H       
  26 H26           -5.0526    -1.1965     1.7103 H       
  27 H27           -3.0721    -4.4520    -1.4050 H       
  28 H28           -6.2605    -3.2178     1.1472 H       
  29 H29           -5.2728    -4.8723    -0.4217 H       
  30 H30            1.2851    -1.5787    -0.5204 H       
  31 H31            3.0565     0.2315    -0.7533 H       
  32 H32            2.1575     2.5996    -0.6258 H       
  33 H33           -5.3941     3.4222     0.7501 H       
  34 H34           -2.4228     1.9540     3.4737 H       
  35 H35           -5.8281     5.3141     2.2597 H       
  36 H36           -2.8706     3.8532     4.9698 H       
@<TRIPOS>BOND
   1    1   24 1
   2    2   10 1
   3    2   19 1
   4    3   15 2
   5    4    7 1
   6    4    9 1
   7    4   11 1
   8    5    8 1
   9    5    9 2
  10    6    7 1
  11    6   15 am
  12    6   25 1
  13    7    8 2
  14    8   10 1
  15    9   12 1
  16   10   16 2
  17   11   13 2
  18   11   26 1
  19   12   14 2
  20   12   27 1
  21   13   14 1
  22   13   28 1
  23   14   29 1
  24   15   17 1
  25   16   18 1
  26   16   30 1
  27   17   20 ar
  28   17   21 ar
  29   18   19 2
  30   18   31 1
  31   19   32 1
  32   20   22 ar
  33   20   33 1
  34   21   23 ar
  35   21   34 1
  36   22   24 ar
  37   22   35 1
  38   23   24 ar
  39   23   36 1

#	End of record

