#	Name: ASD07300463
#	Creating user name:	WinNT
#	Creation time:	15. 06. 2019 21:09

#	Modifying user name:	WinNT
#	Modification time:	15. 06. 2019 21:09

#	Program:	/corina/corina34_cracker 3.40 0067  02.08.2006

@<TRIPOS>MOLECULE
ASD07300463
  26   27    0    0    0
SMALL
NO_CHARGES


@<TRIPOS>ATOM
   1 C1            -0.0240     1.3787     0.0608 C.ar    
   2 C2             0.0646     0.1155     0.6308 C.ar    
   3 C3             1.2670    -0.5631     0.6221 C.ar    
   4 C4             2.3878     0.0175     0.0429 C.ar    
   5 C5             2.2990     1.2806    -0.5275 C.ar    
   6 C6             1.0966     1.9593    -0.5184 C.ar    
   7 N7            -1.2452     2.0648     0.0650 N.pl3   
   8 N8             3.6067    -0.6700     0.0344 N.pl3   
   9 C9            -0.1493     5.4414     0.4362 C.ar    
  10 N10           -0.1362     4.1265     0.3514 N.ar    
  11 C11           -1.2627     3.4478     0.1541 C.ar    
  12 C12           -2.4638     4.1512     0.0377 C.ar    
  13 C13           -2.4286     5.5283     0.1332 C.ar    
  14 N14           -1.2656     6.1335     0.3305 N.ar    
  15 N15           -3.7422     3.4384    -0.1828 N.pl3   
  16 O16           -4.7928     4.0544    -0.1712 O.2     
  17 O17           -3.7434     2.2358    -0.3759 O.2     
  18 H18           -0.8070    -0.3360     1.0813 H       
  19 H19            1.3361    -1.5452     1.0660 H       
  20 H20            3.1706     1.7323    -0.9777 H       
  21 H21            1.0276     2.9416    -0.9620 H       
  22 H22           -2.0786     1.5720     0.0055 H       
  23 H23            3.6688    -1.5521     0.4331 H       
  24 H24            4.3895    -0.2645    -0.3702 H       
  25 H25            0.7801     5.9661     0.6013 H       
  26 H26           -3.3375     6.1054     0.0477 H       
@<TRIPOS>BOND
   1    1    2 ar
   2    1    6 ar
   3    1    7 1
   4    2    3 ar
   5    2   18 1
   6    3    4 ar
   7    3   19 1
   8    4    5 ar
   9    4    8 1
  10    5    6 ar
  11    5   20 1
  12    6   21 1
  13    7   11 1
  14    7   22 1
  15    8   23 1
  16    8   24 1
  17    9   10 ar
  18    9   14 ar
  19    9   25 1
  20   10   11 ar
  21   11   12 ar
  22   12   13 ar
  23   12   15 1
  24   13   14 ar
  25   13   26 1
  26   15   16 2
  27   15   17 2

#	End of record

