#	Name: ASD01914359
#	Creating user name:	WinNT
#	Creation time:	15. 06. 2019 20:03

#	Modifying user name:	WinNT
#	Modification time:	15. 06. 2019 20:03

#	Program:	/corina/corina34_cracker 3.40 0067  02.08.2006

@<TRIPOS>MOLECULE
ASD01914359
  45   48    0    0    0
SMALL
NO_CHARGES


@<TRIPOS>ATOM
   1 C1            -0.0167     1.3784     0.0096 C.ar    
   2 C2             0.0021    -0.0041     0.0020 C.ar    
   3 C3             1.2074    -0.6814    -0.0127 C.ar    
   4 C4             2.3963     0.0221    -0.0203 C.ar    
   5 C5             2.3802     1.4093    -0.0132 C.ar    
   6 C6             1.1695     2.0865     0.0021 C.ar    
   7 O7             3.5484     2.1036    -0.0202 O.3     
   8 C8             3.4557     3.5296    -0.0122 C.3     
   9 C9             4.8408     4.1231    -0.0217 C.2     
  10 N10            5.9292     3.4056    -0.0351 N.2     
  11 C11            7.0450     4.3377    -0.0053 C.3     
  12 C12            6.3646     5.6061    -0.6237 C.3     
  13 O13            5.0825     5.4644    -0.0229 O.3     
  14 C14            8.2589     4.0514    -0.8542 C.3     
  15 C15            9.0943     5.3262    -0.9908 C.3     
  16 N16            8.5727     6.4766    -0.2710 N.am    
  17 C17            7.2390     6.7283    -0.1372 C.2     
  18 O18            6.8004     7.7585     0.3291 O.2     
  19 C19            9.8739     8.4895    -0.6507 C.ar    
  20 C20            9.1242     9.6498    -0.7011 C.ar    
  21 C21            9.4487    10.6437    -1.6054 C.ar    
  22 C22           10.5232    10.4774    -2.4591 C.ar    
  23 C23           11.2734     9.3175    -2.4081 C.ar    
  24 C24           10.9481     8.3230    -1.5047 C.ar    
  25 C25            9.5239     7.4087     0.3394 C.3     
  26 H26           -0.9595     1.9052     0.0170 H       
  27 H27           -0.9263    -0.5558     0.0080 H       
  28 H28            1.2194    -1.7613    -0.0179 H       
  29 H29            3.3375    -0.5074    -0.0315 H       
  30 H30            1.1543     3.1664     0.0073 H       
  31 H31            2.9113     3.8632    -0.8956 H       
  32 H32            2.9274     3.8543     0.8842 H       
  33 H33            7.3370     4.5362     1.0259 H       
  34 H34            6.3094     5.5641    -1.7115 H       
  35 H35            8.8578     3.2729    -0.3815 H       
  36 H36            7.9414     3.7171    -1.8419 H       
  37 H37           10.1006     5.1193    -0.6265 H       
  38 H38            9.1610     5.5827    -2.0481 H       
  39 H39            8.2847     9.7797    -0.0341 H       
  40 H40            8.8625    11.5499    -1.6452 H       
  41 H41           10.7763    11.2536    -3.1661 H       
  42 H42           12.1125     9.1873    -3.0755 H       
  43 H43           11.5338     7.4165    -1.4654 H       
  44 H44            9.0746     7.8586     1.2247 H       
  45 H45           10.4279     6.8705     0.6244 H       
@<TRIPOS>BOND
   1    1    2 ar
   2    1    6 ar
   3    1   26 1
   4    2    3 ar
   5    2   27 1
   6    3    4 ar
   7    3   28 1
   8    4    5 ar
   9    4   29 1
  10    5    6 ar
  11    5    7 1
  12    6   30 1
  13    7    8 1
  14    8    9 1
  15    8   31 1
  16    8   32 1
  17    9   10 2
  18    9   13 1
  19   10   11 1
  20   11   12 1
  21   11   14 1
  22   11   33 1
  23   12   13 1
  24   12   17 1
  25   12   34 1
  26   14   15 1
  27   14   35 1
  28   14   36 1
  29   15   16 1
  30   15   37 1
  31   15   38 1
  32   16   17 am
  33   16   25 1
  34   17   18 2
  35   19   20 ar
  36   19   24 ar
  37   19   25 1
  38   20   21 ar
  39   20   39 1
  40   21   22 ar
  41   21   40 1
  42   22   23 ar
  43   22   41 1
  44   23   24 ar
  45   23   42 1
  46   24   43 1
  47   25   44 1
  48   25   45 1

#	End of record

