#	Name: ASD02198452
#	Creating user name:	WinNT
#	Creation time:	15. 06. 2019 20:19

#	Modifying user name:	WinNT
#	Modification time:	15. 06. 2019 20:19

#	Program:	/corina/corina34_cracker 3.40 0067  02.08.2006

@<TRIPOS>MOLECULE
ASD02198452
  39   41    0    0    0
SMALL
NO_CHARGES


@<TRIPOS>ATOM
   1 S1            -0.0218     1.7544     0.0117 S.3     
   2 S2            -1.4251    -1.0374     0.0096 S.o2    
   3 C3             0.0021    -0.0041     0.0020 C.2     
   4 C4            -2.2143    -0.2855     2.4216 C.ar    
   5 N5            -1.8073    -1.3339     1.5934 N.am    
   6 O6            -2.4881    -0.2573    -0.5204 O.2     
   7 O7            -1.0225    -2.2818    -0.5458 O.2     
   8 C8            -3.1427     0.6421     1.9655 C.ar    
   9 C9            -3.5428     1.6773     2.7869 C.ar    
  10 C10           -1.6962    -0.1711     3.7052 C.ar    
  11 C11           -2.1008     0.8669     4.5217 C.ar    
  12 C12           -3.0202     1.7918     4.0623 C.ar    
  13 C13           -1.5392     0.9919     5.9145 C.3     
  14 F14           -0.3825     1.7781     5.8821 F       
  15 F15           -2.4885     1.5930     6.7479 F       
  16 F16           -1.2251    -0.2796     6.4064 F       
  17 C17            1.2672    -0.4390    -0.0124 C.2     
  18 C18            2.2249     0.5509    -0.0162 C.2     
  19 C19            1.7362     1.8091    -0.0048 C.2     
  20 C20            2.5504     3.0393    -0.0060 C.ar    
  21 C21            1.9368     4.2991     0.0067 C.ar    
  22 C22            2.7409     5.4226     0.0050 C.ar    
  23 N23            4.0576     5.2782    -0.0084 N.ar    
  24 C24            4.6132     4.0744    -0.0202 C.ar    
  25 N25            3.8821     2.9704    -0.0135 N.ar    
  26 S26            6.3700     3.9403    -0.0378 S.3     
  27 C27            6.8192     5.6936    -0.0327 C.3     
  28 H28           -1.7484    -2.2356     1.9458 H       
  29 H29           -3.5506     0.5537     0.9694 H       
  30 H30           -4.2645     2.3987     2.4329 H       
  31 H31           -0.9779    -0.8932     4.0646 H       
  32 H32           -3.3347     2.6027     4.7026 H       
  33 H33            1.5190    -1.4892    -0.0201 H       
  34 H34            3.2835     0.3372    -0.0271 H       
  35 H35            0.8607     4.3897     0.0171 H       
  36 H36            2.3004     6.4086     0.0141 H       
  37 H37            6.4031     6.1779    -0.9161 H       
  38 H38            6.4202     6.1683     0.8637 H       
  39 H39            7.9049     5.7906    -0.0426 H       
@<TRIPOS>BOND
   1    1    3 1
   2    1   19 1
   3    2    3 1
   4    2    6 2
   5    2    7 2
   6    2    5 am
   7    3   17 2
   8    4    5 1
   9    4    8 ar
  10    4   10 ar
  11    5   28 1
  12    8    9 ar
  13    8   29 1
  14    9   12 ar
  15    9   30 1
  16   10   11 ar
  17   10   31 1
  18   11   12 ar
  19   11   13 1
  20   12   32 1
  21   13   14 1
  22   13   15 1
  23   13   16 1
  24   17   18 1
  25   17   33 1
  26   18   19 2
  27   18   34 1
  28   19   20 1
  29   20   21 ar
  30   20   25 ar
  31   21   22 ar
  32   21   35 1
  33   22   23 ar
  34   22   36 1
  35   23   24 ar
  36   24   25 ar
  37   24   26 1
  38   26   27 1
  39   27   37 1
  40   27   38 1
  41   27   39 1

#	End of record

