#	Name: ASD01940716
#	Creating user name:	WinNT
#	Creation time:	15. 06. 2019 20:13

#	Modifying user name:	WinNT
#	Modification time:	15. 06. 2019 20:13

#	Program:	/corina/corina34_cracker 3.40 0067  02.08.2006

@<TRIPOS>MOLECULE
ASD01940716
  45   47    0    0    0
SMALL
NO_CHARGES


@<TRIPOS>ATOM
   1 C1             0.4945     0.9164     1.1380 C.ar    
   2 C2            -0.2840     0.4428     0.0980 C.ar    
   3 C3             0.2481     0.3319    -1.1753 C.ar    
   4 C4             1.5641     0.6951    -1.4132 C.ar    
   5 C5             2.3504     1.1718    -0.3728 C.ar    
   6 C6             1.8123     1.2826     0.9083 C.ar    
   7 N7             2.6011     1.7635     1.9619 N.am    
   8 S8             2.4148     1.1429     3.4859 S.o2    
   9 C9             2.9511    -0.5839     3.3401 C.3     
  10 O10            3.3305     1.8840     4.2805 O.2     
  11 O11            1.0155     1.2120     3.7237 O.2     
  12 F12           -0.5168    -0.1319    -2.1877 F       
  13 F13            2.0816     0.5852    -2.6563 F       
  14 N14            3.6820     1.5397    -0.6099 N.pl3   
  15 C15            4.6853     0.5654    -0.6213 C.ar    
  16 C16            6.0214     0.9415    -0.7182 C.ar    
  17 C17            4.3507    -0.7787    -0.5302 C.ar    
  18 C18            5.3439    -1.7394    -0.5417 C.ar    
  19 C19            6.6711    -1.3638    -0.6439 C.ar    
  20 C20            7.0100    -0.0246    -0.7292 C.ar    
  21 F21            6.3520     2.2488    -0.8019 F       
  22 Br22           8.0262    -2.6827    -0.6591 Br      
  23 C23            2.7078    -1.3072     4.6662 C.3     
  24 C24            3.1601    -2.7636     4.5432 C.3     
  25 C25            2.3644    -3.4528     3.4329 C.3     
  26 C26            2.6077    -2.7295     2.1068 C.3     
  27 C27            2.1553    -1.2731     2.2298 C.3     
  28 H28            0.0747     1.0055     2.1290 H       
  29 H29           -1.3099     0.1583     0.2795 H       
  30 H30            3.2563     2.4599     1.7986 H       
  31 H31            4.0136    -0.6152     3.0987 H       
  32 H32            3.9077     2.4701    -0.7661 H       
  33 H33            3.3148    -1.0735    -0.4500 H       
  34 H34            5.0834    -2.7851    -0.4705 H       
  35 H35            8.0473     0.2656    -0.8092 H       
  36 H36            3.2747    -0.8162     5.4572 H       
  37 H37            1.6453    -1.2759     4.9075 H       
  38 H38            4.2226    -2.7949     4.3019 H       
  39 H39            2.9868    -3.2789     5.4880 H       
  40 H40            2.6866    -4.4904     3.3453 H       
  41 H41            1.3019    -3.4215     3.6743 H       
  42 H42            3.6702    -2.7608     1.8655 H       
  43 H43            2.0408    -3.2205     1.3158 H       
  44 H44            1.0929    -1.2417     2.4711 H       
  45 H45            2.3287    -0.7578     1.2850 H       
@<TRIPOS>BOND
   1    1    2 ar
   2    1    6 ar
   3    1   28 1
   4    2    3 ar
   5    2   29 1
   6    3    4 ar
   7    3   12 1
   8    4    5 ar
   9    4   13 1
  10    5    6 ar
  11    5   14 1
  12    6    7 1
  13    7    8 am
  14    7   30 1
  15    8    9 1
  16    8   10 2
  17    8   11 2
  18    9   23 1
  19    9   27 1
  20    9   31 1
  21   14   15 1
  22   14   32 1
  23   15   16 ar
  24   15   17 ar
  25   16   21 1
  26   16   20 ar
  27   17   18 ar
  28   17   33 1
  29   18   19 ar
  30   18   34 1
  31   19   20 ar
  32   19   22 1
  33   20   35 1
  34   23   24 1
  35   23   36 1
  36   23   37 1
  37   24   25 1
  38   24   38 1
  39   24   39 1
  40   25   26 1
  41   25   40 1
  42   25   41 1
  43   26   27 1
  44   26   42 1
  45   26   43 1
  46   27   44 1
  47   27   45 1

#	End of record

