#	Name: ASD06170079
#	Creating user name:	WinNT
#	Creation time:	15. 06. 2019 21:05

#	Modifying user name:	WinNT
#	Modification time:	15. 06. 2019 21:05

#	Program:	/corina/corina34_cracker 3.40 0067  02.08.2006

@<TRIPOS>MOLECULE
ASD06170079
  66   70    0    0    0
SMALL
NO_CHARGES


@<TRIPOS>ATOM
   1 N1             0.2662     1.5885    -0.5576 N.pl3   
   2 N2             0.0664     0.2783    -0.1128 N.am    
   3 C3             1.2564    -0.2333     0.2648 C.2     
   4 C4             2.2558     0.8234     0.0408 C.2     
   5 C5             1.5704     1.9107    -0.4652 C.2     
   6 C6             3.6973     0.7386     0.3034 C.2     
   7 O7             4.4151     1.6935     0.0717 O.2     
   8 N8             4.2260    -0.3968     0.8013 N.am    
   9 O9             1.4627    -1.3490     0.7046 O.2     
  10 C10            2.1797     3.2342    -0.8499 C.3     
  11 C11            5.6094    -0.5270     0.9233 C.ar    
  12 C12            6.4059     0.6119     0.9685 C.ar    
  13 C13            7.7764     0.4714     1.0901 C.ar    
  14 C14            8.3078    -0.8140     1.1629 C.ar    
  15 C15            7.4525    -1.9030     1.1116 C.ar    
  16 N16            6.1489    -1.7327     1.0002 N.ar    
  17 O17            9.6496    -0.9981     1.2825 O.3     
  18 N18           11.3270    -0.4867     5.0153 N.ar    
  19 C19           10.0486    -0.2558     4.8289 C.ar    
  20 C20            9.4488    -0.4176     3.5866 C.ar    
  21 C21           10.2081    -0.8321     2.5064 C.ar    
  22 C22           11.5838    -1.0775     2.7186 C.ar    
  23 C23           12.4170    -1.5003     1.6725 C.ar    
  24 C24           13.7377    -1.7287     1.9086 C.ar    
  25 C25           14.2777    -1.5473     3.1851 C.ar    
  26 C26           13.4860    -1.1336     4.2324 C.ar    
  27 C27           12.1204    -0.8901     4.0158 C.ar    
  28 O28           15.5991    -1.7825     3.3946 O.3     
  29 C29           16.3684    -2.2102     2.2688 C.3     
  30 C30           -0.7864     2.4772    -1.0563 C.3     
  31 C31           -1.2619     3.3900     0.0757 C.3     
  32 C32           -2.3612     4.3180    -0.4451 C.3     
  33 O33           -1.7774     2.5941     1.1448 O.3     
  34 C34           -1.1614    -0.3899    -0.0661 C.ar    
  35 C35           -2.0085    -0.3666    -1.1665 C.ar    
  36 C36           -3.2208    -1.0283    -1.1173 C.ar    
  37 C37           -3.5904    -1.7135     0.0273 C.ar    
  38 C38           -2.7487    -1.7379     1.1237 C.ar    
  39 C39           -1.5334    -1.0828     1.0785 C.ar    
  40 Cl40          -4.2810    -0.9998    -2.4916 Cl      
  41 H41            3.6445    -1.1234     1.0747 H       
  42 H42            2.1730     3.9015     0.0119 H       
  43 H43            3.2065     3.0789    -1.1812 H       
  44 H44            1.6004     3.6795    -1.6587 H       
  45 H45            5.9600     1.5937     0.9091 H       
  46 H46            8.4196     1.3382     1.1274 H       
  47 H47            7.8573    -2.9027     1.1675 H       
  48 H48            9.4461     0.0681     5.6647 H       
  49 H49            8.3941    -0.2202     3.4640 H       
  50 H50           12.0114    -1.6446     0.6821 H       
  51 H51           14.3758    -2.0542     1.1004 H       
  52 H52           13.9128    -0.9971     5.2150 H       
  53 H53           15.9616    -3.1458     1.8851 H       
  54 H54           16.3263    -1.4490     1.4897 H       
  55 H55           17.4040    -2.3619     2.5730 H       
  56 H56           -0.3932     3.0843    -1.8718 H       
  57 H57           -1.6239     1.8809    -1.4184 H       
  58 H58           -0.4244     3.9862     0.4378 H       
  59 H59           -3.1987     3.7218    -0.8072 H       
  60 H60           -2.7000     4.9683     0.3614 H       
  61 H61           -1.9680     4.9251    -1.2606 H       
  62 H62           -2.5266     2.0364     0.8941 H       
  63 H63           -1.7203     0.1682    -2.0595 H       
  64 H64           -4.5383    -2.2297     0.0640 H       
  65 H65           -3.0399    -2.2733     2.0153 H       
  66 H66           -0.8748    -1.1059     1.9341 H       
@<TRIPOS>BOND
   1    1    2 1
   2    1    5 1
   3    1   30 1
   4    2    3 am
   5    2   34 1
   6    3    4 1
   7    3    9 2
   8    4    5 2
   9    4    6 1
  10    5   10 1
  11    6    7 2
  12    6    8 am
  13    8   11 1
  14    8   41 1
  15   10   42 1
  16   10   43 1
  17   10   44 1
  18   11   12 ar
  19   11   16 ar
  20   12   13 ar
  21   12   45 1
  22   13   14 ar
  23   13   46 1
  24   14   15 ar
  25   14   17 1
  26   15   16 ar
  27   15   47 1
  28   17   21 1
  29   18   19 ar
  30   18   27 ar
  31   19   20 ar
  32   19   48 1
  33   20   21 ar
  34   20   49 1
  35   21   22 ar
  36   22   23 ar
  37   22   27 ar
  38   23   24 ar
  39   23   50 1
  40   24   25 ar
  41   24   51 1
  42   25   26 ar
  43   25   28 1
  44   26   27 ar
  45   26   52 1
  46   28   29 1
  47   29   53 1
  48   29   54 1
  49   29   55 1
  50   30   31 1
  51   30   56 1
  52   30   57 1
  53   31   32 1
  54   31   33 1
  55   31   58 1
  56   32   59 1
  57   32   60 1
  58   32   61 1
  59   33   62 1
  60   34   35 ar
  61   34   39 ar
  62   35   36 ar
  63   35   63 1
  64   36   37 ar
  65   36   40 1
  66   37   38 ar
  67   37   64 1
  68   38   39 ar
  69   38   65 1
  70   39   66 1

#	End of record

