#	Name: ASD00170231
#	Creating user name:	WinNT
#	Creation time:	15. 06. 2019 18:31

#	Modifying user name:	WinNT
#	Modification time:	15. 06. 2019 18:31

#	Program:	/corina/corina34_cracker 3.40 0067  02.08.2006

@<TRIPOS>MOLECULE
ASD00170231
  43   45    0    0    0
SMALL
NO_CHARGES


@<TRIPOS>ATOM
   1 C1            -0.0160     1.3304     0.0094 C.2     
   2 C2             0.0021    -0.0041     0.0020 C.2     
   3 C3            -1.3370    -0.5763     0.0230 C.2     
   4 C4            -2.3289     0.3653     0.0386 C.2     
   5 S5            -1.6681     1.9332     0.0360 S.3     
   6 N6            -3.6808     0.0823     0.0574 N.pl3   
   7 C7            -1.5955    -2.0157     0.0262 C.2     
   8 O8            -1.7333    -2.6789    -1.1406 O.3     
   9 O9            -1.6863    -2.6151     1.0810 O.2     
  10 C10            1.2106     2.2190     0.0024 C.3     
  11 C11            2.1912     1.7488    -1.0706 C.3     
  12 C12            3.1478     0.7261    -0.4639 C.3     
  13 C13            2.4230    -0.0926     0.6021 C.3     
  14 C14            1.2628    -0.8507    -0.0355 C.3     
  15 C15           -1.9844    -4.0835    -1.0627 C.3     
  16 C16           -2.1103    -4.6582    -2.4751 C.3     
  17 C17           -2.3751    -6.1394    -2.3929 C.ar    
  18 C18           -3.6747    -6.6072    -2.3363 C.ar    
  19 C19           -3.9176    -7.9659    -2.2610 C.ar    
  20 C20           -2.8609    -8.8570    -2.2426 C.ar    
  21 C21           -1.5614    -8.3893    -2.3001 C.ar    
  22 C22           -1.3186    -7.0308    -2.3798 C.ar    
  23 H23           -3.9834    -0.8393     0.0603 H       
  24 H24           -4.3275     0.8051     0.0678 H       
  25 H25            0.9117     3.2463    -0.2059 H       
  26 H26            1.6942     2.1756     0.9783 H       
  27 H27            1.6401     1.2898    -1.8914 H       
  28 H28            2.7586     2.6013    -1.4440 H       
  29 H29            3.5108     0.0605    -1.2471 H       
  30 H30            3.9925     1.2446    -0.0104 H       
  31 H31            3.1184    -0.8027     1.0495 H       
  32 H32            2.0398     0.5749     1.3740 H       
  33 H33            1.0922    -1.7775     0.5121 H       
  34 H34            1.5099    -1.0852    -1.0709 H       
  35 H35           -1.1595    -4.5718    -0.5439 H       
  36 H36           -2.9112    -4.2571    -0.5158 H       
  37 H37           -2.9353    -4.1698    -2.9938 H       
  38 H38           -1.1836    -4.4845    -3.0219 H       
  39 H39           -4.5003    -5.9110    -2.3507 H       
  40 H40           -4.9329    -8.3313    -2.2160 H       
  41 H41           -3.0507    -9.9185    -2.1830 H       
  42 H42           -0.7358    -9.0854    -2.2854 H       
  43 H43           -0.3033    -6.6654    -2.4248 H       
@<TRIPOS>BOND
   1    1    2 2
   2    1   10 1
   3    1    5 1
   4    2    3 1
   5    2   14 1
   6    3    4 2
   7    3    7 1
   8    4    5 1
   9    4    6 1
  10    6   23 1
  11    6   24 1
  12    7    8 1
  13    7    9 2
  14    8   15 1
  15   10   11 1
  16   10   25 1
  17   10   26 1
  18   11   12 1
  19   11   27 1
  20   11   28 1
  21   12   13 1
  22   12   29 1
  23   12   30 1
  24   13   14 1
  25   13   31 1
  26   13   32 1
  27   14   33 1
  28   14   34 1
  29   15   16 1
  30   15   35 1
  31   15   36 1
  32   16   17 1
  33   16   37 1
  34   16   38 1
  35   17   18 ar
  36   17   22 ar
  37   18   19 ar
  38   18   39 1
  39   19   20 ar
  40   19   40 1
  41   20   21 ar
  42   20   41 1
  43   21   22 ar
  44   21   42 1
  45   22   43 1

#	End of record

