#	Name: ASD01915308
#	Creating user name:	WinNT
#	Creation time:	15. 06. 2019 20:05

#	Modifying user name:	WinNT
#	Modification time:	15. 06. 2019 20:05

#	Program:	/corina/corina34_cracker 3.40 0067  02.08.2006

@<TRIPOS>MOLECULE
ASD01915308
  45   48    0    0    0
SMALL
NO_CHARGES


@<TRIPOS>ATOM
   1 N1            -0.0163     1.3479     0.0095 N.2     
   2 C2             0.0021    -0.0041     0.0020 C.2     
   3 N3             1.2564    -0.3731    -0.0119 N.2     
   4 O4             1.9778     0.6020    -0.0136 O.3     
   5 C5             1.2404     1.7168    -0.0006 C.2     
   6 C6             1.7579     3.1322     0.0017 C.3     
   7 C7            -1.1803    -0.9013     0.0089 C.ar    
   8 C8            -1.0083    -2.2829    -0.0002 C.ar    
   9 C9            -2.1159    -3.1152     0.0068 C.ar    
  10 C10           -3.3926    -2.5714     0.0224 C.ar    
  11 C11           -3.5638    -1.1995     0.0310 C.ar    
  12 C12           -2.4657    -0.3632     0.0304 C.ar    
  13 N13            2.8569     3.2613     0.9696 N.am    
  14 C14            4.0810     3.6502     0.2459 C.3     
  15 C15            3.5757     4.3407    -1.0455 C.3     
  16 C16            2.3278     3.4849    -1.3884 C.3     
  17 C17            2.7611     3.0584     2.2986 C.2     
  18 O18            1.6982     2.7403     2.7883 O.2     
  19 C19            3.9747     3.2269     3.1760 C.3     
  20 O20           -1.9521    -4.4643    -0.0021 O.3     
  21 C21           -3.1378    -5.2619     0.0059 C.3     
  22 C22            3.6999     2.9599     4.6653 C.3     
  23 C23            5.0652     2.2535     4.7097 C.3     
  24 C24            4.8905     1.9919     3.2044 C.3     
  25 H25            0.9532     3.8205     0.2604 H       
  26 H26           -0.0141    -2.7047    -0.0130 H       
  27 H27           -4.2549    -3.2216     0.0275 H       
  28 H28           -4.5594    -0.7811     0.0424 H       
  29 H29           -2.6027     0.7080     0.0371 H       
  30 H30            4.6697     4.3467     0.8430 H       
  31 H31            4.6717     2.7682    -0.0017 H       
  32 H32            3.2978     5.3766    -0.8515 H       
  33 H33            4.3212     4.2798    -1.8384 H       
  34 H34            2.6155     2.5823    -1.9276 H       
  35 H35            1.6078     4.0663    -1.9643 H       
  36 H36            4.5048     4.1610     2.9904 H       
  37 H37           -2.8658    -6.3173    -0.0025 H       
  38 H38           -3.7168    -5.0430     0.9031 H       
  39 H39           -3.7352    -5.0336    -0.8767 H       
  40 H40            3.6570     3.8654     5.2705 H       
  41 H41            2.8568     2.2918     4.8408 H       
  42 H42            5.8947     2.9209     4.9435 H       
  43 H43            5.0678     1.3459     5.3132 H       
  44 H44            4.3728     1.0591     2.9805 H       
  45 H45            5.8087     2.1159     2.6302 H       
@<TRIPOS>BOND
   1    1    2 1
   2    1    5 2
   3    2    3 2
   4    2    7 1
   5    3    4 1
   6    4    5 1
   7    5    6 1
   8    6   13 1
   9    6   16 1
  10    6   25 1
  11    7    8 ar
  12    7   12 ar
  13    8    9 ar
  14    8   26 1
  15    9   10 ar
  16    9   20 1
  17   10   11 ar
  18   10   27 1
  19   11   12 ar
  20   11   28 1
  21   12   29 1
  22   13   14 1
  23   13   17 am
  24   14   15 1
  25   14   30 1
  26   14   31 1
  27   15   16 1
  28   15   32 1
  29   15   33 1
  30   16   34 1
  31   16   35 1
  32   17   18 2
  33   17   19 1
  34   19   22 1
  35   19   24 1
  36   19   36 1
  37   20   21 1
  38   21   37 1
  39   21   38 1
  40   21   39 1
  41   22   23 1
  42   22   40 1
  43   22   41 1
  44   23   24 1
  45   23   42 1
  46   23   43 1
  47   24   44 1
  48   24   45 1

#	End of record

