#	Name: ASD04930047
#	Creating user name:	WinNT
#	Creation time:	15. 06. 2019 20:56

#	Modifying user name:	WinNT
#	Modification time:	15. 06. 2019 20:56

#	Program:	/corina/corina34_cracker 3.40 0067  02.08.2006

@<TRIPOS>MOLECULE
ASD04930047
  54   55    0    0    0
SMALL
NO_CHARGES


@<TRIPOS>ATOM
   1 C1            -1.2166    -0.9341    -2.2221 C.ar    
   2 C2            -0.5450    -1.0601    -1.0130 C.ar    
   3 C3            -1.1004    -0.5787     0.1525 C.ar    
   4 C4            -2.3463     0.0413     0.1270 C.ar    
   5 C5            -3.0276     0.1697    -1.0965 C.ar    
   6 C6            -2.4478    -0.3193    -2.2727 C.ar    
   7 N7            -2.9048     0.5238     1.2935 N.am    
   8 C8            -4.1051     1.1275     1.3057 C.2     
   9 C9            -4.8724     1.2979     0.0726 C.2     
  10 C10           -4.3406     0.8223    -1.1282 C.2     
  11 O11           -5.0172     0.9601    -2.2875 O.3     
  12 O12           -4.5605     1.5381     2.3583 O.2     
  13 C13           -6.1830     1.9590     0.0965 C.2     
  14 O14           -6.2520     3.1699     0.1942 O.2     
  15 N15           -7.3099     1.2246     0.0102 N.am    
  16 N16           -8.5604     1.8423     0.1428 N.am    
  17 C17           -9.6872     1.1079     0.0565 C.2     
  18 C18          -11.0323     1.7722     0.1991 C.3     
  19 O19           -9.6186    -0.0876    -0.1360 O.2     
  20 C20          -12.1368     0.7223     0.0619 C.3     
  21 C21          -13.5024     1.3968     0.2067 C.3     
  22 C22          -14.6069     0.3469     0.0695 C.3     
  23 C23          -15.9725     1.0214     0.2143 C.3     
  24 C24          -17.0770    -0.0285     0.0771 C.3     
  25 C25          -18.4426     0.6460     0.2219 C.3     
  26 Cl26          -0.4973    -1.5481    -3.6779 Cl      
  27 C27           -1.2744     1.5950     2.7686 C.3     
  28 C28           -2.1695     0.3733     2.5517 C.3     
  29 H29            0.4219    -1.5404    -0.9860 H       
  30 H30           -0.5686    -0.6829     1.0867 H       
  31 H31           -2.9674    -0.2225    -3.2145 H       
  32 H32           -5.9036     1.3324    -2.1837 H       
  33 H33           -7.2550     0.2685    -0.1437 H       
  34 H34           -8.6152     2.7984     0.2967 H       
  35 H35          -11.1014     2.2464     1.1782 H       
  36 H36          -11.1493     2.5265    -0.5790 H       
  37 H37          -12.0677     0.2482    -0.9171 H       
  38 H38          -12.0197    -0.0320     0.8400 H       
  39 H39          -13.5715     1.8710     1.1858 H       
  40 H40          -13.6194     2.1511    -0.5714 H       
  41 H41          -14.5378    -0.1272    -0.9095 H       
  42 H42          -14.4898    -0.4074     0.8476 H       
  43 H43          -16.0416     1.4956     1.1934 H       
  44 H44          -16.0896     1.7757    -0.5638 H       
  45 H45          -17.0079    -0.5027    -0.9019 H       
  46 H46          -16.9599    -0.7828     0.8552 H       
  47 H47          -19.2295    -0.1020     0.1242 H       
  48 H48          -18.5117     1.1202     1.2010 H       
  49 H49          -18.5597     1.4003    -0.5562 H       
  50 H50           -1.8901     2.4933     2.8129 H       
  51 H51           -0.7273     1.4830     3.7047 H       
  52 H52           -0.5680     1.6791     1.9428 H       
  53 H53           -2.8759     0.2892     3.3775 H       
  54 H54           -1.5537    -0.5250     2.5074 H       
@<TRIPOS>BOND
   1    1    2 ar
   2    1   26 1
   3    1    6 ar
   4    2    3 ar
   5    2   29 1
   6    3    4 ar
   7    3   30 1
   8    4    5 ar
   9    4    7 1
  10    5    6 ar
  11    5   10 1
  12    6   31 1
  13    7    8 am
  14    7   28 1
  15    8    9 1
  16    8   12 2
  17    9   10 2
  18    9   13 1
  19   10   11 1
  20   11   32 1
  21   13   14 2
  22   13   15 am
  23   15   16 1
  24   15   33 1
  25   16   17 am
  26   16   34 1
  27   17   18 1
  28   17   19 2
  29   18   20 1
  30   18   35 1
  31   18   36 1
  32   20   21 1
  33   20   37 1
  34   20   38 1
  35   21   22 1
  36   21   39 1
  37   21   40 1
  38   22   23 1
  39   22   41 1
  40   22   42 1
  41   23   24 1
  42   23   43 1
  43   23   44 1
  44   24   25 1
  45   24   45 1
  46   24   46 1
  47   25   47 1
  48   25   48 1
  49   25   49 1
  50   27   28 1
  51   27   50 1
  52   27   51 1
  53   27   52 1
  54   28   53 1
  55   28   54 1

#	End of record

