#	Name: ASD01918001
#	Creating user name:	WinNT
#	Creation time:	15. 06. 2019 20:10

#	Modifying user name:	WinNT
#	Modification time:	15. 06. 2019 20:10

#	Program:	/corina/corina34_cracker 3.40 0067  02.08.2006

@<TRIPOS>MOLECULE
ASD01918001
  34   35    0    0    0
SMALL
NO_CHARGES


@<TRIPOS>ATOM
   1 C1            -0.0167     1.3798     0.0096 C.ar    
   2 C2             0.0021    -0.0041     0.0020 C.ar    
   3 N3             1.1401    -0.6655    -0.0124 N.ar    
   4 C4             2.3121    -0.0353    -0.0202 C.ar    
   5 C5             2.3655     1.3618    -0.0132 C.ar    
   6 C6             1.1827     2.0788     0.0019 C.ar    
   7 C7             3.5269    -0.7933    -0.0354 C.1     
   8 C8             4.5229    -1.4147    -0.0479 C.1     
   9 C9             5.7378    -2.1727    -0.0630 C.2     
  10 C10            6.9228    -1.5261    -0.0709 C.2     
  11 C11            8.1491    -2.2312    -0.0909 C.2     
  12 C12            8.1622    -3.7383    -0.1115 C.3     
  13 C13            6.8908    -4.2399    -0.8034 C.3     
  14 C14            5.6711    -3.6764    -0.0637 C.3     
  15 N15            9.2708    -1.5758    -0.0920 N.2     
  16 O16           10.5007    -2.2773    -0.1120 O.3     
  17 C17           11.6524    -1.4313    -0.1109 C.3     
  18 C18           -1.2989    -0.7646     0.0109 C.3     
  19 H19           -0.9567     1.9116     0.0170 H       
  20 H20            3.3165     1.8738    -0.0192 H       
  21 H21            1.1920     3.1587     0.0073 H       
  22 H22            6.9350    -0.4462    -0.0620 H       
  23 H23            9.0374    -4.0878    -0.6591 H       
  24 H24            8.1947    -4.1166     0.9102 H       
  25 H25            6.8816    -3.9019    -1.8396 H       
  26 H26            6.8641    -5.3292    -0.7728 H       
  27 H27            5.6649    -4.0401     0.9638 H       
  28 H28            4.7605    -3.9993    -0.5684 H       
  29 H29           11.6333    -0.7904    -0.9923 H       
  30 H30           11.6489    -0.8140     0.7874 H       
  31 H31           12.5535    -2.0444    -0.1269 H       
  32 H32           -1.6228    -0.9424    -1.0146 H       
  33 H33           -1.1584    -1.7190     0.5182 H       
  34 H34           -2.0566    -0.1823     0.5354 H       
@<TRIPOS>BOND
   1    1    2 ar
   2    1    6 ar
   3    1   19 1
   4    2    3 ar
   5    2   18 1
   6    3    4 ar
   7    4    5 ar
   8    4    7 1
   9    5    6 ar
  10    5   20 1
  11    6   21 1
  12    7    8 3
  13    8    9 1
  14    9   10 2
  15    9   14 1
  16   10   11 1
  17   10   22 1
  18   11   12 1
  19   11   15 2
  20   12   13 1
  21   12   23 1
  22   12   24 1
  23   13   14 1
  24   13   25 1
  25   13   26 1
  26   14   27 1
  27   14   28 1
  28   15   16 1
  29   16   17 1
  30   17   29 1
  31   17   30 1
  32   17   31 1
  33   18   32 1
  34   18   33 1
  35   18   34 1

#	End of record

