#	Name: ASD01815702
#	Creating user name:	WinNT
#	Creation time:	15. 06. 2019 19:33

#	Modifying user name:	WinNT
#	Modification time:	15. 06. 2019 19:33

#	Program:	/corina/corina34_cracker 3.40 0067  02.08.2006

@<TRIPOS>MOLECULE
ASD01815702
  57   62    0    0    0
SMALL
NO_CHARGES


@<TRIPOS>ATOM
   1 C1            -0.5366     0.6895     0.5978 C.ar    
   2 C2            -0.2800    -0.6764     0.5372 C.ar    
   3 C3             0.9863    -1.1447     0.3497 C.ar    
   4 C4             2.0507    -0.2401     0.2153 C.ar    
   5 C5             1.7856     1.1497     0.2775 C.ar    
   6 C6             0.4746     1.5967     0.4709 C.ar    
   7 C7             3.3715    -0.6952     0.0199 C.ar    
   8 C8             4.4005     0.1757    -0.1106 C.ar    
   9 C9             4.1921     1.5627    -0.0565 C.ar    
  10 C10            2.8994     2.0831     0.1365 C.ar    
  11 C11            5.3000     2.5163    -0.1978 C.2     
  12 N12            5.0004     3.8344    -0.1328 N.am    
  13 C13            3.7202     4.2409     0.0565 C.2     
  14 N14            2.7235     3.4142     0.1837 N.2     
  15 O15            6.4444     2.1355    -0.3665 O.2     
  16 C16            6.0668     4.8298    -0.2675 C.3     
  17 C17            6.1314     5.6864     1.0007 C.3     
  18 C18            7.1945     6.7730     0.8197 C.3     
  19 O19            6.8786     7.5596    -0.3309 O.3     
  20 C20            6.8508     6.8201    -1.5534 C.3     
  21 C21            5.7739     5.7354    -1.4677 C.3     
  22 O22            6.4758     4.8626     2.1164 O.3     
  23 C23            3.6424    -2.1763    -0.0442 C.3     
  24 C24            3.3860    -2.6737    -1.4434 C.ar    
  25 C25            3.4433    -4.0368    -1.7437 C.ar    
  26 C26            3.1977    -4.4664    -3.0619 C.ar    
  27 N27            2.9150    -3.5764    -4.0042 N.ar    
  28 C28            2.8561    -2.2882    -3.7424 C.ar    
  29 C29            3.0815    -1.7954    -2.4660 C.ar    
  30 C30            3.7194    -5.2451    -0.9641 C.2     
  31 C31            3.6299    -6.2836    -1.8105 C.2     
  32 N32            3.3190    -5.8352    -3.0674 N.pl3   
  33 Br33           4.1253    -5.3271     0.8810 Br      
  34 C34            3.1409    -6.6896    -4.2440 C.3     
  35 H35           -1.5492     1.0361     0.7426 H       
  36 H36           -1.0961    -1.3761     0.6405 H       
  37 H37            1.1699    -2.2081     0.3052 H       
  38 H38            0.2636     2.6548     0.5192 H       
  39 H39            5.4005    -0.2042    -0.2588 H       
  40 H40            3.5187     5.3009     0.1038 H       
  41 H41            7.0211     4.3241    -0.4149 H       
  42 H42            5.1613     6.1515     1.1759 H       
  43 H43            7.2150     7.4121     1.7024 H       
  44 H44            8.1708     6.3075     0.6849 H       
  45 H45            6.6238     7.4932    -2.3802 H       
  46 H46            7.8226     6.3552    -1.7193 H       
  47 H47            5.7809     5.1420    -2.3820 H       
  48 H48            4.7966     6.2015    -1.3424 H       
  49 H49            6.5346     5.3405     2.9550 H       
  50 H50            4.6813    -2.3676     0.2247 H       
  51 H51            2.9850    -2.6964     0.6525 H       
  52 H52            2.6225    -1.5985    -4.5400 H       
  53 H53            3.0279    -0.7339    -2.2745 H       
  54 H54            3.7807    -7.3184    -1.5408 H       
  55 H55            2.0960    -6.9906    -4.3196 H       
  56 H56            3.4259    -6.1381    -5.1400 H       
  57 H57            3.7683    -7.5757    -4.1479 H       
@<TRIPOS>BOND
   1    1    2 ar
   2    1    6 ar
   3    1   35 1
   4    2    3 ar
   5    2   36 1
   6    3    4 ar
   7    3   37 1
   8    4    5 ar
   9    4    7 ar
  10    5    6 ar
  11    5   10 ar
  12    6   38 1
  13    7    8 ar
  14    7   23 1
  15    8    9 ar
  16    8   39 1
  17    9   10 ar
  18    9   11 1
  19   10   14 1
  20   11   12 am
  21   11   15 2
  22   12   13 1
  23   12   16 1
  24   13   14 2
  25   13   40 1
  26   16   17 1
  27   16   21 1
  28   16   41 1
  29   17   18 1
  30   17   22 1
  31   17   42 1
  32   18   19 1
  33   18   43 1
  34   18   44 1
  35   19   20 1
  36   20   21 1
  37   20   45 1
  38   20   46 1
  39   21   47 1
  40   21   48 1
  41   22   49 1
  42   23   24 1
  43   23   50 1
  44   23   51 1
  45   24   25 ar
  46   24   29 ar
  47   25   26 ar
  48   25   30 1
  49   26   27 ar
  50   26   32 1
  51   27   28 ar
  52   28   29 ar
  53   28   52 1
  54   29   53 1
  55   30   31 2
  56   30   33 1
  57   31   32 1
  58   31   54 1
  59   32   34 1
  60   34   55 1
  61   34   56 1
  62   34   57 1

#	End of record

