#	Name: ASD01881565
#	Creating user name:	WinNT
#	Creation time:	15. 06. 2019 19:42

#	Modifying user name:	WinNT
#	Modification time:	15. 06. 2019 19:42

#	Program:	/corina/corina34_cracker 3.40 0067  02.08.2006

@<TRIPOS>MOLECULE
ASD01881565
  58   62    0    0    0
SMALL
NO_CHARGES


@<TRIPOS>ATOM
   1 C1            -0.1269     1.4358     0.4614 C.2     
   2 C2            -0.0962     0.0331     0.5438 C.2     
   3 C3            -1.1393    -0.6993     0.1004 C.2     
   4 N4            -2.2366    -0.0896    -0.4327 N.pl3   
   5 C5            -2.2958     1.2793    -0.5260 C.2     
   6 C6            -1.2173     2.0574    -0.0628 C.2     
   7 C7            -3.4090    -0.5490    -0.9481 C.2     
   8 N8            -4.1098     0.4911    -1.3198 N.2     
   9 N9            -3.4623     1.5759    -1.0753 N.2     
  10 C10           -3.8242    -1.9926    -1.0692 C.3     
  11 C11            1.0412     2.2484     0.9577 C.3     
  12 C12           -4.5653    -2.4183     0.1999 C.3     
  13 C13            2.1220     3.0631     2.9648 C.3     
  14 N14            0.8964     2.4836     2.4005 N.3     
  15 C15           -5.1735    -3.8220     0.2256 C.3     
  16 C16           -3.9269    -3.5131     1.0571 C.3     
  17 C17            1.8864     3.4284     4.4322 C.3     
  18 C18            1.4899     2.1699     5.2090 C.3     
  19 C19            0.2390     1.5589     4.5715 C.3     
  20 C20            0.5224     1.2478     3.1001 C.3     
  21 C21            3.1508     4.0032     5.0169 C.ar    
  22 C22            0.7627     4.4624     4.5271 C.3     
  23 C23            3.1795     4.4082     6.3382 C.ar    
  24 C24            4.2837     4.1201     4.2334 C.ar    
  25 C25            5.4435     4.6474     4.7697 C.ar    
  26 C26            5.4704     5.0580     6.0894 C.ar    
  27 C27            4.3393     4.9355     6.8746 C.ar    
  28 C28           -1.2659     3.5606    -0.1572 C.3     
  29 F29           -0.4984     3.9845    -1.2474 F       
  30 F30           -2.5910     3.9744    -0.3308 F       
  31 F31           -0.7535     4.1185     1.0190 F       
  32 H32            0.7672    -0.4613     0.9640 H       
  33 H33           -1.1048    -1.7767     0.1680 H       
  34 H34           -4.4815    -2.1106    -1.9306 H       
  35 H35           -2.9393    -2.6155    -1.1994 H       
  36 H36            1.9676     1.7058     0.7691 H       
  37 H37            1.0672     3.2044     0.4346 H       
  38 H38           -5.1067    -1.6257     0.7164 H       
  39 H39            2.9319     2.3368     2.8969 H       
  40 H40            2.3905     3.9596     2.4060 H       
  41 H41           -6.1148    -3.9529     0.7593 H       
  42 H42           -5.0457    -4.4422    -0.6616 H       
  43 H43           -2.9790    -3.9300     0.7170 H       
  44 H44           -4.0481    -3.4408     2.1380 H       
  45 H45            2.3060     1.4482     5.1743 H       
  46 H46            1.2790     2.4330     6.2456 H       
  47 H47           -0.0234     0.6390     5.0940 H       
  48 H48           -0.5874     2.2662     4.6413 H       
  49 H49           -0.3709     0.8259     2.6396 H       
  50 H50            1.3398     0.5300     3.0316 H       
  51 H51           -0.1517     4.0450     4.1055 H       
  52 H52            0.5953     4.7222     5.5724 H       
  53 H53            1.0440     5.3567     3.9710 H       
  54 H54            2.2956     4.3130     6.9515 H       
  55 H55            4.2627     3.7993     3.2024 H       
  56 H56            6.3288     4.7381     4.1578 H       
  57 H57            6.3767     5.4696     6.5085 H       
  58 H58            4.3603     5.2563     7.9056 H       
@<TRIPOS>BOND
   1    1    2 1
   2    1   11 1
   3    1    6 2
   4    2    3 2
   5    2   32 1
   6    3    4 1
   7    3   33 1
   8    4    5 1
   9    4    7 1
  10    5    6 1
  11    5    9 2
  12    6   28 1
  13    7    8 2
  14    7   10 1
  15    8    9 1
  16   10   12 1
  17   10   34 1
  18   10   35 1
  19   11   14 1
  20   11   36 1
  21   11   37 1
  22   12   15 1
  23   12   16 1
  24   12   38 1
  25   13   14 1
  26   13   17 1
  27   13   39 1
  28   13   40 1
  29   14   20 1
  30   15   16 1
  31   15   41 1
  32   15   42 1
  33   16   43 1
  34   16   44 1
  35   17   18 1
  36   17   21 1
  37   17   22 1
  38   18   19 1
  39   18   45 1
  40   18   46 1
  41   19   20 1
  42   19   47 1
  43   19   48 1
  44   20   49 1
  45   20   50 1
  46   21   23 ar
  47   21   24 ar
  48   22   51 1
  49   22   52 1
  50   22   53 1
  51   23   27 ar
  52   23   54 1
  53   24   25 ar
  54   24   55 1
  55   25   26 ar
  56   25   56 1
  57   26   27 ar
  58   26   57 1
  59   27   58 1
  60   28   29 1
  61   28   30 1
  62   28   31 1

#	End of record

