#	Name: ASD03731683
#	Creating user name:	WinNT
#	Creation time:	15. 06. 2019 20:46

#	Modifying user name:	WinNT
#	Modification time:	15. 06. 2019 20:46

#	Program:	/corina/corina34_cracker 3.40 0067  02.08.2006

@<TRIPOS>MOLECULE
ASD03731683
  37   38    0    0    0
SMALL
NO_CHARGES


@<TRIPOS>ATOM
   1 C1            -0.4035     1.1044    -1.9589 C.2     
   2 C2            -0.2822    -0.2738    -1.4489 C.ar    
   3 C3             0.9016    -0.9941    -1.6473 C.ar    
   4 C4             1.0105    -2.2839    -1.1676 C.ar    
   5 C5            -0.0518    -2.8663    -0.4894 C.ar    
   6 C6            -1.2311    -2.1531    -0.2900 C.ar    
   7 C7            -1.3470    -0.8631    -0.7607 C.ar    
   8 O8             0.5256     1.6170    -2.5528 O.2     
   9 N9            -1.5462     1.7941    -1.7716 N.am    
  10 S10           -1.6825     3.3419    -2.3443 S.o2    
  11 O11           -2.9847     3.7490    -1.9473 O.2     
  12 O12           -0.5257     4.0020    -1.8489 O.2     
  13 C13           -1.5923     3.1669    -4.1476 C.3     
  14 F14           -2.2615    -2.7250     0.3706 F       
  15 F15            1.9356    -0.4281    -2.3075 F       
  16 O16            0.0593    -4.1350    -0.0197 O.3     
  17 C17            1.2616    -4.7566    -0.1396 C.ar    
  18 C18            2.2133    -4.6272     0.8625 C.ar    
  19 C19            3.4368    -5.2596     0.7409 C.ar    
  20 C20            3.7149    -6.0221    -0.3791 C.ar    
  21 C21            2.7662    -6.1542    -1.3827 C.ar    
  22 C22            1.5366    -5.5252    -1.2603 C.ar    
  23 O23            3.0402    -6.9032    -2.4830 O.3     
  24 C24            4.3250    -7.5262    -2.5402 C.3     
  25 Cl25           4.6257    -5.0959     1.9953 Cl      
  26 H26            1.9232    -2.8408    -1.3203 H       
  27 H27           -2.2606    -0.3095    -0.6015 H       
  28 H28           -2.2888     1.3838    -1.3013 H       
  29 H29           -2.4086     2.5321    -4.4923 H       
  30 H30           -1.6748     4.1493    -4.6125 H       
  31 H31           -0.6394     2.7141    -4.4215 H       
  32 H32            1.9980    -4.0320     1.7376 H       
  33 H33            4.6715    -6.5147    -0.4726 H       
  34 H34            0.7955    -5.6305    -2.0388 H       
  35 H35            4.4134    -8.0920    -3.4677 H       
  36 H36            5.1013    -6.7619    -2.5055 H       
  37 H37            4.4402    -8.2000    -1.6912 H       
@<TRIPOS>BOND
   1    1    2 1
   2    1    8 2
   3    1    9 am
   4    2    3 ar
   5    2    7 ar
   6    3    4 ar
   7    3   15 1
   8    4    5 ar
   9    4   26 1
  10    5    6 ar
  11    5   16 1
  12    6    7 ar
  13    6   14 1
  14    7   27 1
  15    9   10 am
  16    9   28 1
  17   10   11 2
  18   10   12 2
  19   10   13 1
  20   13   29 1
  21   13   30 1
  22   13   31 1
  23   16   17 1
  24   17   18 ar
  25   17   22 ar
  26   18   19 ar
  27   18   32 1
  28   19   20 ar
  29   19   25 1
  30   20   21 ar
  31   20   33 1
  32   21   22 ar
  33   21   23 1
  34   22   34 1
  35   23   24 1
  36   24   35 1
  37   24   36 1
  38   24   37 1

#	End of record

