#	Name: ASD01208650
#	Creating user name:	WinNT
#	Creation time:	15. 06. 2019 19:10

#	Modifying user name:	WinNT
#	Modification time:	15. 06. 2019 19:10

#	Program:	/corina/corina34_cracker 3.40 0067  02.08.2006

@<TRIPOS>MOLECULE
ASD01208650
  80   81    0    0    0
SMALL
NO_CHARGES


@<TRIPOS>ATOM
   1 N1            -0.5947     3.3753     2.6078 N.pl3   
   2 C2            -0.6936     2.1688     3.2637 C.2     
   3 C3             0.5376     1.5475     3.2013 C.2     
   4 C4             1.3956     2.3902     2.4970 C.2     
   5 C5             0.6792     3.5119     2.1395 C.2     
   6 C6            -1.8951     1.6374     3.9139 C.2     
   7 O7            -1.8597     0.5527     4.4647 O.2     
   8 N8            -3.0390     2.3500     3.9017 N.am    
   9 C9             1.2021     4.6662     1.3784 C.ar    
  10 C10            0.3673     5.7441     1.0805 C.ar    
  11 C11            0.8612     6.8234     0.3672 C.ar    
  12 C12            2.1841     6.8339    -0.0517 C.ar    
  13 C13            3.0174     5.7645     0.2423 C.ar    
  14 C14            2.5332     4.6836     0.9607 C.ar    
  15 O15            4.3122     5.7798    -0.1703 O.3     
  16 Si16           5.3685     6.2572     0.9771 Si      
  17 C17            7.1070     6.0915     0.3284 C.3     
  18 C18            7.2588     4.7472    -0.3862 C.3     
  19 C19            7.3946     7.2274    -0.6555 C.3     
  20 C20            5.0390     8.0357     1.4232 C.3     
  21 C21            4.8902     8.8630     0.1449 C.3     
  22 C22            3.7496     8.1257     2.2419 C.3     
  23 C23            5.1660     5.1896     2.4904 C.3     
  24 C24            5.6119     3.7614     2.1703 C.3     
  25 C25            6.0234     5.7488     3.6275 C.3     
  26 O26            0.0490     7.8736     0.0766 O.3     
  27 C27           -1.3267     7.7507     0.4431 C.3     
  28 C28           -2.1797     8.6270    -0.4763 C.3     
  29 C29           -1.5105     8.2027     1.8932 C.3     
  30 O30           -1.8528    10.0015    -0.2622 O.3     
  31 C31           -2.5974    10.9097    -1.0764 C.3     
  32 C32           -4.2398     1.8190     4.5515 C.3     
  33 C33           -5.3889     2.8167     4.3933 C.3     
  34 C34           -6.6430     2.2621     5.0720 C.3     
  35 O35           -7.7450     3.1377     4.8251 O.3     
  36 O36           -5.0283     4.0588     5.0009 O.3     
  37 H37           -1.3118     4.0185     2.4941 H       
  38 H38            0.7897     0.5850     3.6215 H       
  39 H39            2.4344     2.1988     2.2723 H       
  40 H40           -3.0672     3.2145     3.4627 H       
  41 H41           -0.6626     5.7364     1.4055 H       
  42 H42            2.5659     7.6769    -0.6084 H       
  43 H43            3.1838     3.8535     1.1930 H       
  44 H44            7.8112     6.1431     1.1588 H       
  45 H45            6.5251     4.6777    -1.1893 H       
  46 H46            8.2627     4.6688    -0.8034 H       
  47 H47            7.0966     3.9373     0.3251 H       
  48 H48            6.6195     7.2495    -1.4216 H       
  49 H49            7.4044     8.1773    -0.1210 H       
  50 H50            8.3648     7.0646    -1.1249 H       
  51 H51            5.8708     8.4228     2.0118 H       
  52 H52            4.1647     8.3862    -0.5142 H       
  53 H53            4.5463     9.8657     0.3989 H       
  54 H54            5.8537     8.9267    -0.3609 H       
  55 H55            3.8932     7.6294     3.2017 H       
  56 H56            3.4973     9.1729     2.4085 H       
  57 H57            2.9396     7.6388     1.6987 H       
  58 H58            4.1191     5.1840     2.7937 H       
  59 H59            6.6943     3.7383     2.0447 H       
  60 H60            5.3268     3.0999     2.9884 H       
  61 H61            5.1320     3.4286     1.2500 H       
  62 H62            7.0772     5.6721     3.3595 H       
  63 H63            5.7665     6.7946     3.7958 H       
  64 H64            5.8375     5.1780     4.5373 H       
  65 H65           -1.6374     6.7105     0.3446 H       
  66 H66           -1.9815     8.3640    -1.5154 H       
  67 H67           -3.2349     8.4658    -0.2556 H       
  68 H68           -2.5599     8.1089     2.1727 H       
  69 H69           -0.9029     7.5784     2.5482 H       
  70 H70           -1.1999     9.2429     1.9917 H       
  71 H71           -2.2910    11.9318    -0.8541 H       
  72 H72           -2.4079    10.6940    -2.1279 H       
  73 H73           -3.6612    10.7958    -0.8681 H       
  74 H74           -4.5149     0.8715     4.0881 H       
  75 H75           -4.0395     1.6605     5.6112 H       
  76 H76           -5.5892     2.9752     3.3336 H       
  77 H77           -6.8668     1.2740     4.6699 H       
  78 H78           -6.4720     2.1872     6.1458 H       
  79 H79           -8.5754     2.8476     5.2267 H       
  80 H80           -4.8357     3.9930     5.9462 H       
@<TRIPOS>BOND
   1    1    2 1
   2    1    5 1
   3    1   37 1
   4    2    3 2
   5    2    6 1
   6    3    4 1
   7    3   38 1
   8    4    5 2
   9    4   39 1
  10    5    9 1
  11    6    7 2
  12    6    8 am
  13    8   32 1
  14    8   40 1
  15    9   10 ar
  16    9   14 ar
  17   10   11 ar
  18   10   41 1
  19   11   12 ar
  20   11   26 1
  21   12   13 ar
  22   12   42 1
  23   13   14 ar
  24   13   15 1
  25   14   43 1
  26   15   16 1
  27   16   17 1
  28   16   20 1
  29   16   23 1
  30   17   18 1
  31   17   19 1
  32   17   44 1
  33   18   45 1
  34   18   46 1
  35   18   47 1
  36   19   48 1
  37   19   49 1
  38   19   50 1
  39   20   21 1
  40   20   22 1
  41   20   51 1
  42   21   52 1
  43   21   53 1
  44   21   54 1
  45   22   55 1
  46   22   56 1
  47   22   57 1
  48   23   24 1
  49   23   25 1
  50   23   58 1
  51   24   59 1
  52   24   60 1
  53   24   61 1
  54   25   62 1
  55   25   63 1
  56   25   64 1
  57   26   27 1
  58   27   28 1
  59   27   29 1
  60   27   65 1
  61   28   30 1
  62   28   66 1
  63   28   67 1
  64   29   68 1
  65   29   69 1
  66   29   70 1
  67   30   31 1
  68   31   71 1
  69   31   72 1
  70   31   73 1
  71   32   33 1
  72   32   74 1
  73   32   75 1
  74   33   34 1
  75   33   36 1
  76   33   76 1
  77   34   35 1
  78   34   77 1
  79   34   78 1
  80   35   79 1
  81   36   80 1

#	End of record

