#	Name: ASD01910416
#	Creating user name:	WinNT
#	Creation time:	15. 06. 2019 19:55

#	Modifying user name:	WinNT
#	Modification time:	15. 06. 2019 19:55

#	Program:	/corina/corina34_cracker 3.40 0067  02.08.2006

@<TRIPOS>MOLECULE
ASD01910416
  44   46    0    0    0
SMALL
NO_CHARGES


@<TRIPOS>ATOM
   1 C1            -0.2417     1.6443    -0.8729 C.ar    
   2 C2            -0.0915     0.3225    -1.2481 C.ar    
   3 C3             1.1086    -0.3267    -1.0322 C.ar    
   4 C4             2.1659     0.3490    -0.4374 C.ar    
   5 C5             2.0141     1.6767    -0.0609 C.ar    
   6 C6             0.8105     2.3222    -0.2792 C.ar    
   7 N7             3.3822    -0.3073    -0.2175 N.am    
   8 C8             4.5418     0.3727    -0.3137 C.2     
   9 O9             5.7039    -0.2303     0.0010 O.3     
  10 O10            4.5387     1.5299    -0.6843 O.2     
  11 C11            7.4829     0.4040    -1.5394 C.3     
  12 C12            6.9136     0.5627    -0.1261 C.3     
  13 C13            7.9489     0.0822     0.8934 C.3     
  14 C14            9.2122     0.9388     0.7826 C.3     
  15 C15            9.8076     0.7844    -0.6204 C.3     
  16 N16            8.7717     1.1057    -1.6117 N.am    
  17 C17            8.9994     2.0270    -2.5687 C.2     
  18 O18            8.1644     2.2288    -3.4290 O.2     
  19 C19           10.2634     2.7914    -2.5724 C.ar    
  20 C20           11.4806     2.1338    -2.3819 C.ar    
  21 C21           12.6571     2.8519    -2.3862 C.ar    
  22 C22           12.6335     4.2248    -2.5792 C.ar    
  23 C23           11.4278     4.8828    -2.7684 C.ar    
  24 C24           10.2459     4.1735    -2.7721 C.ar    
  25 F25           13.7896     4.9239    -2.5825 F       
  26 F26            0.6611     3.6143     0.0861 F       
  27 H27           -1.1796     2.1509    -1.0470 H       
  28 H28           -0.9137    -0.2036    -1.7104 H       
  29 H29            1.2243    -1.3597    -1.3255 H       
  30 H30            2.8347     2.2048     0.4019 H       
  31 H31            3.3906    -1.2516     0.0041 H       
  32 H32            7.6300    -0.6538    -1.7575 H       
  33 H33            6.7909     0.8355    -2.2627 H       
  34 H34            6.6823     1.6120     0.0572 H       
  35 H35            7.5369     0.1711     1.8987 H       
  36 H36            8.1982    -0.9600     0.6942 H       
  37 H37            8.9592     1.9846     0.9574 H       
  38 H38            9.9402     0.6112     1.5248 H       
  39 H39           10.6494     1.4668    -0.7373 H       
  40 H40           10.1443    -0.2424    -0.7635 H       
  41 H41           11.5000     1.0646    -2.2311 H       
  42 H42           13.5989     2.3444    -2.2386 H       
  43 H43           11.4150     5.9523    -2.9179 H       
  44 H44            9.3073     4.6869    -2.9199 H       
@<TRIPOS>BOND
   1    1    2 ar
   2    1    6 ar
   3    1   27 1
   4    2    3 ar
   5    2   28 1
   6    3    4 ar
   7    3   29 1
   8    4    5 ar
   9    4    7 1
  10    5    6 ar
  11    5   30 1
  12    6   26 1
  13    7    8 am
  14    7   31 1
  15    8    9 1
  16    8   10 2
  17    9   12 1
  18   11   12 1
  19   11   16 1
  20   11   32 1
  21   11   33 1
  22   12   13 1
  23   12   34 1
  24   13   14 1
  25   13   35 1
  26   13   36 1
  27   14   15 1
  28   14   37 1
  29   14   38 1
  30   15   16 1
  31   15   39 1
  32   15   40 1
  33   16   17 am
  34   17   18 2
  35   17   19 1
  36   19   20 ar
  37   19   24 ar
  38   20   21 ar
  39   20   41 1
  40   21   22 ar
  41   21   42 1
  42   22   23 ar
  43   22   25 1
  44   23   24 ar
  45   23   43 1
  46   24   44 1

#	End of record

