#	Name: ASD00071075
#	Creating user name:	WinNT
#	Creation time:	15. 06. 2019 18:30

#	Modifying user name:	WinNT
#	Modification time:	15. 06. 2019 18:30

#	Program:	/corina/corina34_cracker 3.40 0067  02.08.2006

@<TRIPOS>MOLECULE
ASD00071075
  37   39    0    0    0
SMALL
NO_CHARGES


@<TRIPOS>ATOM
   1 N1            -0.0157     1.3065     0.0092 N.2     
   2 C2             0.0021    -0.0041     0.0020 C.2     
   3 N3             1.1984    -0.6822     0.0321 N.pl3   
   4 C4             2.3733    -0.0687    -0.6055 C.3     
   5 C5             2.3603     1.4064    -0.2840 C.ar    
   6 C6             3.5312     2.1315    -0.2742 C.ar    
   7 C7             3.5037     3.4858     0.0108 C.ar    
   8 C8             2.3016     4.1162     0.2861 C.ar    
   9 C9             1.1226     3.3979     0.2835 C.ar    
  10 C10            1.1442     2.0306     0.0020 C.ar    
  11 N11           -1.1783    -0.7029    -0.0352 N.pl3   
  12 C12            1.3004    -1.9890     0.6864 C.3     
  13 C13            1.0038    -3.0762    -0.3141 C.ar    
  14 C14            1.9847    -3.4853    -1.2062 C.ar    
  15 C15            1.7086    -4.4863    -2.1259 C.ar    
  16 C16            0.4581    -5.0734    -2.1516 C.ar    
  17 C17           -0.5176    -4.6637    -1.2621 C.ar    
  18 C18           -0.2429    -3.6703    -0.3401 C.ar    
  19 O19            3.2137    -2.9060    -1.1791 O.3     
  20 C20            4.1740    -3.3772    -2.1266 C.3     
  21 Cl21           2.2774     5.8163     0.6365 Cl      
  22 H22            3.2839    -0.5230    -0.2150 H       
  23 H23            2.3232    -0.2111    -1.6850 H       
  24 H24            4.4705     1.6435    -0.4884 H       
  25 H25            4.4229     4.0527     0.0187 H       
  26 H26            0.1868     3.8919     0.4992 H       
  27 H27           -2.0233    -0.2269    -0.0562 H       
  28 H28           -1.1678    -1.6728    -0.0406 H       
  29 H29            2.3087    -2.1213     1.0785 H       
  30 H30            0.5824    -2.0426     1.5047 H       
  31 H31            2.4702    -4.8062    -2.8215 H       
  32 H32            0.2426    -5.8528    -2.8675 H       
  33 H33           -1.4947    -5.1234    -1.2843 H       
  34 H34           -1.0053    -3.3553     0.3569 H       
  35 H35            4.3484    -4.4415    -1.9686 H       
  36 H36            3.7968    -3.2169    -3.1366 H       
  37 H37            5.1094    -2.8327    -1.9974 H       
@<TRIPOS>BOND
   1    1    2 2
   2    1   10 1
   3    2    3 1
   4    2   11 1
   5    3    4 1
   6    3   12 1
   7    4    5 1
   8    4   22 1
   9    4   23 1
  10    5    6 ar
  11    5   10 ar
  12    6    7 ar
  13    6   24 1
  14    7    8 ar
  15    7   25 1
  16    8    9 ar
  17    8   21 1
  18    9   10 ar
  19    9   26 1
  20   11   27 1
  21   11   28 1
  22   12   13 1
  23   12   29 1
  24   12   30 1
  25   13   14 ar
  26   13   18 ar
  27   14   15 ar
  28   14   19 1
  29   15   16 ar
  30   15   31 1
  31   16   17 ar
  32   16   32 1
  33   17   18 ar
  34   17   33 1
  35   18   34 1
  36   19   20 1
  37   20   35 1
  38   20   36 1
  39   20   37 1

#	End of record

