#	Name: ASD05130079
#	Creating user name:	WinNT
#	Creation time:	15. 06. 2019 20:56

#	Modifying user name:	WinNT
#	Modification time:	15. 06. 2019 20:56

#	Program:	/corina/corina34_cracker 3.40 0067  02.08.2006

@<TRIPOS>MOLECULE
ASD05130079
  51   54    0    0    0
SMALL
NO_CHARGES


@<TRIPOS>ATOM
   1 N1            -0.1619     1.5507     0.1046 N.am    
   2 C2             0.0501     0.4226     0.8110 C.2     
   3 O3             1.1171     0.2443     1.3662 O.2     
   4 N4            -0.9207    -0.5079     0.9020 N.am    
   5 C5            -0.6658    -1.7243     1.5450 C.ar    
   6 C6            -1.6768    -2.3639     2.2502 C.ar    
   7 C7            -1.4221    -3.5646     2.8833 C.ar    
   8 C8            -0.1621    -4.1301     2.8154 C.ar    
   9 C9             0.8469    -3.4956     2.1144 C.ar    
  10 C10            0.5972    -2.2974     1.4743 C.ar    
  11 C11            0.8126     2.5572     0.0830 C.ar    
  12 C12            0.4368     3.8862    -0.0888 C.ar    
  13 C13            1.3962     4.8829    -0.1106 C.ar    
  14 C14            2.7321     4.5640     0.0383 C.ar    
  15 C15            3.1167     3.2340     0.2114 C.ar    
  16 C16            2.1497     2.2302     0.2383 C.ar    
  17 N17            6.5383     2.8500     1.7824 N.am    
  18 C18            5.2359     3.1629     1.6359 C.2     
  19 C19            4.5490     2.8900     0.3714 C.2     
  20 C20            5.2384     2.3147    -0.6610 C.2     
  21 C21            6.6054     1.9953    -0.4826 C.ar    
  22 C22            7.3495     1.4062    -1.5122 C.ar    
  23 N23            8.6192     1.1156    -1.3299 N.ar    
  24 C24            9.2446     1.3623    -0.1837 C.ar    
  25 C25            8.5823     1.9443     0.8878 C.ar    
  26 C26            7.2386     2.2713     0.7491 C.ar    
  27 O27            4.6272     3.6745     2.5588 O.2     
  28 N28           10.5856     1.0310    -0.0557 N.pl3   
  29 C29           11.2890     1.2967     1.2016 C.3     
  30 C30            7.2156     3.1336     3.0501 C.3     
  31 F31           -0.8682     4.2039    -0.2349 F       
  32 Br32           4.0394     5.9299     0.0071 Br      
  33 H33           -0.9873     1.6641    -0.3920 H       
  34 H34           -1.7960    -0.3343     0.5219 H       
  35 H35           -2.6611    -1.9226     2.3038 H       
  36 H36           -2.2079    -4.0623     3.4322 H       
  37 H37            0.0346    -5.0692     3.3113 H       
  38 H38            1.8302    -3.9394     2.0638 H       
  39 H39            1.3843    -1.8047     0.9230 H       
  40 H40            1.1001     5.9128    -0.2449 H       
  41 H41            2.4426     1.1998     0.3757 H       
  42 H42            4.7459     2.1069    -1.5994 H       
  43 H43            6.8788     1.1892    -2.4597 H       
  44 H44            9.1023     2.1399     1.8140 H       
  45 H45           11.0576     0.6235    -0.7987 H       
  46 H46           11.2601     2.3652     1.4153 H       
  47 H47           10.8045     0.7510     2.0113 H       
  48 H48           12.3257     0.9717     1.1137 H       
  49 H49            6.5110     3.5925     3.7437 H       
  50 H50            7.5922     2.2040     3.4767 H       
  51 H51            8.0474     3.8154     2.8730 H       
@<TRIPOS>BOND
   1    1    2 am
   2    1   11 1
   3    1   33 1
   4    2    3 2
   5    2    4 am
   6    4    5 1
   7    4   34 1
   8    5    6 ar
   9    5   10 ar
  10    6    7 ar
  11    6   35 1
  12    7    8 ar
  13    7   36 1
  14    8    9 ar
  15    8   37 1
  16    9   10 ar
  17    9   38 1
  18   10   39 1
  19   11   12 ar
  20   11   16 ar
  21   12   13 ar
  22   12   31 1
  23   13   14 ar
  24   13   40 1
  25   14   15 ar
  26   14   32 1
  27   15   16 ar
  28   15   19 1
  29   16   41 1
  30   17   18 am
  31   17   26 1
  32   17   30 1
  33   18   19 1
  34   18   27 2
  35   19   20 2
  36   20   21 1
  37   20   42 1
  38   21   22 ar
  39   21   26 ar
  40   22   23 ar
  41   22   43 1
  42   23   24 ar
  43   24   25 ar
  44   24   28 1
  45   25   26 ar
  46   25   44 1
  47   28   29 1
  48   28   45 1
  49   29   46 1
  50   29   47 1
  51   29   48 1
  52   30   49 1
  53   30   50 1
  54   30   51 1

#	End of record

