#	Name: ASD01208977
#	Creating user name:	WinNT
#	Creation time:	15. 06. 2019 19:10

#	Modifying user name:	WinNT
#	Modification time:	15. 06. 2019 19:10

#	Program:	/corina/corina34_cracker 3.40 0067  02.08.2006

@<TRIPOS>MOLECULE
ASD01208977
  52   55    0    0    0
SMALL
NO_CHARGES


@<TRIPOS>ATOM
   1 C1            -1.7312     1.6921    -1.2881 C.3     
   2 C2            -1.9555     0.1789    -1.2092 C.3     
   3 C3            -1.4258    -0.4722    -2.4905 C.3     
   4 C4            -2.1241     0.1564    -3.6993 C.3     
   5 C5            -2.4177     2.2371    -2.5433 C.3     
   6 C6            -1.2073    -0.3870    -0.0005 C.3     
   7 C7            -1.5523    -1.8684     0.1650 C.3     
   8 C8            -0.7067    -2.4616     1.2623 C.2     
   9 O9            -1.2312    -2.8844     2.2708 O.2     
  10 N10           -2.9690    -2.0040     0.5127 N.pl3   
  11 C11           -3.4930    -1.9241     1.7537 C.2     
  12 C12           -4.8303    -2.1023     1.6490 C.2     
  13 C13           -5.1339    -2.2978     0.2977 C.2     
  14 N14           -4.0196    -2.2336    -0.3850 N.2     
  15 N15            0.6325    -2.5222     1.1230 N.am    
  16 O16           -1.9013     1.5679    -3.6956 O.3     
  17 S17           -5.9851    -2.0901     2.9797 S.o2    
  18 O18           -7.0627    -2.8920     2.5159 O.2     
  19 O19           -5.2188    -2.4767     4.1122 O.2     
  20 C20           -6.4966    -0.3554     3.1193 C.3     
  21 C21           -7.4245     0.0166     4.2776 C.3     
  22 C22           -5.9566     0.4472     4.3047 C.3     
  23 C23            1.4044    -3.1765     2.0826 C.ar    
  24 C24            0.7996    -4.0657     2.9631 C.ar    
  25 C25            1.5768    -4.7089     3.9105 C.ar    
  26 C26            2.9388    -4.4389     3.9441 C.ar    
  27 C27            3.4729    -3.5426     3.0374 C.ar    
  28 N28            2.7070    -2.9488     2.1426 N.ar    
  29 Cl29           3.9592    -5.2180     5.1126 Cl      
  30 H30           -2.1550     2.1697    -0.4047 H       
  31 H31           -0.6624     1.8998    -1.3382 H       
  32 H32           -3.0212    -0.0270    -1.1091 H       
  33 H33           -0.3508    -0.3082    -2.5649 H       
  34 H34           -1.6312    -1.5424    -2.4671 H       
  35 H35           -1.7202    -0.2729    -4.6162 H       
  36 H36           -3.1943    -0.0428    -3.6450 H       
  37 H37           -3.4918     2.0651    -2.4739 H       
  38 H38           -2.2253     3.3067    -2.6274 H       
  39 H39           -0.1337    -0.2790    -0.1545 H       
  40 H40           -1.5022     0.1571     0.8968 H       
  41 H41           -1.3556    -2.3939    -0.7695 H       
  42 H42           -2.9435    -1.7496     2.6669 H       
  43 H43           -6.1186    -2.4679    -0.1119 H       
  44 H44            1.0594    -2.1107     0.3554 H       
  45 H45           -6.6342     0.1716     2.1751 H       
  46 H46           -8.1722     0.7885     4.0956 H       
  47 H47           -7.7275    -0.7811     4.9558 H       
  48 H48           -5.2939    -0.0672     5.0006 H       
  49 H49           -5.7386     1.5025     4.1404 H       
  50 H50           -0.2629    -4.2519     2.9090 H       
  51 H51            1.1344    -5.4047     4.6079 H       
  52 H52            4.5314    -3.3290     3.0592 H       
@<TRIPOS>BOND
   1    1    2 1
   2    1    5 1
   3    1   30 1
   4    1   31 1
   5    2    3 1
   6    2    6 1
   7    2   32 1
   8    3    4 1
   9    3   33 1
  10    3   34 1
  11    4   16 1
  12    4   35 1
  13    4   36 1
  14    5   16 1
  15    5   37 1
  16    5   38 1
  17    6    7 1
  18    6   39 1
  19    6   40 1
  20    7    8 1
  21    7   10 1
  22    7   41 1
  23    8    9 2
  24    8   15 am
  25   10   11 1
  26   10   14 1
  27   11   12 2
  28   11   42 1
  29   12   13 1
  30   12   17 1
  31   13   14 2
  32   13   43 1
  33   15   23 1
  34   15   44 1
  35   17   18 2
  36   17   19 2
  37   17   20 1
  38   20   21 1
  39   20   22 1
  40   20   45 1
  41   21   22 1
  42   21   46 1
  43   21   47 1
  44   22   48 1
  45   22   49 1
  46   23   24 ar
  47   23   28 ar
  48   24   25 ar
  49   24   50 1
  50   25   26 ar
  51   25   51 1
  52   26   27 ar
  53   26   29 1
  54   27   28 ar
  55   27   52 1

#	End of record

