#	Name: ASD01720024
#	Creating user name:	WinNT
#	Creation time:	15. 06. 2019 19:23

#	Modifying user name:	WinNT
#	Modification time:	15. 06. 2019 19:23

#	Program:	/corina/corina34_cracker 3.40 0067  02.08.2006

@<TRIPOS>MOLECULE
ASD01720024
  42   44    0    0    0
SMALL
NO_CHARGES


@<TRIPOS>ATOM
   1 S1             1.8325     3.9337     2.1933 S.2     
   2 P2            -0.0198     1.6058     0.0109 P.3     
   3 P3             2.1671     3.5690     0.3967 P.3     
   4 O4            -0.0429    -2.6265     1.2405 O.3     
   5 O5            -2.6373    -3.4844     2.4468 O.3     
   6 O6            -2.1473    -3.9524    -1.0959 O.3     
   7 O7             0.0021    -0.0041     0.0020 O.3     
   8 O8             1.4907     2.1630    -0.0006 O.3     
   9 O9            -0.7984     2.1391    -1.2935 O.3     
  10 O10           -0.7125     2.0831     1.2285 O.2     
  11 O11            1.5432     4.7410    -0.5141 O.3     
  12 O12            3.7564     3.4880     0.1524 O.3     
  13 N13           -0.0885    -4.2529     2.9935 N.pl3   
  14 N14            0.3021    -3.9125     5.1137 N.2     
  15 N15            0.1757    -6.7316     3.0955 N.ar    
  16 N16            0.6675    -7.5664     5.1941 N.ar    
  17 N17            0.9120    -6.1865     7.0911 N.pl3   
  18 C18           -1.9227    -4.0363     1.3393 C.3     
  19 C19           -2.0790    -3.1464     0.0822 C.3     
  20 C20           -0.3934    -3.9838     1.5861 C.3     
  21 C21           -0.8037    -2.2815     0.0707 C.3     
  22 C22           -1.1801    -0.7991     0.1135 C.3     
  23 C23            0.1436    -5.4839     3.5529 C.ar    
  24 C24            0.0224    -3.3255     3.9864 C.2     
  25 C25            0.3910    -5.2497     4.9159 C.ar    
  26 C26            0.6601    -6.3553     5.7409 C.ar    
  27 C27            0.4353    -7.7364     3.9051 C.ar    
  28 H28           -2.2498    -5.0562     1.1370 H       
  29 H29           -2.9668    -2.5196     0.1665 H       
  30 H30            0.1267    -4.6909     0.9399 H       
  31 H31           -0.2209    -2.4922    -0.8259 H       
  32 H32           -1.6790    -0.5780     1.0570 H       
  33 H33           -1.8511    -0.5706    -0.7146 H       
  34 H34           -3.5909    -3.4128     2.3033 H       
  35 H35           -2.9001    -4.5591    -1.1143 H       
  36 H36           -0.1029    -2.2607     3.8566 H       
  37 H37            0.4534    -8.7379     3.5013 H       
  38 H38            1.0967    -6.9574     7.6501 H       
  39 H39            0.9038    -5.2972     7.4785 H       
  40 H40           -0.3990     1.8638    -2.1300 H       
  41 H41            1.6801     4.6166    -1.4632 H       
  42 H42            4.2300     4.3022     0.3713 H       
@<TRIPOS>BOND
   1    1    3 2
   2    2    7 1
   3    2    8 1
   4    2    9 1
   5    2   10 2
   6    3    8 1
   7    3   11 1
   8    3   12 1
   9    4   20 1
  10    4   21 1
  11    5   18 1
  12    5   34 1
  13    6   19 1
  14    6   35 1
  15    7   22 1
  16    9   40 1
  17   11   41 1
  18   12   42 1
  19   13   20 1
  20   13   23 1
  21   13   24 1
  22   14   24 2
  23   14   25 1
  24   15   23 ar
  25   15   27 ar
  26   16   26 ar
  27   16   27 ar
  28   17   26 1
  29   17   38 1
  30   17   39 1
  31   18   19 1
  32   18   20 1
  33   18   28 1
  34   19   21 1
  35   19   29 1
  36   20   30 1
  37   21   22 1
  38   21   31 1
  39   22   32 1
  40   22   33 1
  41   23   25 ar
  42   24   36 1
  43   25   26 ar
  44   27   37 1

#	End of record

