#	Name: ASD04591113
#	Creating user name:	WinNT
#	Creation time:	15. 06. 2019 20:52

#	Modifying user name:	WinNT
#	Modification time:	15. 06. 2019 20:52

#	Program:	/corina/corina34_cracker 3.40 0067  02.08.2006

@<TRIPOS>MOLECULE
ASD04591113
  56   61    0    0    0
SMALL
NO_CHARGES


@<TRIPOS>ATOM
   1 N1            -0.0715     1.0243    -0.7641 N.ar    
   2 C2             0.0007    -0.0130     0.0597 C.ar    
   3 N3             1.1476    -0.6018     0.3567 N.ar    
   4 C4             2.2883    -0.1667    -0.1701 C.ar    
   5 C5             2.2452     0.9337    -1.0498 C.ar    
   6 C6             1.0156     1.5204    -1.3317 C.ar    
   7 N7             3.5941    -0.5717    -0.0457 N.pl3   
   8 C8             4.4232     0.2254    -0.8160 C.ar    
   9 C9             3.6301     1.1867    -1.4677 C.ar    
  10 C10            5.7942     0.2376    -1.0377 C.ar    
  11 N11            6.3353     1.1310    -1.8405 N.ar    
  12 C12            5.6186     2.0471    -2.4676 C.ar    
  13 C13            4.2507     2.1105    -2.3077 C.ar    
  14 N14           -1.1666    -0.4967     0.6298 N.pl3   
  15 C15           -2.3771     0.1002     0.3367 C.2     
  16 S16           -3.8858    -0.3952     0.9690 S.3     
  17 C17            4.0465    -1.6902     0.7853 C.3     
  18 C18            3.6763    -1.4367     2.2572 C.3     
  19 C19            2.7409    -2.5879     2.6808 C.3     
  20 C20            3.0836    -3.7365     1.6998 C.3     
  21 C21            3.3231    -2.9866     0.3659 C.3     
  22 C22           -4.6978     0.8819     0.0667 C.2     
  23 C23           -3.7452     1.5686    -0.6335 C.2     
  24 N24           -2.5280     1.1223    -0.4554 N.2     
  25 C25           -6.1342     1.1578     0.0664 C.2     
  26 O26           -6.5339     2.3044     0.1553 O.2     
  27 N27           -7.0154     0.1428    -0.0323 N.am    
  28 C28           -6.5567    -1.2351    -0.2650 C.3     
  29 C29           -7.2020    -2.1467     0.7842 C.3     
  30 N30           -8.6593    -1.9642     0.7570 N.3     
  31 C31           -9.0315    -0.5916     1.1250 C.3     
  32 C32           -8.4608     0.3828     0.0958 C.3     
  33 H33            0.9497     2.3646    -2.0020 H       
  34 H34            6.4222    -0.4916    -0.5475 H       
  35 H35            6.1119     2.7571    -3.1148 H       
  36 H36            3.6707     2.8613    -2.8238 H       
  37 H37           -1.1332    -1.2544     1.2346 H       
  38 H38            5.1249    -1.8152     0.6877 H       
  39 H39            4.5750    -1.4396     2.8740 H       
  40 H40            3.1601    -0.4815     2.3532 H       
  41 H41            2.9475    -2.8891     3.7078 H       
  42 H42            1.6976    -2.2915     2.5717 H       
  43 H43            3.9863    -4.2588     2.0168 H       
  44 H44            2.2470    -4.4292     1.6087 H       
  45 H45            2.3739    -2.7546    -0.1171 H       
  46 H46            3.9546    -3.5786    -0.2966 H       
  47 H47           -3.9762     2.4072    -1.2736 H       
  48 H48           -6.8551    -1.5568    -1.2628 H       
  49 H49           -5.4716    -1.2805    -0.1719 H       
  50 H50           -6.9613    -3.1860     0.5606 H       
  51 H51           -6.8216    -1.8895     1.7728 H       
  52 H52           -9.0380    -2.2121    -0.1448 H       
  53 H53          -10.1176    -0.5031     1.1484 H       
  54 H54           -8.6256    -0.3560     2.1088 H       
  55 H55           -8.6358     1.4071     0.4250 H       
  56 H56           -8.9402     0.2184    -0.8692 H       
@<TRIPOS>BOND
   1    1    2 ar
   2    1    6 ar
   3    2    3 ar
   4    2   14 1
   5    3    4 ar
   6    4    5 ar
   7    4    7 1
   8    5    6 ar
   9    5    9 1
  10    6   33 1
  11    7    8 1
  12    7   17 1
  13    8    9 ar
  14    8   10 ar
  15    9   13 ar
  16   10   11 ar
  17   10   34 1
  18   11   12 ar
  19   12   13 ar
  20   12   35 1
  21   13   36 1
  22   14   15 1
  23   14   37 1
  24   15   16 1
  25   15   24 2
  26   16   22 1
  27   17   18 1
  28   17   21 1
  29   17   38 1
  30   18   19 1
  31   18   39 1
  32   18   40 1
  33   19   20 1
  34   19   41 1
  35   19   42 1
  36   20   21 1
  37   20   43 1
  38   20   44 1
  39   21   45 1
  40   21   46 1
  41   22   23 2
  42   22   25 1
  43   23   24 1
  44   23   47 1
  45   25   26 2
  46   25   27 am
  47   27   28 1
  48   27   32 1
  49   28   29 1
  50   28   48 1
  51   28   49 1
  52   29   30 1
  53   29   50 1
  54   29   51 1
  55   30   31 1
  56   30   52 1
  57   31   32 1
  58   31   53 1
  59   31   54 1
  60   32   55 1
  61   32   56 1

#	End of record

