#	Name: ASD01908065
#	Creating user name:	WinNT
#	Creation time:	15. 06. 2019 19:54

#	Modifying user name:	WinNT
#	Modification time:	15. 06. 2019 19:54

#	Program:	/corina/corina34_cracker 3.40 0067  02.08.2006

@<TRIPOS>MOLECULE
ASD01908065
  35   37    0    0    0
SMALL
NO_CHARGES


@<TRIPOS>ATOM
   1 S1            -0.0220     1.7596     0.0535 S.3     
   2 C2             0.0005    -0.0023     0.0408 C.2     
   3 C3             1.7384     1.7827     0.0068 C.2     
   4 N4             2.1838     0.5638    -0.0135 N.2     
   5 C5             1.2807    -0.4063     0.0039 C.2     
   6 C6             1.6590    -1.8428    -0.0156 C.2     
   7 C7             2.9279    -2.3412    -0.0529 C.2     
   8 N8             2.8373    -3.6880    -0.0593 N.pl3   
   9 N9             1.4811    -4.0347    -0.0252 N.2     
  10 C10            0.7728    -2.9367     0.0071 C.2     
  11 N11            2.5256     2.9247    -0.0068 N.pl3   
  12 C12            1.9303     4.1789    -0.0993 C.ar    
  13 N13            0.6220     4.2726    -0.2798 N.ar    
  14 C14            0.0183     5.4422    -0.3728 C.ar    
  15 C15            0.7357     6.6183    -0.2844 C.ar    
  16 C16            2.1105     6.5638    -0.0951 C.ar    
  17 C17            2.7144     5.3235     0.0043 C.ar    
  18 C18            4.2005    -1.5346    -0.0822 C.3     
  19 C19            5.0506    -1.8785     1.1425 C.3     
  20 C20            4.9833    -1.8631    -1.3550 C.3     
  21 H21           -0.8662    -0.6465     0.0598 H       
  22 H22            3.5827    -4.3083    -0.0833 H       
  23 H23           -0.3052    -2.8785     0.0380 H       
  24 H24            3.4911     2.8489     0.0483 H       
  25 H25           -1.0509     5.4799    -0.5203 H       
  26 H26            0.2331     7.5710    -0.3620 H       
  27 H27            2.6942     7.4696    -0.0231 H       
  28 H28            3.7814     5.2445     0.1520 H       
  29 H29            3.9576    -0.4720    -0.0690 H       
  30 H30            5.9711    -1.2951     1.1213 H       
  31 H31            4.4929    -1.6445     2.0493 H       
  32 H32            5.2935    -2.9410     1.1294 H       
  33 H33            4.3777    -1.6180    -2.2275 H       
  34 H34            5.9038    -1.2796    -1.3762 H       
  35 H35            5.2262    -2.9256    -1.3681 H       
@<TRIPOS>BOND
   1    1    2 1
   2    1    3 1
   3    2    5 2
   4    2   21 1
   5    3    4 2
   6    3   11 1
   7    4    5 1
   8    5    6 1
   9    6    7 2
  10    6   10 1
  11    7    8 1
  12    7   18 1
  13    8    9 1
  14    8   22 1
  15    9   10 2
  16   10   23 1
  17   11   12 1
  18   11   24 1
  19   12   13 ar
  20   12   17 ar
  21   13   14 ar
  22   14   15 ar
  23   14   25 1
  24   15   16 ar
  25   15   26 1
  26   16   17 ar
  27   16   27 1
  28   17   28 1
  29   18   19 1
  30   18   20 1
  31   18   29 1
  32   19   30 1
  33   19   31 1
  34   19   32 1
  35   20   33 1
  36   20   34 1
  37   20   35 1

#	End of record

