#	Name: ASD00170721
#	Creating user name:	WinNT
#	Creation time:	15. 06. 2019 18:32

#	Modifying user name:	WinNT
#	Modification time:	15. 06. 2019 18:32

#	Program:	/corina/corina34_cracker 3.40 0067  02.08.2006

@<TRIPOS>MOLECULE
ASD00170721
  33   35    0    0    0
SMALL
NO_CHARGES


@<TRIPOS>ATOM
   1 C1            -0.0184     1.5028     0.0103 C.3     
   2 C2             0.0021    -0.0041     0.0020 C.ar    
   3 C3             0.0229    -0.7014     1.1955 C.ar    
   4 C4             0.0416    -2.0833     1.1886 C.ar    
   5 C5             0.0396    -2.7689    -0.0132 C.ar    
   6 C6             0.0188    -2.0705    -1.2073 C.ar    
   7 C7            -0.0057    -0.6886    -1.1990 C.ar    
   8 Cl8            0.0637    -4.5047    -0.0227 Cl      
   9 C9             2.1539     2.0838     1.1098 C.2     
  10 C10            1.3954     2.0244    -0.0004 C.2     
  11 C11            2.0102     2.4763    -1.1474 C.2     
  12 C12            3.2768     2.9079    -0.9780 C.2     
  13 S13            3.7351     2.7427     0.7119 S.3     
  14 C14            6.2278     4.3488    -2.7982 C.ar    
  15 C15            5.4518     3.8619    -1.7691 C.ar    
  16 C16            4.1449     3.4368    -2.0464 C.ar    
  17 C17            3.6867     3.5283    -3.3683 C.ar    
  18 C18            4.5319     4.0283    -4.3346 C.ar    
  19 N19            5.7561     4.4176    -4.0295 N.ar    
  20 N20            1.7467     1.6894     2.3807 N.pl3   
  21 H21           -0.5455     1.8639    -0.8728 H       
  22 H22           -0.5286     1.8543     0.9071 H       
  23 H23            0.0248    -0.1661     2.1335 H       
  24 H24            0.0582    -2.6280     2.1210 H       
  25 H25            0.0171    -2.6051    -2.1457 H       
  26 H26           -0.0264    -0.1433    -2.1310 H       
  27 H27            1.5164     2.4841    -2.1079 H       
  28 H28            7.2343     4.6829    -2.5940 H       
  29 H29            5.8443     3.8082    -0.7644 H       
  30 H30            2.6866     3.2114    -3.6251 H       
  31 H31            4.1884     4.1025    -5.3558 H       
  32 H32            0.8526     1.3388     2.5164 H       
  33 H33            2.3571     1.7651     3.1308 H       
@<TRIPOS>BOND
   1    1    2 1
   2    1   10 1
   3    1   21 1
   4    1   22 1
   5    2    3 ar
   6    2    7 ar
   7    3    4 ar
   8    3   23 1
   9    4    5 ar
  10    4   24 1
  11    5    6 ar
  12    5    8 1
  13    6    7 ar
  14    6   25 1
  15    7   26 1
  16    9   10 2
  17    9   13 1
  18    9   20 1
  19   10   11 1
  20   11   12 2
  21   11   27 1
  22   12   13 1
  23   12   16 1
  24   14   15 ar
  25   14   19 ar
  26   14   28 1
  27   15   16 ar
  28   15   29 1
  29   16   17 ar
  30   17   18 ar
  31   17   30 1
  32   18   19 ar
  33   18   31 1
  34   20   32 1
  35   20   33 1

#	End of record

