#	Name: ASD01913381
#	Creating user name:	WinNT
#	Creation time:	15. 06. 2019 20:01

#	Modifying user name:	WinNT
#	Modification time:	15. 06. 2019 20:01

#	Program:	/corina/corina34_cracker 3.40 0067  02.08.2006

@<TRIPOS>MOLECULE
ASD01913381
  34   36    0    0    0
SMALL
NO_CHARGES


@<TRIPOS>ATOM
   1 C1            -1.3931     1.3155     1.2483 C.ar    
   2 C2            -1.1060    -0.0444     1.1897 C.ar    
   3 C3            -0.7679    -0.6983     2.3701 C.ar    
   4 N4            -0.7317    -0.0086     3.4983 N.ar    
   5 C5            -1.0104     1.2795     3.5129 C.ar    
   6 N6            -1.3348     1.9342     2.4161 N.ar    
   7 O7            -1.1550    -0.7170     0.0097 O.3     
   8 C8            -0.9699    -2.0630     0.0344 C.ar    
   9 C9             0.3048    -2.5909    -0.1187 C.ar    
  10 C10            0.4991    -3.9609    -0.0944 C.ar    
  11 C11           -0.5743    -4.8114     0.0819 C.ar    
  12 C12           -1.8597    -4.2887     0.2367 C.ar    
  13 C13           -2.0527    -2.9072     0.2180 C.ar    
  14 C14           -3.0113    -5.1959     0.4256 C.2     
  15 N15           -2.8215    -6.5301     0.4488 N.am    
  16 C16           -3.9036    -7.3825     0.6264 C.2     
  17 O17           -4.1296    -4.7387     0.5602 O.2     
  18 S18           -5.5249    -6.8783     0.8266 S.3     
  19 C19           -6.0421    -8.5573     0.9573 C.2     
  20 C20           -4.9626    -9.3331     0.8400 C.2     
  21 N21           -3.8320    -8.6766     0.6588 N.2     
  22 C22           -5.0298   -10.8373     0.9037 C.3     
  23 F23           -5.2267   -11.3502    -0.3829 F       
  24 Cl24           2.0969    -4.6120    -0.2867 Cl      
  25 H25           -1.6553     1.8593     0.3528 H       
  26 H26           -0.5387    -1.7537     2.3656 H       
  27 H27           -0.9721     1.8137     4.4507 H       
  28 H28            1.1477    -1.9301    -0.2576 H       
  29 H29           -0.4198    -5.8801     0.0998 H       
  30 H30           -3.0448    -2.4974     0.3372 H       
  31 H31           -1.9292    -6.8949     0.3414 H       
  32 H32           -7.0557    -8.8991     1.1063 H       
  33 H33           -4.0963   -11.2257     1.3108 H       
  34 H34           -5.8585   -11.1371     1.5451 H       
@<TRIPOS>BOND
   1    1    2 ar
   2    1    6 ar
   3    1   25 1
   4    2    3 ar
   5    2    7 1
   6    3    4 ar
   7    3   26 1
   8    4    5 ar
   9    5    6 ar
  10    5   27 1
  11    7    8 1
  12    8    9 ar
  13    8   13 ar
  14    9   10 ar
  15    9   28 1
  16   10   11 ar
  17   10   24 1
  18   11   12 ar
  19   11   29 1
  20   12   13 ar
  21   12   14 1
  22   13   30 1
  23   14   15 am
  24   14   17 2
  25   15   16 1
  26   15   31 1
  27   16   18 1
  28   16   21 2
  29   18   19 1
  30   19   20 2
  31   19   32 1
  32   20   21 1
  33   20   22 1
  34   22   23 1
  35   22   33 1
  36   22   34 1

#	End of record

