#	Name: ASD01810483
#	Creating user name:	WinNT
#	Creation time:	15. 06. 2019 19:24

#	Modifying user name:	WinNT
#	Modification time:	15. 06. 2019 19:24

#	Program:	/corina/corina34_cracker 3.40 0067  02.08.2006

@<TRIPOS>MOLECULE
ASD01810483
  26   26    0    0    0
SMALL
NO_CHARGES


@<TRIPOS>ATOM
   1 C1            -0.0242     1.4727    -0.0593 C.2     
   2 C2            -0.0010    -0.0043    -0.0317 C.ar    
   3 C3             1.2140    -0.6878    -0.1185 C.ar    
   4 C4             1.2329    -2.0671    -0.0926 C.ar    
   5 C5             0.0522    -2.7776     0.0192 C.ar    
   6 C6            -1.1623    -2.1072     0.1063 C.ar    
   7 C7            -1.1919    -0.7210     0.0869 C.ar    
   8 O8             1.0180     2.0966    -0.0585 O.2     
   9 O9            -1.2011     2.1273    -0.0911 O.3     
  10 C10            0.0820    -4.2840     0.0463 C.3     
  11 C11            2.5041     0.0814    -0.2410 C.3     
  12 C12            2.9511     0.5516     1.1446 C.3     
  13 N13           -2.3526    -2.8300     0.2187 N.pl3   
  14 H14            2.1734    -2.5937    -0.1602 H       
  15 H15           -2.1342    -0.1981     0.1589 H       
  16 H16           -1.1658     3.0935    -0.1083 H       
  17 H17            0.1740    -4.6271     1.0768 H       
  18 H18           -0.8400    -4.6735    -0.3853 H       
  19 H19            0.9335    -4.6411    -0.5329 H       
  20 H20            3.2714    -0.5623    -0.6713 H       
  21 H21            2.3515     0.9463    -0.8865 H       
  22 H22            2.1838     1.1952     1.5749 H       
  23 H23            3.1036    -0.3134     1.7901 H       
  24 H24            3.8842     1.1079     1.0560 H       
  25 H25           -2.3315    -3.7996     0.2360 H       
  26 H26           -3.2002    -2.3621     0.2794 H       
@<TRIPOS>BOND
   1    1    2 1
   2    1    8 2
   3    1    9 1
   4    2    3 ar
   5    2    7 ar
   6    3    4 ar
   7    3   11 1
   8    4    5 ar
   9    4   14 1
  10    5    6 ar
  11    5   10 1
  12    6    7 ar
  13    6   13 1
  14    7   15 1
  15    9   16 1
  16   10   17 1
  17   10   18 1
  18   10   19 1
  19   11   12 1
  20   11   20 1
  21   11   21 1
  22   12   22 1
  23   12   23 1
  24   12   24 1
  25   13   25 1
  26   13   26 1

#	End of record

