#	Name: ASD01190048
#	Creating user name:	WinNT
#	Creation time:	15. 06. 2019 19:07

#	Modifying user name:	WinNT
#	Modification time:	15. 06. 2019 19:07

#	Program:	/corina/corina34_cracker 3.40 0067  02.08.2006

@<TRIPOS>MOLECULE
ASD01190048
  54   58    0    0    0
SMALL
NO_CHARGES


@<TRIPOS>ATOM
   1 C1             0.3185     1.3757     0.2965 C.2     
   2 C2             0.4190    -0.1278     0.3140 C.3     
   3 N3             1.4349     2.1246     0.1990 N.am    
   4 N4             2.7399     1.6297     0.1075 N.2     
   5 C5             3.5875     2.6133     0.0263 C.2     
   6 C6             2.8303     3.8636     0.0633 C.ar    
   7 C7             3.1858     5.2146     0.0131 C.ar    
   8 C8             2.2156     6.1738     0.0708 C.ar    
   9 C9             0.8772     5.8197     0.1795 C.ar    
  10 C10            0.5038     4.4948     0.2306 C.ar    
  11 C11            1.4748     3.5016     0.1674 C.ar    
  12 C12            2.6008     7.6297     0.0165 C.3     
  13 C13            3.3181     8.0161     1.3116 C.3     
  14 N14            5.2918     8.4230    -2.3680 N.pl3   
  15 C15            4.7683     8.3522    -1.1058 C.2     
  16 C16            3.5192     7.8630    -1.1553 C.2     
  17 C17            3.2183     7.5990    -2.5644 C.ar    
  18 C18            2.1052     7.0968    -3.2415 C.ar    
  19 C19            2.1397     6.9679    -4.6012 C.ar    
  20 C20            3.2729     7.3323    -5.3156 C.ar    
  21 C21            4.3822     7.8295    -4.6677 C.ar    
  22 C22            4.3689     7.9696    -3.2836 C.ar    
  23 C23            6.6324     8.9140    -2.6967 C.3     
  24 O24            1.4252     8.4282    -0.1333 O.3     
  25 F25            4.4690     7.2343     1.4583 F       
  26 F26            3.6757     9.3677     1.2612 F       
  27 F27            2.4655     7.7995     2.3994 F       
  28 C28           -0.9611    -0.7222     0.4289 C.ar    
  29 C29           -1.6848    -1.0147    -0.7119 C.ar    
  30 C30           -2.9508    -1.5599    -0.6065 C.ar    
  31 C31           -3.4928    -1.8129     0.6397 C.ar    
  32 C32           -2.7687    -1.5211     1.7805 C.ar    
  33 C33           -1.5010    -0.9800     1.6750 C.ar    
  34 O34           -0.7667     1.9115     0.3650 O.2     
  35 H35            0.8869    -0.4715    -0.6085 H       
  36 H36            1.0219    -0.4418     1.1660 H       
  37 H37            4.6607     2.5225    -0.0539 H       
  38 H38            4.2244     5.4988    -0.0707 H       
  39 H39            0.1220     6.5904     0.2247 H       
  40 H40           -0.5394     4.2285     0.3151 H       
  41 H41            5.2838     8.6460    -0.2033 H       
  42 H42            1.2202     6.8110    -2.6923 H       
  43 H43            1.2786     6.5791    -5.1244 H       
  44 H44            3.2850     7.2246    -6.3902 H       
  45 H45            5.2591     8.1098    -5.2323 H       
  46 H46            7.3384     8.0838    -2.6772 H       
  47 H47            6.6224     9.3591    -3.6917 H       
  48 H48            6.9338     9.6645    -1.9660 H       
  49 H49            0.9193     8.2368    -0.9349 H       
  50 H50           -1.2614    -0.8171    -1.6856 H       
  51 H51           -3.5165    -1.7878    -1.4978 H       
  52 H52           -4.4821    -2.2381     0.7221 H       
  53 H53           -3.1923    -1.7185     2.7542 H       
  54 H54           -0.9338    -0.7555     2.5663 H       
@<TRIPOS>BOND
   1    1    2 1
   2    1    3 am
   3    1   34 2
   4    2   28 1
   5    2   35 1
   6    2   36 1
   7    3    4 1
   8    3   11 1
   9    4    5 2
  10    5    6 1
  11    5   37 1
  12    6    7 ar
  13    6   11 ar
  14    7    8 ar
  15    7   38 1
  16    8    9 ar
  17    8   12 1
  18    9   10 ar
  19    9   39 1
  20   10   11 ar
  21   10   40 1
  22   12   13 1
  23   12   16 1
  24   12   24 1
  25   13   25 1
  26   13   26 1
  27   13   27 1
  28   14   15 1
  29   14   22 1
  30   14   23 1
  31   15   16 2
  32   15   41 1
  33   16   17 1
  34   17   18 ar
  35   17   22 ar
  36   18   19 ar
  37   18   42 1
  38   19   20 ar
  39   19   43 1
  40   20   21 ar
  41   20   44 1
  42   21   22 ar
  43   21   45 1
  44   23   46 1
  45   23   47 1
  46   23   48 1
  47   24   49 1
  48   28   29 ar
  49   28   33 ar
  50   29   30 ar
  51   29   50 1
  52   30   31 ar
  53   30   51 1
  54   31   32 ar
  55   31   52 1
  56   32   33 ar
  57   32   53 1
  58   33   54 1

#	End of record

