#	Name: ASD04550024
#	Creating user name:	WinNT
#	Creation time:	15. 06. 2019 20:49

#	Modifying user name:	WinNT
#	Modification time:	15. 06. 2019 20:49

#	Program:	/corina/corina34_cracker 3.40 0067  02.08.2006

@<TRIPOS>MOLECULE
ASD04550024
  29   29    0    0    0
SMALL
NO_CHARGES


@<TRIPOS>ATOM
   1 C1            -0.0169     1.3941     0.0097 C.ar    
   2 C2             0.0021    -0.0041     0.0020 C.ar    
   3 C3            -1.1849    -0.7061     0.0101 C.ar    
   4 C4            -2.3925    -0.0305     0.0257 C.ar    
   5 C5            -2.4196     1.3534     0.0329 C.ar    
   6 C6            -1.2415     2.0696     0.0309 C.ar    
   7 C7            -3.7402     2.0792     0.0495 C.3     
   8 C8            -4.5467     1.6990    -1.1939 C.3     
   9 C9             1.2452     2.1510     0.0017 C.2     
  10 C10            2.5625     1.4193    -0.0148 C.3     
  11 O11            1.2251     3.3633     0.0084 O.2     
  12 C12            3.7088     2.4327    -0.0203 C.3     
  13 C13           -4.5106     1.6923     1.2856 C.2     
  14 O14           -4.0359     0.9077     2.0724 O.2     
  15 O15           -5.7241     2.2192     1.5125 O.3     
  16 H16            0.9438    -0.5327    -0.0105 H       
  17 H17           -1.1719    -1.7860     0.0038 H       
  18 H18           -3.3187    -0.5860     0.0319 H       
  19 H19           -1.2643     3.1493     0.0365 H       
  20 H20           -3.5637     3.1548     0.0532 H       
  21 H21           -4.7232     0.6233    -1.1976 H       
  22 H22           -5.5019     2.2239    -1.1819 H       
  23 H23           -3.9895     1.9788    -2.0880 H       
  24 H24            2.6391     0.7889     0.8711 H       
  25 H25            2.6221     0.7984    -0.9087 H       
  26 H26            3.6322     3.0630    -0.9062 H       
  27 H27            3.6492     3.0535     0.8736 H       
  28 H28            4.6616     1.9034    -0.0322 H       
  29 H29           -6.1798     1.9409     2.3187 H       
@<TRIPOS>BOND
   1    1    2 ar
   2    1    9 1
   3    1    6 ar
   4    2    3 ar
   5    2   16 1
   6    3    4 ar
   7    3   17 1
   8    4    5 ar
   9    4   18 1
  10    5    6 ar
  11    5    7 1
  12    6   19 1
  13    7    8 1
  14    7   13 1
  15    7   20 1
  16    8   21 1
  17    8   22 1
  18    8   23 1
  19    9   10 1
  20    9   11 2
  21   10   12 1
  22   10   24 1
  23   10   25 1
  24   12   26 1
  25   12   27 1
  26   12   28 1
  27   13   14 2
  28   13   15 1
  29   15   29 1

#	End of record

