#	Name: ASD03091192
#	Creating user name:	WinNT
#	Creation time:	15. 06. 2019 20:30

#	Modifying user name:	WinNT
#	Modification time:	15. 06. 2019 20:30

#	Program:	/corina/corina34_cracker 3.40 0067  02.08.2006

@<TRIPOS>MOLECULE
ASD03091192
  63   66    0    0    0
SMALL
NO_CHARGES


@<TRIPOS>ATOM
   1 C1            -0.9662    -1.2194     0.0824 C.2     
   2 C2            -0.0299    -0.0416    -0.0024 C.3     
   3 O3            -0.5206    -2.3466     0.1249 O.2     
   4 N4            -2.2987    -1.0198     0.1165 N.am    
   5 C5            -3.2090    -2.1647     0.1989 C.3     
   6 C6            -4.5295    -1.7218     0.8321 C.3     
   7 C7            -3.4742    -2.7076    -1.2067 C.3     
   8 N8             3.2646    -1.0646     1.2183 N.2     
   9 C9             2.0370    -0.6485     1.1501 C.2     
  10 N10            1.3551    -0.5191    -0.0188 N.am    
  11 C11            1.9442    -0.8279    -1.1976 C.2     
  12 C12            3.3353    -1.3026    -1.1551 C.ar    
  13 C13            4.0317    -1.6468    -2.3114 C.ar    
  14 C14            5.3400    -2.0881    -2.2088 C.ar    
  15 C15            5.9555    -2.1874    -0.9611 C.ar    
  16 C16            5.2842    -1.8537     0.1804 C.ar    
  17 C17            3.9636    -1.4052     0.1059 C.ar    
  18 O18            1.3456    -0.7173    -2.2518 O.2     
  19 C19            1.3313    -0.2908     2.4327 C.3     
  20 C20            1.9370    -1.0902     3.5881 C.3     
  21 C21            1.4969     1.2055     2.7057 C.3     
  22 N22            7.0998    -2.1153    -6.1121 N.3     
  23 C23            5.8746    -2.8678    -5.8020 C.3     
  24 C24            5.2033    -2.3114    -4.5561 C.3     
  25 N25            6.0481    -2.4365    -3.3624 N.3     
  26 C26            7.2636    -1.6221    -3.5004 C.3     
  27 C27            8.4073    -2.4637    -4.0466 C.3     
  28 C28            8.2656    -2.7873    -5.5202 C.3     
  29 C29            7.0669    -0.6954    -5.8344 C.3     
  30 C30            6.9518    -0.4020    -4.3476 C.3     
  31 H31           -0.2320     0.5183    -0.9155 H       
  32 H32           -0.1809     0.6055     0.8616 H       
  33 H33           -2.6550    -0.1181     0.0866 H       
  34 H34           -2.7566    -2.9453     0.8106 H       
  35 H35           -4.9820    -0.9412     0.2205 H       
  36 H36           -5.2068    -2.5737     0.8934 H       
  37 H37           -4.3406    -1.3350     1.8335 H       
  38 H38           -4.1514    -3.5595    -1.1454 H       
  39 H39           -3.9266    -1.9271    -1.8183 H       
  40 H40           -2.5334    -3.0232    -1.6578 H       
  41 H41            3.5558    -1.5705    -3.2779 H       
  42 H42            6.9766    -2.5332    -0.8968 H       
  43 H43            5.7738    -1.9365     1.1395 H       
  44 H44            0.2714    -0.5285     2.3427 H       
  45 H45            2.9969    -0.8524     3.6781 H       
  46 H46            1.4266    -0.8314     4.5158 H       
  47 H47            1.8190    -2.1561     3.3935 H       
  48 H48            1.0654     1.7750     1.8826 H       
  49 H49            0.9865     1.4642     3.6334 H       
  50 H50            2.5569     1.4433     2.7957 H       
  51 H51            5.1860    -2.7953    -6.6438 H       
  52 H52            6.1286    -3.9147    -5.6359 H       
  53 H53            4.9754    -1.2579    -4.7185 H       
  54 H54            4.2710    -2.8503    -4.3869 H       
  55 H55            7.5469    -1.2687    -2.5090 H       
  56 H56            9.3418    -1.9233    -3.8958 H       
  57 H57            8.4524    -3.3977    -3.4865 H       
  58 H58            8.1533    -3.8650    -5.6387 H       
  59 H59            9.1658    -2.4649    -6.0435 H       
  60 H60            7.9809    -0.2395    -6.2150 H       
  61 H61            6.2131    -0.2544    -6.3489 H       
  62 H62            5.9369    -0.0694    -4.1296 H       
  63 H63            7.6477     0.3961    -4.0890 H       
@<TRIPOS>BOND
   1    1    2 1
   2    1    3 2
   3    1    4 am
   4    2   10 1
   5    2   31 1
   6    2   32 1
   7    4    5 1
   8    4   33 1
   9    5    6 1
  10    5    7 1
  11    5   34 1
  12    6   35 1
  13    6   36 1
  14    6   37 1
  15    7   38 1
  16    7   39 1
  17    7   40 1
  18    8    9 2
  19    8   17 1
  20    9   10 1
  21    9   19 1
  22   10   11 am
  23   11   12 1
  24   11   18 2
  25   12   13 ar
  26   12   17 ar
  27   13   14 ar
  28   13   41 1
  29   14   15 ar
  30   14   25 1
  31   15   16 ar
  32   15   42 1
  33   16   17 ar
  34   16   43 1
  35   19   20 1
  36   19   21 1
  37   19   44 1
  38   20   45 1
  39   20   46 1
  40   20   47 1
  41   21   48 1
  42   21   49 1
  43   21   50 1
  44   22   23 1
  45   22   28 1
  46   22   29 1
  47   23   24 1
  48   23   51 1
  49   23   52 1
  50   24   25 1
  51   24   53 1
  52   24   54 1
  53   25   26 1
  54   26   27 1
  55   26   30 1
  56   26   55 1
  57   27   28 1
  58   27   56 1
  59   27   57 1
  60   28   58 1
  61   28   59 1
  62   29   30 1
  63   29   60 1
  64   29   61 1
  65   30   62 1
  66   30   63 1

#	End of record

