#	Name: ASD00840927
#	Creating user name:	WinNT
#	Creation time:	15. 06. 2019 18:40

#	Modifying user name:	WinNT
#	Modification time:	15. 06. 2019 18:40

#	Program:	/corina/corina34_cracker 3.40 0067  02.08.2006

@<TRIPOS>MOLECULE
ASD00840927
  93   98    0    0    0
SMALL
NO_CHARGES


@<TRIPOS>ATOM
   1 F1             6.0650    -1.9522    -2.0312 F       
   2 N2             1.0634     1.4586    -0.7543 N.ar    
   3 C3             1.3248     0.1666    -0.8608 C.ar    
   4 C4             1.2445    -0.6656     0.2487 C.ar    
   5 C5             0.8867    -0.1250     1.4712 C.ar    
   6 C6             0.6204     1.2357     1.5410 C.ar    
   7 C7             0.7198     2.0029     0.3977 C.ar    
   8 C8             1.5428    -2.1374     0.1225 C.3     
   9 C9             1.2605    -2.8495     1.4282 C.2     
  10 C10            0.7224    -2.7537    -1.0124 C.3     
  11 C11           -0.7396    -2.4630    -0.7906 C.2     
  12 N12           -1.6639    -2.9844    -1.6214 N.am    
  13 O13           -1.0844    -1.7598     0.1354 O.2     
  14 C14           -3.0813    -2.6214    -1.4868 C.3     
  15 C15           -3.9098    -3.9045    -1.3690 C.3     
  16 C16           -3.6047    -4.8151    -2.5605 C.3     
  17 C17           -2.1222    -5.1947    -2.5482 C.3     
  18 C18           -1.2726    -3.9219    -2.6829 C.3     
  19 N19           -4.4223    -6.0321    -2.4683 N.3     
  20 C20           -4.2442    -6.8776    -3.6571 C.3     
  21 C21           -5.0484    -8.1686    -3.4868 C.3     
  22 N22           -6.4661    -7.8368    -3.2876 N.3     
  23 C23           -6.6442    -6.9914    -2.0989 C.3     
  24 C24           -5.8400    -5.7004    -2.2691 C.3     
  25 C25           -7.2836    -9.0538    -3.1954 C.3     
  26 O26            0.1885    -2.9249     1.9906 O.2     
  27 N27            2.4206    -3.3828     1.8470 N.am    
  28 C28            3.0200    -2.3605    -0.1065 C.ar    
  29 C29            3.4729    -3.1143     0.9691 C.ar    
  30 C30            3.8806    -1.9712    -1.1083 C.ar    
  31 C31            5.2172    -2.3317    -1.0502 C.ar    
  32 C32            5.6813    -3.0840     0.0183 C.ar    
  33 C33            4.8173    -3.4745     1.0233 C.ar    
  34 F34            6.9842    -3.4366     0.0768 F       
  35 C35            2.2908    -5.9469     2.8384 C.ar    
  36 C36            1.0370    -6.3488     2.4020 C.ar    
  37 C37            3.3115    -6.8715     2.9494 C.ar    
  38 C38            3.0840    -8.1961     2.6257 C.ar    
  39 C39            1.8349    -8.5993     2.1905 C.ar    
  40 C40            0.8111    -7.6789     2.0782 C.ar    
  41 H41            1.6597    -9.6347     1.9381 H       
  42 O42            0.0313    -5.4413     2.2924 O.3     
  43 C43           -1.2333    -5.9263     1.8368 C.3     
  44 C44           -8.6980    -8.6850    -2.7433 C.3     
  45 C45           -9.5495    -9.9526    -2.6472 C.3     
  46 S46            2.5837    -4.2574     3.2437 S.o2    
  47 O47            3.9517    -4.1656     3.6171 O.2     
  48 O48            1.5175    -3.8581     4.0940 O.2     
  49 O49            1.6742    -0.3512    -2.0652 O.3     
  50 C50            2.1657    -0.1913    -4.4260 C.3     
  51 C51            1.6309     0.5315    -3.1881 C.3     
  52 H52            0.8158    -0.7475     2.3509 H       
  53 H53            0.3381     1.6892     2.4797 H       
  54 H54            0.5140     3.0620     0.4467 H       
  55 H55            1.0380    -2.3246    -1.9634 H       
  56 H56            0.8797    -3.8321    -1.0303 H       
  57 H57           -3.2195    -2.0138    -0.5924 H       
  58 H58           -3.3998    -2.0601    -2.3652 H       
  59 H59           -3.6539    -4.4191    -0.4428 H       
  60 H60           -4.9706    -3.6535    -1.3651 H       
  61 H61           -3.8376    -4.2908    -3.4873 H       
  62 H62           -1.8831    -5.6972    -1.6109 H       
  63 H63           -1.9105    -5.8621    -3.3836 H       
  64 H64           -1.4448    -3.4692    -3.6593 H       
  65 H65           -0.2175    -4.1737    -2.5755 H       
  66 H66           -4.5965    -6.3433    -4.5394 H       
  67 H67           -3.1881    -7.1200    -3.7760 H       
  68 H68           -4.9410    -8.7844    -4.3797 H       
  69 H69           -4.6779    -8.7162    -2.6202 H       
  70 H70           -7.7002    -6.7490    -1.9800 H       
  71 H71           -6.2918    -7.5257    -1.2166 H       
  72 H72           -5.9474    -5.0846    -1.3762 H       
  73 H73           -6.2105    -5.1527    -3.1357 H       
  74 H74           -7.3285    -9.5362    -4.1718 H       
  75 H75           -6.8377    -9.7371    -2.4727 H       
  76 H76            3.5142    -1.3857    -1.9385 H       
  77 H77            5.1853    -4.0599     1.8529 H       
  78 H78            4.2879    -6.5591     3.2891 H       
  79 H79            3.8833    -8.9172     2.7125 H       
  80 H80           -0.1645    -7.9944     1.7389 H       
  81 H81           -1.1198    -6.3592     0.8429 H       
  82 H82           -1.5998    -6.6879     2.5251 H       
  83 H83           -1.9450    -5.1017     1.7948 H       
  84 H84           -8.6531    -8.2026    -1.7669 H       
  85 H85           -9.1439    -8.0017    -3.4660 H       
  86 H86           -9.5944   -10.4350    -3.6237 H       
  87 H87           -9.1036   -10.6359    -1.9245 H       
  88 H88          -10.5571    -9.6898    -2.3251 H       
  89 H89            3.1629    -0.5793    -4.2177 H       
  90 H90            1.5007    -1.0165    -4.6805 H       
  91 H91            2.2147     0.5069    -5.2616 H       
  92 H92            0.6017     0.8433    -3.3657 H       
  93 H93            2.2462     1.4081    -2.9850 H       
@<TRIPOS>BOND
   1    1   31 1
   2    2    3 ar
   3    2    7 ar
   4    3    4 ar
   5    3   49 1
   6    4    5 ar
   7    4    8 1
   8    5    6 ar
   9    5   52 1
  10    6    7 ar
  11    6   53 1
  12    7   54 1
  13    8    9 1
  14    8   10 1
  15    8   28 1
  16    9   26 2
  17    9   27 am
  18   10   11 1
  19   10   55 1
  20   10   56 1
  21   11   12 am
  22   11   13 2
  23   12   14 1
  24   12   18 1
  25   14   15 1
  26   14   57 1
  27   14   58 1
  28   15   16 1
  29   15   59 1
  30   15   60 1
  31   16   17 1
  32   16   19 1
  33   16   61 1
  34   17   18 1
  35   17   62 1
  36   17   63 1
  37   18   64 1
  38   18   65 1
  39   19   20 1
  40   19   24 1
  41   20   21 1
  42   20   66 1
  43   20   67 1
  44   21   22 1
  45   21   68 1
  46   21   69 1
  47   22   23 1
  48   22   25 1
  49   23   24 1
  50   23   70 1
  51   23   71 1
  52   24   72 1
  53   24   73 1
  54   25   44 1
  55   25   74 1
  56   25   75 1
  57   27   46 am
  58   27   29 1
  59   28   29 ar
  60   28   30 ar
  61   29   33 ar
  62   30   31 ar
  63   30   76 1
  64   31   32 ar
  65   32   33 ar
  66   32   34 1
  67   33   77 1
  68   35   36 ar
  69   35   37 ar
  70   35   46 1
  71   36   42 1
  72   36   40 ar
  73   37   38 ar
  74   37   78 1
  75   38   39 ar
  76   38   79 1
  77   39   40 ar
  78   39   41 1
  79   40   80 1
  80   42   43 1
  81   43   81 1
  82   43   82 1
  83   43   83 1
  84   44   45 1
  85   44   84 1
  86   44   85 1
  87   45   86 1
  88   45   87 1
  89   45   88 1
  90   46   47 2
  91   46   48 2
  92   49   51 1
  93   50   51 1
  94   50   89 1
  95   50   90 1
  96   50   91 1
  97   51   92 1
  98   51   93 1

#	End of record

