#	Name: ASD01884394
#	Creating user name:	WinNT
#	Creation time:	15. 06. 2019 19:48

#	Modifying user name:	WinNT
#	Modification time:	15. 06. 2019 19:48

#	Program:	/corina/corina34_cracker 3.40 0067  02.08.2006

@<TRIPOS>MOLECULE
ASD01884394
  59   62    0    0    0
SMALL
NO_CHARGES


@<TRIPOS>ATOM
   1 C1            -0.0670     1.3709     0.0190 C.2     
   2 C2            -0.0272    -0.0211     0.0057 C.2     
   3 C3            -1.2283    -0.7317     0.0065 C.2     
   4 C4            -2.4121    -0.0686     0.0196 C.2     
   5 N5            -2.4586     1.2857     0.0325 N.am    
   6 C6            -1.3295     2.0194     0.0384 C.2     
   7 O7            -1.3913     3.2368     0.0500 O.2     
   8 C8            -3.7580     1.9623     0.0459 C.3     
   9 C9             1.1444     2.1344     0.0192 C.1     
  10 N10            2.1054     2.7402     0.0193 N.1     
  11 N11            1.6719    -1.1039     1.3642 N.3     
  12 C12            2.8246    -2.0153     1.3733 C.3     
  13 C13            3.2373    -2.2971     2.8199 C.3     
  14 N14            2.1012    -2.8822     3.5456 N.3     
  15 C15            0.9485    -1.9708     3.5365 C.3     
  16 C16            0.5358    -1.6889     2.0899 C.3     
  17 N17            2.4542    -3.2124     4.8233 N.pl3   
  18 C18           -4.2025     2.1842     1.4930 C.3     
  19 C19            1.2923    -0.7488    -0.0098 C.3     
  20 C20           -5.5595     2.8908     1.5070 C.3     
  21 C21           -6.6190     1.9726     0.8945 C.3     
  22 C22           -5.9460     3.2243     2.9493 C.3     
  23 C23            1.9564    -2.6232     5.9534 C.2     
  24 C24            2.5105    -3.1802     7.0419 C.2     
  25 C25            3.4390    -4.2103     6.5701 C.ar    
  26 C26            3.3594    -4.1917     5.1658 C.ar    
  27 C27            4.2935    -5.1122     7.2075 C.ar    
  28 C28            5.0532    -5.9691     6.4624 C.ar    
  29 C29            4.9829    -5.9503     5.0760 C.ar    
  30 C30            4.1408    -5.0744     4.4270 C.ar    
  31 H31           -1.2156    -1.8115    -0.0037 H       
  32 H32           -3.3343    -0.6306     0.0193 H       
  33 H33           -3.6720     2.9243    -0.4593 H       
  34 H34           -4.4941     1.3456    -0.4697 H       
  35 H35            2.5526    -2.9505     0.8840 H       
  36 H36            3.6567    -1.5546     0.8409 H       
  37 H37            4.0739    -2.9958     2.8299 H       
  38 H38            3.5353    -1.3656     3.3011 H       
  39 H39            0.1164    -2.4315     4.0689 H       
  40 H40            1.2205    -1.0355     4.0258 H       
  41 H41           -0.3008    -0.9903     2.0799 H       
  42 H42            0.2378    -2.6205     1.6087 H       
  43 H43           -4.2885     1.2223     1.9983 H       
  44 H44           -3.4664     2.8010     2.0087 H       
  45 H45            1.2001    -1.6558    -0.6072 H       
  46 H46            2.0574    -0.1046    -0.4431 H       
  47 H47           -5.4961     3.8108     0.9258 H       
  48 H48           -7.5857     2.4759     0.9044 H       
  49 H49           -6.3436     1.7350    -0.1331 H       
  50 H50           -6.6823     1.0526     1.4756 H       
  51 H51           -5.1912     3.8785     3.3857 H       
  52 H52           -6.9128     3.7277     2.9593 H       
  53 H53           -6.0094     2.3044     3.5305 H       
  54 H54            1.2259    -1.8278     5.9677 H       
  55 H55            2.3101    -2.9182     8.0703 H       
  56 H56            4.3539    -5.1320     8.2856 H       
  57 H57            5.7139    -6.6664     6.9559 H       
  58 H58            5.5899    -6.6337     4.5007 H       
  59 H59            4.0930    -5.0677     3.3481 H       
@<TRIPOS>BOND
   1    1    2 2
   2    1    9 1
   3    1    6 1
   4    2    3 1
   5    2   19 1
   6    3    4 2
   7    3   31 1
   8    4    5 1
   9    4   32 1
  10    5    6 am
  11    5    8 1
  12    6    7 2
  13    8   18 1
  14    8   33 1
  15    8   34 1
  16    9   10 3
  17   11   12 1
  18   11   16 1
  19   11   19 1
  20   12   13 1
  21   12   35 1
  22   12   36 1
  23   13   14 1
  24   13   37 1
  25   13   38 1
  26   14   15 1
  27   14   17 1
  28   15   16 1
  29   15   39 1
  30   15   40 1
  31   16   41 1
  32   16   42 1
  33   17   23 1
  34   17   26 1
  35   18   20 1
  36   18   43 1
  37   18   44 1
  38   19   45 1
  39   19   46 1
  40   20   21 1
  41   20   22 1
  42   20   47 1
  43   21   48 1
  44   21   49 1
  45   21   50 1
  46   22   51 1
  47   22   52 1
  48   22   53 1
  49   23   24 2
  50   23   54 1
  51   24   25 1
  52   24   55 1
  53   25   26 ar
  54   25   27 ar
  55   26   30 ar
  56   27   28 ar
  57   27   56 1
  58   28   29 ar
  59   28   57 1
  60   29   30 ar
  61   29   58 1
  62   30   59 1

#	End of record

