#	Name: ASD03320051
#	Creating user name:	WinNT
#	Creation time:	15. 06. 2019 20:36

#	Modifying user name:	WinNT
#	Modification time:	15. 06. 2019 20:36

#	Program:	/corina/corina34_cracker 3.40 0067  02.08.2006

@<TRIPOS>MOLECULE
ASD03320051
  46   48    0    0    0
SMALL
NO_CHARGES


@<TRIPOS>ATOM
   1 C1            -0.0077     1.3433    -0.1945 C.ar    
   2 C2             0.0217    -0.0349     0.0275 C.ar    
   3 C3            -1.1539    -0.7587     0.0442 C.ar    
   4 C4            -2.3644    -0.1254    -0.1588 C.ar    
   5 C5            -2.4070     1.2506    -0.3816 C.ar    
   6 C6            -1.2278     1.9876    -0.3942 C.ar    
   7 C7             1.2512     2.1182    -0.2118 C.2     
   8 O8             1.2238     3.3181    -0.4053 O.2     
   9 N9             2.4292     1.4944    -0.0131 N.am    
  10 C10            3.6280     2.2094    -0.1264 C.ar    
  11 C11           -3.7092     1.9281    -0.5998 C.ar    
  12 C12           -4.9043     1.2050    -0.5859 C.ar    
  13 N13           -6.0434     1.8450    -0.7844 N.ar    
  14 C14           -6.0609     3.1517    -0.9941 C.ar    
  15 N15           -4.9504     3.8715    -1.0147 N.ar    
  16 C16           -3.7719     3.3064    -0.8188 C.ar    
  17 C17            3.6885     3.5338     0.2864 C.ar    
  18 C18            4.8709     4.2382     0.1744 C.ar    
  19 C19            5.9980     3.6232    -0.3510 C.ar    
  20 C20            5.9382     2.3001    -0.7636 C.ar    
  21 C21            4.7582     1.5925    -0.6464 C.ar    
  22 O22            7.1616     4.3177    -0.4619 O.3     
  23 C23            8.2824     3.6221    -1.0115 C.3     
  24 F24            7.9755     3.1935    -2.3074 F       
  25 F25            9.3880     4.4784    -1.0531 F       
  26 F26            8.5810     2.5135    -0.2121 F       
  27 O27           -7.2489     3.7690    -1.1994 O.3     
  28 C28           -8.4195     2.9502    -1.1679 C.3     
  29 C29           -9.6552     3.8170    -1.4182 C.3     
  30 O30           -9.6025     4.3504    -2.7429 O.3     
  31 H31            0.9654    -0.5355     0.1861 H       
  32 H32           -1.1267    -1.8245     0.2163 H       
  33 H33           -3.2804    -0.6975    -0.1452 H       
  34 H34           -1.2563     3.0535    -0.5663 H       
  35 H35            2.4468     0.5502     0.2084 H       
  36 H36           -4.8975     0.1385    -0.4158 H       
  37 H37           -2.8703     3.9007    -0.8320 H       
  38 H38            2.8110     4.0130     0.6948 H       
  39 H39            4.9182     5.2683     0.4954 H       
  40 H40            6.8160     1.8220    -1.1728 H       
  41 H41            4.7119     0.5624    -0.9674 H       
  42 H42           -8.3492     2.1857    -1.9417 H       
  43 H43           -8.5026     2.4724    -0.1917 H       
  44 H44          -10.5536     3.2100    -1.3064 H       
  45 H45           -9.6773     4.6348    -0.6979 H       
  46 H46          -10.3562     4.9115    -2.9712 H       
@<TRIPOS>BOND
   1    1    2 ar
   2    1    7 1
   3    1    6 ar
   4    2    3 ar
   5    2   31 1
   6    3    4 ar
   7    3   32 1
   8    4    5 ar
   9    4   33 1
  10    5    6 ar
  11    5   11 1
  12    6   34 1
  13    7    8 2
  14    7    9 am
  15    9   10 1
  16    9   35 1
  17   10   17 ar
  18   10   21 ar
  19   11   12 ar
  20   11   16 ar
  21   12   13 ar
  22   12   36 1
  23   13   14 ar
  24   14   15 ar
  25   14   27 1
  26   15   16 ar
  27   16   37 1
  28   17   18 ar
  29   17   38 1
  30   18   19 ar
  31   18   39 1
  32   19   20 ar
  33   19   22 1
  34   20   21 ar
  35   20   40 1
  36   21   41 1
  37   22   23 1
  38   23   24 1
  39   23   25 1
  40   23   26 1
  41   27   28 1
  42   28   29 1
  43   28   42 1
  44   28   43 1
  45   29   30 1
  46   29   44 1
  47   29   45 1
  48   30   46 1

#	End of record

