#	Name: ASD03240985
#	Creating user name:	WinNT
#	Creation time:	15. 06. 2019 20:35

#	Modifying user name:	WinNT
#	Modification time:	15. 06. 2019 20:35

#	Program:	/corina/corina34_cracker 3.40 0067  02.08.2006

@<TRIPOS>MOLECULE
ASD03240985
  61   66    0    0    0
SMALL
NO_CHARGES


@<TRIPOS>ATOM
   1 C1            -0.0492     2.3559     0.7406 C.3     
   2 C2            -0.1526     0.8398     0.5044 C.3     
   3 C3             1.2175     0.9336    -0.1876 C.3     
   4 C4             1.4773     2.1833     0.6702 C.3     
   5 O5            -0.5865     3.1395    -0.3268 O.3     
   6 C6             2.1349    -0.2187     0.1312 C.ar    
   7 C7             3.0713    -0.6317    -0.7997 C.ar    
   8 C8             3.9143    -1.6858    -0.5136 C.ar    
   9 C9             3.8211    -2.3354     0.7173 C.ar    
  10 C10            2.8749    -1.9143     1.6517 C.ar    
  11 C11            2.0411    -0.8556     1.3558 C.ar    
  12 N12            5.9562    -6.3981    -0.6124 N.pl3   
  13 C13            6.7852    -7.4532    -0.3430 C.2     
  14 N14            7.4056    -7.5875     0.8426 N.2     
  15 C15            7.2533    -6.7179     1.8077 C.2     
  16 C16            6.3825    -5.5641     1.5930 C.ar    
  17 C17            6.1792    -4.6008     2.5870 C.ar    
  18 C18            5.3341    -3.5347     2.2977 C.ar    
  19 C19            4.7226    -3.4678     1.0305 C.ar    
  20 N20            4.9388    -4.3994     0.1142 N.ar    
  21 C21            5.7348    -5.4286     0.3468 C.ar    
  22 C22            6.8071    -8.2458    -1.4826 C.2     
  23 C23            5.9831    -7.6490    -2.4285 C.2     
  24 N24            5.4711    -6.5557    -1.9163 N.2     
  25 C25            5.0790    -2.4827     3.3108 C.ar    
  26 C26            4.2785    -2.7575     4.4186 C.ar    
  27 C27            4.0445    -1.7745     5.3583 C.ar    
  28 C28            4.6022    -0.5180     5.2024 C.ar    
  29 C29            5.3968    -0.2395     4.1051 C.ar    
  30 C30            5.6432    -1.2169     3.1622 C.ar    
  31 C31            3.6695    -4.1254     4.5894 C.3     
  32 F32            2.8140    -4.1202     5.6963 F       
  33 F33            2.9440    -4.4595     3.4408 F       
  34 F34            4.6853    -5.0664     4.7894 F       
  35 C35            5.7163    -8.1754    -3.8152 C.3     
  36 C36           -0.5532     2.7977     2.1159 C.3     
  37 N37            1.1319     1.2151    -1.6268 N.3     
  38 H38           -0.1387     0.2529     1.4228 H       
  39 H39           -0.9627     0.5569    -0.1677 H       
  40 H40            1.9830     2.9849     0.1319 H       
  41 H41            1.9368     1.9636     1.6339 H       
  42 H42           -0.5243     4.0938    -0.1841 H       
  43 H43            3.1423    -0.1282    -1.7526 H       
  44 H44            4.6447    -2.0076    -1.2413 H       
  45 H45            2.7977    -2.4136     2.6063 H       
  46 H46            1.3109    -0.5260     2.0801 H       
  47 H47            7.7636    -6.8508     2.7502 H       
  48 H48            6.6635    -4.6824     3.5489 H       
  49 H49            7.3649    -9.1616    -1.6109 H       
  50 H50            3.4245    -1.9863     6.2169 H       
  51 H51            4.4160     0.2484     5.9402 H       
  52 H52            5.8292     0.7433     3.9884 H       
  53 H53            6.2678    -0.9997     2.3083 H       
  54 H54            4.8523    -8.8396    -3.7917 H       
  55 H55            5.5155    -7.3417    -4.4879 H       
  56 H56            6.5881    -8.7259    -4.1688 H       
  57 H57            0.0331     2.3067     2.8927 H       
  58 H58           -0.4495     3.8786     2.2109 H       
  59 H59           -1.6024     2.5225     2.2240 H       
  60 H60            2.0508     1.2681    -2.0402 H       
  61 H61            0.5632     0.5267    -2.0967 H       
@<TRIPOS>BOND
   1    1    2 1
   2    1    4 1
   3    1    5 1
   4    1   36 1
   5    2    3 1
   6    2   38 1
   7    2   39 1
   8    3    4 1
   9    3    6 1
  10    3   37 1
  11    4   40 1
  12    4   41 1
  13    5   42 1
  14    6    7 ar
  15    6   11 ar
  16    7    8 ar
  17    7   43 1
  18    8    9 ar
  19    8   44 1
  20    9   10 ar
  21    9   19 1
  22   10   11 ar
  23   10   45 1
  24   11   46 1
  25   12   13 1
  26   12   21 1
  27   12   24 1
  28   13   14 1
  29   13   22 2
  30   14   15 2
  31   15   16 1
  32   15   47 1
  33   16   17 ar
  34   16   21 ar
  35   17   18 ar
  36   17   48 1
  37   18   19 ar
  38   18   25 1
  39   19   20 ar
  40   20   21 ar
  41   22   23 1
  42   22   49 1
  43   23   24 2
  44   23   35 1
  45   25   26 ar
  46   25   30 ar
  47   26   27 ar
  48   26   31 1
  49   27   28 ar
  50   27   50 1
  51   28   29 ar
  52   28   51 1
  53   29   30 ar
  54   29   52 1
  55   30   53 1
  56   31   32 1
  57   31   33 1
  58   31   34 1
  59   35   54 1
  60   35   55 1
  61   35   56 1
  62   36   57 1
  63   36   58 1
  64   36   59 1
  65   37   60 1
  66   37   61 1

#	End of record

