#	Name: ASD02190007
#	Creating user name:	WinNT
#	Creation time:	15. 06. 2019 20:18

#	Modifying user name:	WinNT
#	Modification time:	15. 06. 2019 20:18

#	Program:	/corina/corina34_cracker 3.40 0067  02.08.2006

@<TRIPOS>MOLECULE
ASD02190007
  49   51    0    0    0
SMALL
NO_CHARGES


@<TRIPOS>ATOM
   1 C1            -0.0364     1.5313     0.0058 C.3     
   2 C2             2.0210     2.3632     1.1837 C.ar    
   3 N3             3.2549     2.8413     1.1442 N.ar    
   4 C4             3.8670     3.0530    -0.0128 C.ar    
   5 N5             3.2738     2.7973    -1.1702 N.ar    
   6 C6             2.0361     2.3157    -1.2042 C.ar    
   7 C7             1.3682     2.0772    -0.0008 C.ar    
   8 N8             1.4179     2.0491    -2.4170 N.pl3   
   9 C9             2.0452     2.3979    -3.6094 C.ar    
  10 C10            1.8655     1.6121    -4.7444 C.ar    
  11 C11            2.4839     1.9544    -5.9250 C.ar    
  12 C12            3.2936     3.0931    -5.9839 C.ar    
  13 C13            3.4719     3.8802    -4.8419 C.ar    
  14 C14            2.8463     3.5351    -3.6659 C.ar    
  15 C15            5.2497     3.5898    -0.0118 C.ar    
  16 C16            5.9110     3.8195    -1.2169 C.ar    
  17 C17            7.1981     4.3191    -1.2134 C.ar    
  18 C18            7.8342     4.5923    -0.0171 C.ar    
  19 C19            7.1825     4.3662     1.1878 C.ar    
  20 C20            5.8891     3.8711     1.1935 C.ar    
  21 C21            0.0100     0.0252     0.0312 C.2     
  22 C22           -0.6219    -0.6338     0.9706 C.2     
  23 C23            1.3376     2.1276     2.5060 C.3     
  24 O24            7.8121     4.6358     2.3617 O.3     
  25 C25            9.1430     5.1496     2.2810 C.3     
  26 C26            3.9580     3.4625    -7.2468 C.2     
  27 O27            3.8024     2.7774    -8.2383 O.2     
  28 O28            4.7379     4.5601    -7.3019 O.3     
  29 H29           -0.5628     1.8935     0.8889 H       
  30 H30           -0.5596     1.8636    -0.8908 H       
  31 H31            0.5484     1.6195    -2.4340 H       
  32 H32            1.2404     0.7327    -4.6981 H       
  33 H33            2.3444     1.3441    -6.8051 H       
  34 H34            4.0965     4.7602    -4.8839 H       
  35 H35            2.9833     4.1427    -2.7836 H       
  36 H36            5.4170     3.6065    -2.1533 H       
  37 H37            7.7094     4.4967    -2.1479 H       
  38 H38            8.8413     4.9823    -0.0196 H       
  39 H39            5.3808     3.6951     2.1301 H       
  40 H40            0.5643    -0.5107    -0.7251 H       
  41 H41           -0.5886    -1.7132     0.9887 H       
  42 H42           -1.1761    -0.0978     1.7268 H       
  43 H43            0.8010     3.0285     2.8034 H       
  44 H44            0.6338     1.3009     2.4090 H       
  45 H45            2.0836     1.8828     3.2621 H       
  46 H46            9.7796     4.4303     1.7658 H       
  47 H47            9.1368     6.0897     1.7294 H       
  48 H48            9.5280     5.3208     3.2863 H       
  49 H49            5.1525     4.7619    -8.1519 H       
@<TRIPOS>BOND
   1    1   21 1
   2    1    7 1
   3    1   29 1
   4    1   30 1
   5    2    3 ar
   6    2   23 1
   7    2    7 ar
   8    3    4 ar
   9    4    5 ar
  10    4   15 1
  11    5    6 ar
  12    6    7 ar
  13    6    8 1
  14    8    9 1
  15    8   31 1
  16    9   10 ar
  17    9   14 ar
  18   10   11 ar
  19   10   32 1
  20   11   12 ar
  21   11   33 1
  22   12   13 ar
  23   12   26 1
  24   13   14 ar
  25   13   34 1
  26   14   35 1
  27   15   16 ar
  28   15   20 ar
  29   16   17 ar
  30   16   36 1
  31   17   18 ar
  32   17   37 1
  33   18   19 ar
  34   18   38 1
  35   19   20 ar
  36   19   24 1
  37   20   39 1
  38   21   22 2
  39   21   40 1
  40   22   41 1
  41   22   42 1
  42   23   43 1
  43   23   44 1
  44   23   45 1
  45   24   25 1
  46   25   46 1
  47   25   47 1
  48   25   48 1
  49   26   27 2
  50   26   28 1
  51   28   49 1

#	End of record

