#	Name: ASD08151009
#	Creating user name:	WinNT
#	Creation time:	15. 06. 2019 21:16

#	Modifying user name:	WinNT
#	Modification time:	15. 06. 2019 21:16

#	Program:	/corina/corina34_cracker 3.40 0067  02.08.2006

@<TRIPOS>MOLECULE
ASD08151009
  32   34    0    0    0
SMALL
NO_CHARGES


@<TRIPOS>ATOM
   1 C1            -0.0184     1.5028     0.0103 C.2     
   2 C2             0.0314    -0.0029    -0.0287 C.3     
   3 N3             2.3798     5.7422    -0.1859 N.ar    
   4 C4             3.4938     6.4335    -0.1882 C.ar    
   5 C5             4.7389     5.8146    -0.0947 C.ar    
   6 C6             4.8178     4.4543     0.0023 C.ar    
   7 C7             3.6185     3.7166     0.0043 C.ar    
   8 C8             3.6302     2.3132     0.1020 C.ar    
   9 C9             2.4652     1.6163     0.1026 C.ar    
  10 C10            1.2281     2.2789     0.0070 C.ar    
  11 C11            1.1792     3.6750    -0.0917 C.ar    
  12 C12            2.3884     4.4106    -0.0937 C.ar    
  13 C13           -0.1202     4.3723    -0.1932 C.ar    
  14 C14           -0.5384     5.2270     0.8284 C.ar    
  15 C15           -1.7539     5.8766     0.7279 C.ar    
  16 C16           -2.5571     5.6809    -0.3840 C.ar    
  17 C17           -2.1473     4.8335    -1.4007 C.ar    
  18 C18           -0.9312     4.1831    -1.3137 C.ar    
  19 F19           -2.9357     4.6470    -2.4819 F       
  20 F20           -2.1601     6.7036     1.7159 F       
  21 O21           -1.0882     2.0737     0.0394 O.2     
  22 H22            1.0643    -0.3293    -0.1499 H       
  23 H23           -0.3695    -0.4039     0.9021 H       
  24 H24           -0.5646    -0.3645    -0.8667 H       
  25 H25            3.4453     7.5097    -0.2648 H       
  26 H26            5.6402     6.4096    -0.0994 H       
  27 H27            5.7743     3.9581     0.0752 H       
  28 H28            4.5707     1.7876     0.1766 H       
  29 H29            2.4885     0.5392     0.1779 H       
  30 H30            0.0867     5.3800     1.6957 H       
  31 H31           -3.5063     6.1907    -0.4583 H       
  32 H32           -0.6108     3.5263    -2.1088 H       
@<TRIPOS>BOND
   1    1    2 1
   2    1   10 1
   3    1   21 2
   4    2   22 1
   5    2   23 1
   6    2   24 1
   7    3    4 ar
   8    3   12 ar
   9    4    5 ar
  10    4   25 1
  11    5    6 ar
  12    5   26 1
  13    6    7 ar
  14    6   27 1
  15    7    8 ar
  16    7   12 ar
  17    8    9 ar
  18    8   28 1
  19    9   10 ar
  20    9   29 1
  21   10   11 ar
  22   11   12 ar
  23   11   13 1
  24   13   14 ar
  25   13   18 ar
  26   14   15 ar
  27   14   30 1
  28   15   16 ar
  29   15   20 1
  30   16   17 ar
  31   16   31 1
  32   17   18 ar
  33   17   19 1
  34   18   32 1

#	End of record

