#	Name: ASD01230524
#	Creating user name:	WinNT
#	Creation time:	15. 06. 2019 19:14

#	Modifying user name:	WinNT
#	Modification time:	15. 06. 2019 19:14

#	Program:	/corina/corina34_cracker 3.40 0067  02.08.2006

@<TRIPOS>MOLECULE
ASD01230524
  37   39    0    0    0
SMALL
NO_CHARGES


@<TRIPOS>ATOM
   1 C1            -0.0170     1.3988     0.0097 C.ar    
   2 C2             0.0021    -0.0041     0.0020 C.ar    
   3 C3             1.2334    -0.6605    -0.0132 C.ar    
   4 C4             2.3885     0.1055    -0.0201 C.ar    
   5 C5             2.2901     1.4834    -0.0118 C.ar    
   6 N6             1.1147     2.0838     0.0026 N.ar    
   7 N7            -1.2304     2.0719     0.0191 N.pl3   
   8 C8            -1.2630    -0.7750     0.0104 C.ar    
   9 C9            -1.4631    -1.7966    -0.9195 C.ar    
  10 C10           -2.6375    -2.5135    -0.9130 C.ar    
  11 C11           -3.6310    -2.2185     0.0264 C.ar    
  12 C12           -3.4287    -1.1948     0.9579 C.ar    
  13 C13           -2.2512    -0.4829     0.9519 C.ar    
  14 C14           -4.8885    -2.9844     0.0345 C.2     
  15 C15           -5.8422    -2.7004     0.9371 C.2     
  16 C16           -7.1007    -3.4669     0.9451 C.ar    
  17 C17           -8.0951    -3.1744     1.8825 C.ar    
  18 C18           -9.2704    -3.8961     1.8840 C.ar    
  19 C19           -9.4662    -4.9077     0.9603 C.ar    
  20 C20           -8.4860    -5.2034     0.0294 C.ar    
  21 C21           -7.3081    -4.4862     0.0117 C.ar    
  22 H22            1.2850    -1.7393    -0.0192 H       
  23 H23            3.3576    -0.3711    -0.0316 H       
  24 H24            3.1905     2.0798    -0.0168 H       
  25 H25           -2.0620     1.5725     0.0203 H       
  26 H26           -1.2470     3.0417     0.0245 H       
  27 H27           -0.6958    -2.0241    -1.6447 H       
  28 H28           -2.7923    -3.3034    -1.6331 H       
  29 H29           -4.1949    -0.9658     1.6839 H       
  30 H30           -2.0932     0.3051     1.6734 H       
  31 H31           -5.0442    -3.7745    -0.6852 H       
  32 H32           -5.6865    -1.9104     1.6568 H       
  33 H33           -7.9435    -2.3854     2.6042 H       
  34 H34          -10.0396    -3.6714     2.6080 H       
  35 H35          -10.3886    -5.4695     0.9662 H       
  36 H36           -8.6457    -5.9946    -0.6883 H       
  37 H37           -6.5459    -4.7148    -0.7185 H       
@<TRIPOS>BOND
   1    1    2 ar
   2    1    6 ar
   3    1    7 1
   4    2    3 ar
   5    2    8 1
   6    3    4 ar
   7    3   22 1
   8    4    5 ar
   9    4   23 1
  10    5    6 ar
  11    5   24 1
  12    7   25 1
  13    7   26 1
  14    8    9 ar
  15    8   13 ar
  16    9   10 ar
  17    9   27 1
  18   10   11 ar
  19   10   28 1
  20   11   12 ar
  21   11   14 1
  22   12   13 ar
  23   12   29 1
  24   13   30 1
  25   14   15 2
  26   14   31 1
  27   15   16 1
  28   15   32 1
  29   16   17 ar
  30   16   21 ar
  31   17   18 ar
  32   17   33 1
  33   18   19 ar
  34   18   34 1
  35   19   20 ar
  36   19   35 1
  37   20   21 ar
  38   20   36 1
  39   21   37 1

#	End of record

