#	Name: ASD02398074
#	Creating user name:	WinNT
#	Creation time:	15. 06. 2019 20:20

#	Modifying user name:	WinNT
#	Modification time:	15. 06. 2019 20:20

#	Program:	/corina/corina34_cracker 3.40 0067  02.08.2006

@<TRIPOS>MOLECULE
ASD02398074
  52   54    0    0    0
SMALL
NO_CHARGES


@<TRIPOS>ATOM
   1 C1            -0.0167     1.3833     0.0096 C.ar    
   2 C2             0.0021    -0.0041     0.0020 C.ar    
   3 C3            -1.1853    -0.7097     0.0095 C.ar    
   4 C4            -2.3921    -0.0347     0.0242 C.ar    
   5 C5            -2.4135     1.3476     0.0318 C.ar    
   6 C6            -1.2285     2.0581     0.0306 C.ar    
   7 C7             1.3169    -0.7404    -0.0149 C.3     
   8 C8             1.4199    -1.6239     1.2277 C.3     
   9 C9             0.4550    -2.7749     1.1199 C.2     
  10 C10            0.2032    -3.3268    -0.0621 C.2     
  11 C11            0.8689    -2.8076    -1.2677 C.2     
  12 C12            1.3987    -1.5893    -1.2559 C.2     
  13 C13            2.0829    -1.0554    -2.4879 C.3     
  14 C14            1.9619     0.6692    -4.6889 C.ar    
  15 C15           -3.6860    -0.8071     0.0313 C.3     
  16 C16           -4.1047    -1.0727     1.4544 C.2     
  17 O17           -3.4223    -0.6755     2.3690 O.2     
  18 O18           -5.2356    -1.7505     1.7060 O.3     
  19 C19            1.8359    -0.0030    -5.8902 C.ar    
  20 C20            2.8299     1.7399    -4.5837 C.ar    
  21 C21            3.5719     2.1384    -5.6798 C.ar    
  22 C22            3.4463     1.4659    -6.8810 C.ar    
  23 C23            2.5780     0.3955    -6.9863 C.ar    
  24 C24           -0.7603    -4.4807    -0.1679 C.3     
  25 F25           -1.2586    -4.7901     1.1021 F       
  26 F26           -1.8194    -4.1280    -1.0112 F       
  27 F27           -0.0973    -5.5951    -0.6931 F       
  28 O28            1.1501     2.0799     0.0022 O.3     
  29 C29            1.0546     3.5057     0.0108 C.3     
  30 S30            1.0106     0.1659    -3.2937 S.o     
  31 O31           -0.0993    -0.4954    -3.8854 O.2     
  32 H32           -1.1711    -1.7896     0.0036 H       
  33 H33           -3.3573     1.8725     0.0432 H       
  34 H34           -1.2458     3.1379     0.0366 H       
  35 H35            2.1351    -0.0202    -0.0160 H       
  36 H36            2.4356    -2.0098     1.3143 H       
  37 H37            1.1817    -1.0335     2.1125 H       
  38 H38           -0.0333    -3.1530     2.0059 H       
  39 H39            0.9268    -3.4151    -2.1588 H       
  40 H40            3.0234    -0.5827    -2.2051 H       
  41 H41            2.2814    -1.8758    -3.1776 H       
  42 H42           -4.4587    -0.2262    -0.4723 H       
  43 H43           -3.5465    -1.7546    -0.4892 H       
  44 H44           -5.4627    -1.8964     2.6345 H       
  45 H45            1.1581    -0.8398    -5.9723 H       
  46 H46            2.9280     2.2653    -3.6452 H       
  47 H47            4.2496     2.9754    -5.5978 H       
  48 H48            4.0256     1.7777    -7.7375 H       
  49 H49            2.4801    -0.1302    -7.9246 H       
  50 H50            0.5092     3.8386    -0.8722 H       
  51 H51            0.5262     3.8290     0.9076 H       
  52 H52            2.0556     3.9369     0.0036 H       
@<TRIPOS>BOND
   1    1    2 ar
   2    1   28 1
   3    1    6 ar
   4    2    3 ar
   5    2    7 1
   6    3    4 ar
   7    3   32 1
   8    4    5 ar
   9    4   15 1
  10    5    6 ar
  11    5   33 1
  12    6   34 1
  13    7    8 1
  14    7   12 1
  15    7   35 1
  16    8    9 1
  17    8   36 1
  18    8   37 1
  19    9   10 2
  20    9   38 1
  21   10   11 1
  22   10   24 1
  23   11   12 2
  24   11   39 1
  25   12   13 1
  26   13   30 1
  27   13   40 1
  28   13   41 1
  29   14   19 ar
  30   14   20 ar
  31   14   30 1
  32   15   16 1
  33   15   42 1
  34   15   43 1
  35   16   17 2
  36   16   18 1
  37   18   44 1
  38   19   23 ar
  39   19   45 1
  40   20   21 ar
  41   20   46 1
  42   21   22 ar
  43   21   47 1
  44   22   23 ar
  45   22   48 1
  46   23   49 1
  47   24   25 1
  48   24   26 1
  49   24   27 1
  50   28   29 1
  51   29   50 1
  52   29   51 1
  53   29   52 1
  54   30   31 2

#	End of record

