#	Name: ASD01885882
#	Creating user name:	WinNT
#	Creation time:	15. 06. 2019 19:50

#	Modifying user name:	WinNT
#	Modification time:	15. 06. 2019 19:50

#	Program:	/corina/corina34_cracker 3.40 0067  02.08.2006

@<TRIPOS>MOLECULE
ASD01885882
  50   54    0    0    0
SMALL
NO_CHARGES


@<TRIPOS>ATOM
   1 C1            -0.0170     1.4059     0.0098 C.ar    
   2 C2             1.2137     2.1096     0.0018 C.ar    
   3 C3             1.1962     3.5275     0.0097 C.ar    
   4 C4            -0.0384     4.1620     0.0249 C.ar    
   5 C5            -1.2080     3.3939     0.0319 C.ar    
   6 N6            -1.1702     2.0746     0.0299 N.ar    
   7 C7             0.0021    -0.0041     0.0020 C.ar    
   8 C8             1.1952    -0.6629    -0.0130 C.ar    
   9 C9             2.4002     0.0349    -0.0208 C.ar    
  10 C10            2.4197     1.3978    -0.0132 C.ar    
  11 C11            1.2104    -2.1698    -0.0207 C.3     
  12 C12            2.4554     4.3069     0.0024 C.2     
  13 C13            1.0778    -2.6663    -1.4374 C.ar    
  14 C14           -2.5225     4.0793     0.0486 C.2     
  15 N15           -3.6596     3.3558     0.0556 N.am    
  16 O16           -2.5747     5.2932     0.0561 O.2     
  17 C17            3.5574     4.1194     0.8620 C.2     
  18 N18            4.4714     4.9972     0.5460 N.2     
  19 N19            3.9959     5.7736    -0.5175 N.pl3   
  20 C20            2.7645     5.3359    -0.8427 C.2     
  21 C21            4.7165     6.8704    -1.1686 C.3     
  22 F22           -1.1567    -0.6986     0.0098 F       
  23 C23            2.2022    -2.8842    -2.2105 C.ar    
  24 N24            2.0942    -3.3185    -3.4510 N.ar    
  25 C25            0.9206    -3.5614    -4.0009 C.ar    
  26 C26           -0.2478    -3.3670    -3.2884 C.ar    
  27 C27           -0.1738    -2.9157    -1.9797 C.ar    
  28 C28            0.8524    -4.0563    -5.4227 C.3     
  29 C29            0.7597    -5.5678    -5.6410 C.3     
  30 C30           -0.4629    -4.6824    -5.8904 C.3     
  31 H31           -0.0957     5.2404     0.0317 H       
  32 H32            3.3319    -0.5112    -0.0323 H       
  33 H33            3.3614     1.9266    -0.0194 H       
  34 H34            2.1496    -2.5259     0.4027 H       
  35 H35            0.3781    -2.5447     0.5750 H       
  36 H36           -3.6179     2.3867     0.0496 H       
  37 H37           -4.5197     3.8042     0.0665 H       
  38 H38            3.6325     3.3793     1.6449 H       
  39 H39            2.1327     5.7311    -1.6244 H       
  40 H40            5.3035     6.4773    -1.9987 H       
  41 H41            4.0016     7.6027    -1.5439 H       
  42 H42            5.3806     7.3474    -0.4478 H       
  43 H43            3.1809    -2.6962    -1.7941 H       
  44 H44           -1.2061    -3.5674    -3.7444 H       
  45 H45           -1.0700    -2.7548    -1.3989 H       
  46 H46            1.4209    -3.4767    -6.1500 H       
  47 H47            1.2669    -5.9825    -6.5121 H       
  48 H48            0.7480    -6.2043    -4.7562 H       
  49 H49           -1.2789    -4.7364    -5.1698 H       
  50 H50           -0.7601    -4.5147    -6.9256 H       
@<TRIPOS>BOND
   1    1    7 ar
   2    1    2 ar
   3    1    6 ar
   4    2    3 ar
   5    2   10 ar
   6    3    4 ar
   7    3   12 1
   8    4    5 ar
   9    4   31 1
  10    5    6 ar
  11    5   14 1
  12    7    8 ar
  13    7   22 1
  14    8   11 1
  15    8    9 ar
  16    9   10 ar
  17    9   32 1
  18   10   33 1
  19   11   13 1
  20   11   34 1
  21   11   35 1
  22   12   17 1
  23   12   20 2
  24   13   23 ar
  25   13   27 ar
  26   14   15 am
  27   14   16 2
  28   15   36 1
  29   15   37 1
  30   17   18 2
  31   17   38 1
  32   18   19 1
  33   19   20 1
  34   19   21 1
  35   20   39 1
  36   21   40 1
  37   21   41 1
  38   21   42 1
  39   23   24 ar
  40   23   43 1
  41   24   25 ar
  42   25   26 ar
  43   25   28 1
  44   26   27 ar
  45   26   44 1
  46   27   45 1
  47   28   29 1
  48   28   30 1
  49   28   46 1
  50   29   30 1
  51   29   47 1
  52   29   48 1
  53   30   49 1
  54   30   50 1

#	End of record

