#	Name: ASD02500721
#	Creating user name:	WinNT
#	Creation time:	15. 06. 2019 20:23

#	Modifying user name:	WinNT
#	Modification time:	15. 06. 2019 20:23

#	Program:	/corina/corina34_cracker 3.40 0067  02.08.2006

@<TRIPOS>MOLECULE
ASD02500721
  64   68    0    0    0
SMALL
NO_CHARGES


@<TRIPOS>ATOM
   1 C1             0.1848     1.5150     0.0771 C.ar    
   2 C2             1.1607     2.0804     0.8785 C.ar    
   3 C3             2.4323     1.5459     0.9034 C.ar    
   4 C4             2.7333     0.4322     0.1178 C.ar    
   5 C5             1.7442    -0.1334    -0.6884 C.ar    
   6 C6             0.4766     0.4109    -0.7040 C.ar    
   7 S7            -1.4386     2.1995     0.0567 S.o2    
   8 O8            -2.3080     1.1579    -0.3658 O.2     
   9 O9            -1.5971     2.8930     1.2868 O.2     
  10 N10           -1.4713     3.3484    -1.1354 N.am    
  11 N11           -0.0977     5.0649    -2.8765 N.ar    
  12 C12            0.5471     5.8904    -3.6647 C.ar    
  13 C13            0.8264     5.5689    -4.9913 C.ar    
  14 C14            0.4252     4.3667    -5.5000 C.ar    
  15 C15           -0.2670     3.4831    -4.6498 C.ar    
  16 C16           -0.7093     2.2302    -5.1039 C.ar    
  17 C17           -1.3759     1.3973    -4.2572 C.ar    
  18 C18           -1.6289     1.7679    -2.9400 C.ar    
  19 C19           -1.2110     2.9890    -2.4572 C.ar    
  20 C20           -0.5173     3.8740    -3.3118 C.ar    
  21 C21            4.0940    -0.1456     0.1392 C.2     
  22 O22            4.2427    -1.3460     0.2586 O.2     
  23 N23            5.1695     0.6588     0.0263 N.am    
  24 C24            6.4465     0.0757    -0.0617 C.3     
  25 C25            7.3536     0.5789     1.0899 C.3     
  26 N26            7.7138     1.9565     0.8237 N.3     
  27 C27            6.8446     2.9691     1.4583 C.3     
  28 C28            5.3549     2.6442     1.3616 C.3     
  29 C29            4.9650     2.1213    -0.0068 C.3     
  30 C30            9.1268     2.2020     1.1414 C.3     
  31 C31            9.9982     1.4147     0.1970 C.ar    
  32 C32           10.4083     1.9778    -0.9970 C.ar    
  33 C33           11.2076     1.2555    -1.8633 C.ar    
  34 C34           11.5970    -0.0297    -1.5353 C.ar    
  35 C35           11.1876    -0.5924    -0.3409 C.ar    
  36 C36           10.3920     0.1314     0.5273 C.ar    
  37 H37            0.9266     2.9424     1.4857 H       
  38 H38            3.1932     1.9885     1.5291 H       
  39 H39            1.9708    -0.9950    -1.2989 H       
  40 H40           -0.2896    -0.0258    -1.3274 H       
  41 H41           -1.6715     4.2713    -0.9142 H       
  42 H42            0.8699     6.8448    -3.2757 H       
  43 H43            1.3592     6.2698    -5.6168 H       
  44 H44            0.6329     4.1011    -6.5261 H       
  45 H45           -0.5213     1.9275    -6.1234 H       
  46 H46           -1.7134     0.4352    -4.6134 H       
  47 H47           -2.1598     1.0901    -2.2879 H       
  48 H48            6.3522    -1.0083     0.0022 H       
  49 H49            6.8981     0.3412    -1.0175 H       
  50 H50            6.8135     0.5177     2.0348 H       
  51 H51            8.2548    -0.0321     1.1399 H       
  52 H52            7.1160     3.0511     2.5108 H       
  53 H53            7.0234     3.9317     0.9791 H       
  54 H54            5.1084     1.8924     2.1114 H       
  55 H55            4.7824     3.5481     1.5696 H       
  56 H56            5.5989     2.5687    -0.7725 H       
  57 H57            3.9181     2.3464    -0.2105 H       
  58 H58            9.3438     3.2649     1.0352 H       
  59 H59            9.3282     1.8908     2.1664 H       
  60 H60           10.1041     2.9818    -1.2532 H       
  61 H61           11.5274     1.6952    -2.7964 H       
  62 H62           12.2209    -0.5942    -2.2125 H       
  63 H63           11.4917    -1.5966    -0.0849 H       
  64 H64           10.0752    -0.3069     1.4621 H       
@<TRIPOS>BOND
   1    1    2 ar
   2    1    6 ar
   3    1    7 1
   4    2    3 ar
   5    2   37 1
   6    3    4 ar
   7    3   38 1
   8    4    5 ar
   9    4   21 1
  10    5    6 ar
  11    5   39 1
  12    6   40 1
  13    7    8 2
  14    7    9 2
  15    7   10 am
  16   10   19 1
  17   10   41 1
  18   11   12 ar
  19   11   20 ar
  20   12   13 ar
  21   12   42 1
  22   13   14 ar
  23   13   43 1
  24   14   15 ar
  25   14   44 1
  26   15   16 ar
  27   15   20 ar
  28   16   17 ar
  29   16   45 1
  30   17   18 ar
  31   17   46 1
  32   18   19 ar
  33   18   47 1
  34   19   20 ar
  35   21   22 2
  36   21   23 am
  37   23   24 1
  38   23   29 1
  39   24   25 1
  40   24   48 1
  41   24   49 1
  42   25   26 1
  43   25   50 1
  44   25   51 1
  45   26   27 1
  46   26   30 1
  47   27   28 1
  48   27   52 1
  49   27   53 1
  50   28   29 1
  51   28   54 1
  52   28   55 1
  53   29   56 1
  54   29   57 1
  55   30   31 1
  56   30   58 1
  57   30   59 1
  58   31   32 ar
  59   31   36 ar
  60   32   33 ar
  61   32   60 1
  62   33   34 ar
  63   33   61 1
  64   34   35 ar
  65   34   62 1
  66   35   36 ar
  67   35   63 1
  68   36   64 1

#	End of record

