#	Name: ASD05730055
#	Creating user name:	WinNT
#	Creation time:	15. 06. 2019 21:02

#	Modifying user name:	WinNT
#	Modification time:	15. 06. 2019 21:02

#	Program:	/corina/corina34_cracker 3.40 0067  02.08.2006

@<TRIPOS>MOLECULE
ASD05730055
  70   76    0    0    0
SMALL
NO_CHARGES


@<TRIPOS>ATOM
   1 O1            -0.0078     1.0253     0.8550 O.3     
   2 C2             0.1322    -0.2546     0.4175 C.ar    
   3 C3            -0.8115    -0.8013    -0.4396 C.ar    
   4 C4            -0.6704    -2.1012    -0.8839 C.ar    
   5 C5             0.4169    -2.8609    -0.4728 C.ar    
   6 C6             1.3614    -2.3127     0.3850 C.ar    
   7 C7             1.2216    -1.0109     0.8242 C.ar    
   8 N8             0.5605    -4.1791    -0.9224 N.pl3   
   9 C9             1.8203    -4.6990    -1.1463 C.ar    
  10 N10            1.9351    -5.9814    -1.4566 N.ar    
  11 C11            3.1297    -6.5180    -1.6791 C.ar    
  12 C12            4.2720    -5.6939    -1.5779 C.ar    
  13 C13            4.0971    -4.3414    -1.2462 C.ar    
  14 N14            2.8719    -3.8930    -1.0475 N.ar    
  15 N15            3.2552    -7.8458    -2.0005 N.am    
  16 C16            4.4660    -8.3905    -2.2257 C.2     
  17 C17            5.6762    -7.5686    -2.1300 C.2     
  18 C18            5.5587    -6.2296    -1.8081 C.2     
  19 C19            2.0564    -8.6822    -2.0994 C.3     
  20 O20            4.5561    -9.5714    -2.5098 O.2     
  21 C21            7.0038    -8.1634    -2.3761 C.2     
  22 C22            1.9270    -9.2769    -3.5196 C.3     
  23 S23            8.5397    -7.3039    -2.2977 S.3     
  24 C24           -1.4798     2.8379     1.4847 C.3     
  25 C25           -1.2071     1.7094     0.4864 C.3     
  26 N26            7.2293    -9.4106    -2.6809 N.2     
  27 C27            8.4817    -9.7623    -2.8649 C.2     
  28 C28            9.3880    -8.7914    -2.7147 C.2     
  29 S29           11.1314    -8.9690    -2.8988 S.o2    
  30 C30           11.5133    -8.6434    -4.5878 C.2     
  31 S31           11.5646    -9.8327    -5.8868 S.3     
  32 C32           11.8096    -7.4499    -5.1109 C.2     
  33 N33           12.0584    -7.4669    -6.4050 N.2     
  34 C34           11.9864    -8.6080    -7.0029 C.2     
  35 O35           11.7234    -7.9204    -2.1442 O.2     
  36 O36           11.4202   -10.3429    -2.6797 O.2     
  37 C37            2.1831    -9.9201    -1.1841 C.3     
  38 O38            1.5650   -10.9933    -1.9273 O.3     
  39 C39            1.9907   -10.8039    -3.2943 C.3     
  40 C40           -2.7310     3.6049     1.0508 C.3     
  41 N41           -2.5267     4.1562    -0.2948 N.3     
  42 C42           -2.3099     3.0881    -1.2790 C.3     
  43 C43           -1.0461     2.3058    -0.9146 C.3     
  44 H44           -1.6571    -0.2104    -0.7593 H       
  45 H45           -1.4056    -2.5269    -1.5507 H       
  46 H46            2.2073    -2.9029     0.7052 H       
  47 H47            1.9562    -0.5843     1.4910 H       
  48 H48           -0.2248    -4.7272    -1.0768 H       
  49 H49            4.9470    -3.6806    -1.1593 H       
  50 H50            6.4357    -5.6040    -1.7319 H       
  51 H51            1.1674    -8.1054    -1.8444 H       
  52 H52            0.9730    -8.9962    -3.9657 H       
  53 H53            2.7549    -8.9487    -4.1480 H       
  54 H54           -1.6377     2.4156     2.4771 H       
  55 H55           -0.6271     3.5165     1.5088 H       
  56 H56           -2.0422     1.0089     0.4914 H       
  57 H57            8.7617   -10.7738    -3.1197 H       
  58 H58           11.8425    -6.5455    -4.5215 H       
  59 H59           12.1654    -8.7664    -8.0561 H       
  60 H60            3.2324   -10.1456    -0.9938 H       
  61 H61            1.6535    -9.7541    -0.2460 H       
  62 H62            1.3134   -11.3168    -3.9772 H       
  63 H63            3.0105   -11.1649    -3.4276 H       
  64 H64           -3.5860     2.9288     1.0403 H       
  65 H65           -2.9199     4.4180     1.7517 H       
  66 H66           -3.2996     4.7457    -0.5653 H       
  67 H67           -3.1668     2.4145    -1.2786 H       
  68 H68           -2.1928     3.5260    -2.2703 H       
  69 H69           -0.1866     2.9759    -0.9283 H       
  70 H70           -0.8941     1.5033    -1.6365 H       
@<TRIPOS>BOND
   1    1    2 1
   2    1   25 1
   3    2    3 ar
   4    2    7 ar
   5    3    4 ar
   6    3   44 1
   7    4    5 ar
   8    4   45 1
   9    5    6 ar
  10    5    8 1
  11    6    7 ar
  12    6   46 1
  13    7   47 1
  14    8    9 1
  15    8   48 1
  16    9   10 ar
  17    9   14 ar
  18   10   11 ar
  19   11   12 ar
  20   11   15 1
  21   12   13 ar
  22   12   18 1
  23   13   14 ar
  24   13   49 1
  25   15   16 am
  26   15   19 1
  27   16   17 1
  28   16   20 2
  29   17   18 2
  30   17   21 1
  31   18   50 1
  32   19   22 1
  33   19   37 1
  34   19   51 1
  35   21   23 1
  36   21   26 2
  37   22   39 1
  38   22   52 1
  39   22   53 1
  40   23   28 1
  41   24   25 1
  42   24   40 1
  43   24   54 1
  44   24   55 1
  45   25   43 1
  46   25   56 1
  47   26   27 1
  48   27   28 2
  49   27   57 1
  50   28   29 1
  51   29   30 1
  52   29   35 2
  53   29   36 2
  54   30   31 1
  55   30   32 2
  56   31   34 1
  57   32   33 1
  58   32   58 1
  59   33   34 2
  60   34   59 1
  61   37   38 1
  62   37   60 1
  63   37   61 1
  64   38   39 1
  65   39   62 1
  66   39   63 1
  67   40   41 1
  68   40   64 1
  69   40   65 1
  70   41   42 1
  71   41   66 1
  72   42   43 1
  73   42   67 1
  74   42   68 1
  75   43   69 1
  76   43   70 1

#	End of record

