#	Name: ASD01150811
#	Creating user name:	WinNT
#	Creation time:	15. 06. 2019 19:05

#	Modifying user name:	WinNT
#	Modification time:	15. 06. 2019 19:05

#	Program:	/corina/corina34_cracker 3.40 0067  02.08.2006

@<TRIPOS>MOLECULE
ASD01150811
  54   55    0    0    0
SMALL
NO_CHARGES


@<TRIPOS>ATOM
   1 N1             0.1336     0.7148     0.5590 N.3     
   2 C2             1.5475     0.7323     0.9615 C.3     
   3 C3             2.2723    -0.4490     0.3110 C.3     
   4 O4             2.1125    -0.3769    -1.1083 O.3     
   5 C5             0.7477    -0.3923    -1.5355 C.3     
   6 C6             0.0074     0.7895    -0.9038 C.3     
   7 C7             0.6882    -0.2765    -3.0600 C.3     
   8 C8             3.7606    -0.3907     0.6612 C.3     
   9 C9            -0.6120     1.8015     1.2080 C.3     
  10 C10            1.4976     4.4604    -0.2131 C.ar    
  11 N11            1.0966     3.3059     0.2805 N.ar    
  12 C12           -0.1625     3.1251     0.6450 C.ar    
  13 C13           -1.0625     4.1696     0.5017 C.ar    
  14 C14           -0.6035     5.3681    -0.0210 C.ar    
  15 N15            0.6703     5.4751    -0.3637 N.ar    
  16 C16           -1.5423     6.5337    -0.1973 C.3     
  17 S17           -2.3866     1.5849     0.9005 S.3     
  18 C18           -2.7243     0.5318     3.4022 C.3     
  19 C19           -2.8055     0.1468     1.9237 C.3     
  20 C20           -4.2260    -0.3168     1.5946 C.3     
  21 C21           -4.2768    -0.8190     0.1503 C.3     
  22 C22           -5.6973    -1.2826    -0.1787 C.3     
  23 C23           -5.7482    -1.7848    -1.6231 C.3     
  24 H24            2.0071     1.6654     0.6357 H       
  25 H25            1.6182     0.6502     2.0461 H       
  26 H26            1.8477    -1.3834     0.6781 H       
  27 H27            0.2788    -1.3251    -1.2221 H       
  28 H28           -1.0461     0.7492    -1.1807 H       
  29 H29            0.4424     1.7236    -1.2593 H       
  30 H30            1.2187    -1.1161    -3.5091 H       
  31 H31           -0.3522    -0.2884    -3.3849 H       
  32 H32            1.1556     0.6574    -3.3719 H       
  33 H33            3.8815    -0.4418     1.7432 H       
  34 H34            4.2760    -1.2319     0.1978 H       
  35 H35            4.1844     0.5432     0.2919 H       
  36 H36           -0.4240     1.7805     2.2815 H       
  37 H37            2.5326     4.5794    -0.4976 H       
  38 H38           -2.0966     4.0520     0.7901 H       
  39 H39           -1.5415     7.1410     0.7078 H       
  40 H40           -1.2144     7.1398    -1.0418 H       
  41 H41           -2.5500     6.1634    -0.3854 H       
  42 H42           -1.7536     0.9832     3.6073 H       
  43 H43           -3.5139     1.2461     3.6355 H       
  44 H44           -2.8476    -0.3597     4.0171 H       
  45 H45           -2.1031    -0.6613     1.7195 H       
  46 H46           -4.5105    -1.1236     2.2701 H       
  47 H47           -4.9172     0.5175     1.7137 H       
  48 H48           -3.9924    -0.0122    -0.5251 H       
  49 H49           -3.5856    -1.6533     0.0312 H       
  50 H50           -5.9818    -2.0894     0.4967 H       
  51 H51           -6.3886    -0.4483    -0.0596 H       
  52 H52           -5.4637    -0.9780    -2.2985 H       
  53 H53           -5.0569    -2.6191    -1.7422 H       
  54 H54           -6.7601    -2.1151    -1.8575 H       
@<TRIPOS>BOND
   1    1    2 1
   2    1    6 1
   3    1    9 1
   4    2    3 1
   5    2   24 1
   6    2   25 1
   7    3    4 1
   8    3    8 1
   9    3   26 1
  10    4    5 1
  11    5    6 1
  12    5    7 1
  13    5   27 1
  14    6   28 1
  15    6   29 1
  16    7   30 1
  17    7   31 1
  18    7   32 1
  19    8   33 1
  20    8   34 1
  21    8   35 1
  22    9   12 1
  23    9   17 1
  24    9   36 1
  25   10   11 ar
  26   10   15 ar
  27   10   37 1
  28   11   12 ar
  29   12   13 ar
  30   13   14 ar
  31   13   38 1
  32   14   15 ar
  33   14   16 1
  34   16   39 1
  35   16   40 1
  36   16   41 1
  37   17   19 1
  38   18   19 1
  39   18   42 1
  40   18   43 1
  41   18   44 1
  42   19   20 1
  43   19   45 1
  44   20   21 1
  45   20   46 1
  46   20   47 1
  47   21   22 1
  48   21   48 1
  49   21   49 1
  50   22   23 1
  51   22   50 1
  52   22   51 1
  53   23   52 1
  54   23   53 1
  55   23   54 1

#	End of record

