#	Name: ASD04590702
#	Creating user name:	WinNT
#	Creation time:	15. 06. 2019 20:51

#	Modifying user name:	WinNT
#	Modification time:	15. 06. 2019 20:51

#	Program:	/corina/corina34_cracker 3.40 0067  02.08.2006

@<TRIPOS>MOLECULE
ASD04590702
  85   90    0    0    0
SMALL
NO_CHARGES


@<TRIPOS>ATOM
   1 N1            -2.8465    -3.4372    -1.3097 N.ar    
   2 C2            -1.6362    -2.8981    -1.2375 C.ar    
   3 N3            -0.5334    -3.6117    -1.3974 N.ar    
   4 C4            -0.6012    -4.9172    -1.6404 C.ar    
   5 C5            -1.8726    -5.5200    -1.7231 C.ar    
   6 C6            -3.0036    -4.7289    -1.5480 C.ar    
   7 N7             0.3515    -5.8846    -1.8439 N.pl3   
   8 C8            -0.2463    -7.1143    -2.0597 C.ar    
   9 C9            -1.6408    -6.9444    -1.9950 C.ar    
  10 N10           -1.5232    -1.5407    -0.9864 N.pl3   
  11 C11           -2.6678    -0.7466    -0.9170 C.ar    
  12 C12            1.7973    -5.6485    -1.8343 C.3     
  13 C13            2.1727    -4.6324    -2.9272 C.3     
  14 C14            0.2549    -8.3853    -2.3089 C.ar    
  15 N15           -0.5607    -9.4056    -2.4805 N.ar    
  16 C16           -1.8749    -9.2797    -2.4259 C.ar    
  17 C17           -2.4615    -8.0559    -2.1828 C.ar    
  18 C18            2.8125    -3.4273    -2.2074 C.3     
  19 C19            3.3315    -4.0146    -0.8714 C.3     
  20 C20            2.2221    -5.0255    -0.4886 C.3     
  21 N21           -3.8473    -1.2730    -1.2041 N.ar    
  22 C22           -4.9563    -0.5597    -1.1518 C.ar    
  23 C23           -4.9219     0.7789    -0.7910 C.ar    
  24 C24           -3.6970     1.3681    -0.4815 C.ar    
  25 C25           -2.5569     0.5877    -0.5413 C.ar    
  26 N26           -6.1026     1.5292    -0.7387 N.3     
  27 C27           -7.2654     0.7076    -1.1029 C.3     
  28 C28           -8.5411     1.5405    -0.9568 C.3     
  29 N29           -8.4488     2.7282    -1.8174 N.3     
  30 C30           -7.2861     3.5498    -1.4532 C.3     
  31 C31           -6.0104     2.7169    -1.5993 C.3     
  32 C32           -9.6877     3.5155    -1.7625 C.3     
  33 C33           -9.5228     4.7850    -2.6005 C.3     
  34 O34           -9.2909     4.4284    -3.9647 O.3     
  35 Si35          -9.0983     5.7056    -4.9607 Si      
  36 C36           -8.8053     5.0997    -6.6979 C.3     
  37 C37          -10.6333     6.7606    -4.9215 C.3     
  38 C38           -7.6364     6.7152    -4.4002 C.3     
  39 C39          -10.0060     4.2705    -7.1581 C.3     
  40 C40           -8.6247     6.2978    -7.6322 C.3     
  41 C41           -7.5447     4.2333    -6.7300 C.3     
  42 H42           -3.9916    -5.1614    -1.6052 H       
  43 H43           -0.6480    -1.1423    -0.8587 H       
  44 H44            2.3294    -6.5858    -1.9972 H       
  45 H45            2.8877    -5.0762    -3.6199 H       
  46 H46            1.2791    -4.3149    -3.4646 H       
  47 H47            1.3226    -8.5386    -2.3628 H       
  48 H48           -2.4990   -10.1486    -2.5741 H       
  49 H49           -3.5363    -7.9599    -2.1392 H       
  50 H50            3.6389    -3.0269    -2.7946 H       
  51 H51            2.0668    -2.6547    -2.0203 H       
  52 H52            4.2842    -4.5236    -1.0173 H       
  53 H53            3.4209    -3.2345    -0.1153 H       
  54 H54            1.3810    -4.5110    -0.0239 H       
  55 H55            2.6176    -5.7914     0.1785 H       
  56 H56           -5.9013    -1.0235    -1.3931 H       
  57 H57           -3.6403     2.4085    -0.1972 H       
  58 H58           -1.5914     1.0114    -0.3076 H       
  59 H59           -7.1655     0.3735    -2.1356 H       
  60 H60           -7.3192    -0.1588    -0.4437 H       
  61 H61           -9.4022     0.9420    -1.2541 H       
  62 H62           -8.6552     1.8517     0.0815 H       
  63 H63           -7.2322     4.4162    -2.1124 H       
  64 H64           -7.3860     3.8839    -0.4205 H       
  65 H65           -5.1493     3.3154    -1.3019 H       
  66 H66           -5.8962     2.4056    -2.6376 H       
  67 H67          -10.5125     2.9232    -2.1588 H       
  68 H68           -9.8998     3.7877    -0.7285 H       
  69 H69          -10.4292     5.3864    -2.5312 H       
  70 H70           -8.6757     5.3599    -2.2262 H       
  71 H71          -10.8047     7.1151    -3.9051 H       
  72 H72          -10.5046     7.6141    -5.5871 H       
  73 H73          -11.4887     6.1699    -5.2494 H       
  74 H74           -6.7383     6.0980    -4.4231 H       
  75 H75           -7.5077     7.5688    -5.0659 H       
  76 H76           -7.8078     7.0697    -3.3838 H       
  77 H77          -10.9040     4.8878    -7.1352 H       
  78 H78           -9.8345     3.9161    -8.1745 H       
  79 H79          -10.1347     3.4170    -6.4925 H       
  80 H80           -7.7693     6.8885    -7.3043 H       
  81 H81           -8.4533     5.9433    -8.6486 H       
  82 H82           -9.5228     6.9151    -7.6093 H       
  83 H83           -7.6734     3.3798    -6.0644 H       
  84 H84           -7.3733     3.8788    -7.7464 H       
  85 H85           -6.6894     4.8240    -6.4021 H       
@<TRIPOS>BOND
   1    1    2 ar
   2    1    6 ar
   3    2    3 ar
   4    2   10 1
   5    3    4 ar
   6    4    5 ar
   7    4    7 1
   8    5    6 ar
   9    5    9 1
  10    6   42 1
  11    7    8 1
  12    7   12 1
  13    8    9 ar
  14    8   14 ar
  15    9   17 ar
  16   10   11 1
  17   10   43 1
  18   11   21 ar
  19   11   25 ar
  20   12   13 1
  21   12   20 1
  22   12   44 1
  23   13   18 1
  24   13   45 1
  25   13   46 1
  26   14   15 ar
  27   14   47 1
  28   15   16 ar
  29   16   17 ar
  30   16   48 1
  31   17   49 1
  32   18   19 1
  33   18   50 1
  34   18   51 1
  35   19   20 1
  36   19   52 1
  37   19   53 1
  38   20   54 1
  39   20   55 1
  40   21   22 ar
  41   22   23 ar
  42   22   56 1
  43   23   24 ar
  44   23   26 1
  45   24   25 ar
  46   24   57 1
  47   25   58 1
  48   26   27 1
  49   26   31 1
  50   27   28 1
  51   27   59 1
  52   27   60 1
  53   28   29 1
  54   28   61 1
  55   28   62 1
  56   29   30 1
  57   29   32 1
  58   30   31 1
  59   30   63 1
  60   30   64 1
  61   31   65 1
  62   31   66 1
  63   32   33 1
  64   32   67 1
  65   32   68 1
  66   33   34 1
  67   33   69 1
  68   33   70 1
  69   34   35 1
  70   35   36 1
  71   35   37 1
  72   35   38 1
  73   36   39 1
  74   36   40 1
  75   36   41 1
  76   37   71 1
  77   37   72 1
  78   37   73 1
  79   38   74 1
  80   38   75 1
  81   38   76 1
  82   39   77 1
  83   39   78 1
  84   39   79 1
  85   40   80 1
  86   40   81 1
  87   40   82 1
  88   41   83 1
  89   41   84 1
  90   41   85 1

#	End of record

