#	Name: ASD03630001
#	Creating user name:	WinNT
#	Creation time:	15. 06. 2019 20:43

#	Modifying user name:	WinNT
#	Modification time:	15. 06. 2019 20:43

#	Program:	/corina/corina34_cracker 3.40 0067  02.08.2006

@<TRIPOS>MOLECULE
ASD03630001
  35   38    0    0    0
SMALL
NO_CHARGES


@<TRIPOS>ATOM
   1 C1            -0.0170     1.4008     0.0097 C.ar    
   2 C2             0.0021    -0.0041     0.0020 C.ar    
   3 C3            -1.2288    -0.6851     0.0106 C.ar    
   4 N4            -2.3565     0.0199     0.0252 N.ar    
   5 C5            -2.3247     1.3355     0.0316 C.ar    
   6 N6            -1.1938     2.0180     0.0299 N.ar    
   7 N7             0.9759    -0.9443    -0.0123 N.2     
   8 C8             0.4318    -2.1289    -0.0130 C.2     
   9 N9            -0.9225    -2.0190     0.0008 N.pl3   
  10 N10            1.1623     2.1250     0.0024 N.pl3   
  11 O11           -1.7192    -2.9403     0.0046 O.3     
  12 C12           -3.0447    -2.7840     0.0183 C.2     
  13 C13           -3.7315    -4.1302     0.0350 C.3     
  14 C14           -2.6015    -5.1192     0.4408 C.3     
  15 C15           -1.3424    -4.3441    -0.0117 C.3     
  16 O16           -3.6161    -1.7147     0.0181 O.2     
  17 O17           -4.6625    -4.1873     1.1246 O.3     
  18 C18           -4.0049    -4.7957     2.2391 C.3     
  19 O19           -2.6582    -5.1181     1.8785 O.3     
  20 C20           -3.9983    -3.8239     3.4208 C.3     
  21 C21           -4.7473    -6.0737     2.6346 C.3     
  22 H22           -3.2587     1.8776     0.0435 H       
  23 H23            0.9774    -3.0609    -0.0237 H       
  24 H24            2.0151     1.6630    -0.0083 H       
  25 H25            1.1361     3.0946     0.0078 H       
  26 H26           -4.1841    -4.3797    -0.9248 H       
  27 H27           -2.6923    -6.1064    -0.0123 H       
  28 H28           -1.0529    -4.6506    -1.0168 H       
  29 H29           -0.5230    -4.5172     0.6860 H       
  30 H30           -5.0243    -3.5980     3.7112 H       
  31 H31           -3.4743    -4.2780     4.2618 H       
  32 H32           -3.4915    -2.9033     3.1313 H       
  33 H33           -4.7743    -6.7559     1.7850 H       
  34 H34           -4.2310    -6.5509     3.4676 H       
  35 H35           -5.7657    -5.8247     2.9331 H       
@<TRIPOS>BOND
   1    1    2 ar
   2    1   10 1
   3    1    6 ar
   4    2    3 ar
   5    2    7 1
   6    3    4 ar
   7    3    9 1
   8    4    5 ar
   9    5    6 ar
  10    5   22 1
  11    7    8 2
  12    8    9 1
  13    8   23 1
  14    9   11 1
  15   10   24 1
  16   10   25 1
  17   11   12 1
  18   11   15 1
  19   12   13 1
  20   12   16 2
  21   13   14 1
  22   13   17 1
  23   13   26 1
  24   14   15 1
  25   14   19 1
  26   14   27 1
  27   15   28 1
  28   15   29 1
  29   17   18 1
  30   18   19 1
  31   18   20 1
  32   18   21 1
  33   20   30 1
  34   20   31 1
  35   20   32 1
  36   21   33 1
  37   21   34 1
  38   21   35 1

#	End of record

