#	Name: ASD05380030
#	Creating user name:	WinNT
#	Creation time:	15. 06. 2019 20:59

#	Modifying user name:	WinNT
#	Modification time:	15. 06. 2019 20:59

#	Program:	/corina/corina34_cracker 3.40 0067  02.08.2006

@<TRIPOS>MOLECULE
ASD05380030
  51   55    0    0    0
SMALL
NO_CHARGES


@<TRIPOS>ATOM
   1 C1            -0.2698     1.7429    -0.3087 C.ar    
   2 C2            -0.0037     0.3796    -0.5675 C.ar    
   3 C3             0.6320     2.7208    -0.7225 C.ar    
   4 C4             1.7818     2.3478    -1.3841 C.ar    
   5 C5             2.0462     1.0091    -1.6405 C.ar    
   6 C6             1.1684     0.0270    -1.2391 C.ar    
   7 C7             0.3519     4.1761    -0.4490 C.3     
   8 N8            -0.8959    -0.5552    -0.1548 N.2     
   9 C9            -1.9854    -0.2270     0.4705 C.2     
  10 N10           -2.3223     1.0587     0.7612 N.am    
  11 C11           -1.5092     2.0808     0.4062 C.2     
  12 C12           -3.5183     1.3266     1.4390 C.ar    
  13 C13           -4.6876     1.5521     0.7241 C.ar    
  14 C14           -3.5383     1.3614     2.8265 C.ar    
  15 C15           -4.7217     1.6258     3.4929 C.ar    
  16 C16           -5.8841     1.8553     2.7760 C.ar    
  17 C17           -5.8661     1.8156     1.3940 C.ar    
  18 C18           -2.9248    -1.3261     0.8956 C.3     
  19 N19           -2.9257    -2.3860    -0.1158 N.pl3   
  20 C20           -4.0239    -3.2176    -0.2454 C.ar    
  21 N21           -5.0850    -3.0675     0.5396 N.ar    
  22 O22           -1.7977     3.2358     0.6602 O.2     
  23 C23           -4.0432    -4.2354    -1.2145 C.ar    
  24 C24           -5.1843    -5.0499    -1.3022 C.ar    
  25 N25           -6.2001    -4.8331    -0.4728 N.ar    
  26 C26           -6.1426    -3.8600     0.4220 C.ar    
  27 N27           -3.1722    -4.6646    -2.1607 N.2     
  28 C28           -3.6938    -5.6658    -2.8072 C.2     
  29 N29           -4.9357    -5.9421    -2.3144 N.pl3   
  30 C30           -2.4637    -1.9010     2.2364 C.3     
  31 F31           -4.7432     1.6596     4.8433 F       
  32 N32           -7.2236    -3.6622     1.2653 N.pl3   
  33 H33            2.4831     3.1033    -1.7063 H       
  34 H34            2.9521     0.7345    -2.1606 H       
  35 H35            1.3848    -1.0111    -1.4441 H       
  36 H36            0.6719     4.4237     0.5632 H       
  37 H37            0.8981     4.7918    -1.1636 H       
  38 H38           -0.7169     4.3653    -0.5487 H       
  39 H39           -4.6750     1.5218    -0.3554 H       
  40 H40           -2.6316     1.1820     3.3851 H       
  41 H41           -6.8072     2.0616     3.2974 H       
  42 H42           -6.7741     1.9953     0.8375 H       
  43 H43           -3.9320    -0.9229     1.0002 H       
  44 H44           -2.1564    -2.5048    -0.6945 H       
  45 H45           -3.2147    -6.1992    -3.6149 H       
  46 H46           -5.5331    -6.6414    -2.6227 H       
  47 H47           -2.4934    -1.1199     2.9961 H       
  48 H48           -3.1246    -2.7171     2.5284 H       
  49 H49           -1.4446    -2.2755     2.1400 H       
  50 H50           -7.1988    -2.9539     1.9276 H       
  51 H51           -8.0053    -4.2320     1.1936 H       
@<TRIPOS>BOND
   1    1    2 ar
   2    1    3 ar
   3    1   11 1
   4    2    8 1
   5    2    6 ar
   6    3    4 ar
   7    3    7 1
   8    4    5 ar
   9    4   33 1
  10    5    6 ar
  11    5   34 1
  12    6   35 1
  13    7   36 1
  14    7   37 1
  15    7   38 1
  16    8    9 2
  17    9   10 1
  18    9   18 1
  19   10   11 am
  20   10   12 1
  21   11   22 2
  22   12   13 ar
  23   12   14 ar
  24   13   17 ar
  25   13   39 1
  26   14   15 ar
  27   14   40 1
  28   15   16 ar
  29   15   31 1
  30   16   17 ar
  31   16   41 1
  32   17   42 1
  33   18   19 1
  34   18   30 1
  35   18   43 1
  36   19   20 1
  37   19   44 1
  38   20   21 ar
  39   20   23 ar
  40   21   26 ar
  41   23   24 ar
  42   23   27 1
  43   24   25 ar
  44   24   29 1
  45   25   26 ar
  46   26   32 1
  47   27   28 2
  48   28   29 1
  49   28   45 1
  50   29   46 1
  51   30   47 1
  52   30   48 1
  53   30   49 1
  54   32   50 1
  55   32   51 1

#	End of record

