#	Name: ASD00170798
#	Creating user name:	WinNT
#	Creation time:	15. 06. 2019 18:32

#	Modifying user name:	WinNT
#	Modification time:	15. 06. 2019 18:32

#	Program:	/corina/corina34_cracker 3.40 0067  02.08.2006

@<TRIPOS>MOLECULE
ASD00170798
  63   67    0    0    0
SMALL
NO_CHARGES


@<TRIPOS>ATOM
   1 C1             0.0186     1.2799     0.0231 C.2     
   2 C2            -0.0294    -0.0574    -0.0157 C.2     
   3 S3            -1.6911    -0.6204    -0.0097 S.3     
   4 C4            -2.3107     0.9661     0.0455 C.2     
   5 C5            -1.2890     1.8903     0.0646 C.2     
   6 N6            -3.6521     1.2817     0.0731 N.pl3   
   7 C7            -1.5064     3.3368     0.1116 C.2     
   8 C8            -1.4835     4.0461     1.4088 C.ar    
   9 O9            -1.7061     3.9563    -0.9176 O.2     
  10 C10           -1.7935     5.4060     1.4696 C.ar    
  11 C11           -1.7705     6.0621     2.6822 C.ar    
  12 C12           -1.4405     5.3746     3.8386 C.ar    
  13 C13           -1.1320     4.0253     3.7846 C.ar    
  14 C14           -1.1573     3.3572     2.5786 C.ar    
  15 Cl15          -1.4131     6.2074     5.3615 Cl      
  16 C16            1.1557    -0.9392    -0.0583 C.ar    
  17 C17            1.3042     2.0663     0.0292 C.3     
  18 N18            1.7853     2.2290    -1.3492 N.3     
  19 C19            2.9000     3.1848    -1.4085 C.3     
  20 C20            3.4230     3.2659    -2.8446 C.3     
  21 N21            2.3315     3.6780    -3.7382 N.3     
  22 C22            1.2168     2.7222    -3.6788 C.3     
  23 C23            0.6938     2.6411    -2.2427 C.3     
  24 C24            2.7889     3.8327    -5.0488 C.ar    
  25 C25            1.2670    -2.0072     0.8339 C.ar    
  26 C26            2.3756    -2.8267     0.7893 C.ar    
  27 C27            3.3771    -2.5916    -0.1377 C.ar    
  28 C28            3.2726    -1.5336    -1.0250 C.ar    
  29 C29            2.1658    -0.7111    -0.9946 C.ar    
  30 C30            1.9094     4.2198    -6.0519 C.ar    
  31 C31            2.3651     4.3723    -7.3467 C.ar    
  32 C32            3.6953     4.1401    -7.6450 C.ar    
  33 C33            4.5736     3.7547    -6.6488 C.ar    
  34 C34            4.1256     3.6054    -5.3510 C.ar    
  35 Cl35           4.7696    -3.6271    -0.1873 Cl      
  36 C36            4.1889     4.3071    -9.0591 C.3     
  37 F37            4.6177     5.6249    -9.2508 F       
  38 F38            5.2560     3.4316    -9.2870 F       
  39 F39            3.1511     4.0198    -9.9522 F       
  40 H40           -4.3172     0.5807    -0.0116 H       
  41 H41           -3.9310     2.2049     0.1772 H       
  42 H42           -2.0506     5.9432     0.5686 H       
  43 H43           -2.0098     7.1141     2.7304 H       
  44 H44           -0.8752     3.4946     4.6894 H       
  45 H45           -0.9166     2.3051     2.5376 H       
  46 H46            1.1280     3.0472     0.4708 H       
  47 H47            2.0532     1.5334     0.6150 H       
  48 H48            2.5529     4.1684    -1.0918 H       
  49 H49            3.7005     2.8513    -0.7483 H       
  50 H50            4.2309     3.9958    -2.8968 H       
  51 H51            3.7951     2.2885    -3.1519 H       
  52 H52            0.4163     3.0557    -4.3391 H       
  53 H53            1.5639     1.7387    -3.9955 H       
  54 H54           -0.1141     1.9112    -2.1906 H       
  55 H55            0.3217     3.6185    -1.9355 H       
  56 H56            0.4869    -2.1911     1.5578 H       
  57 H57            2.4629    -3.6532     1.4790 H       
  58 H58            4.0571    -1.3551    -1.7454 H       
  59 H59            2.0852     0.1135    -1.6873 H       
  60 H60            0.8704     4.4009    -5.8197 H       
  61 H61            1.6818     4.6729    -8.1271 H       
  62 H62            5.6118     3.5742    -6.8852 H       
  63 H63            4.8121     3.3047    -4.5733 H       
@<TRIPOS>BOND
   1    1    2 2
   2    1   17 1
   3    1    5 1
   4    2    3 1
   5    2   16 1
   6    3    4 1
   7    4    5 2
   8    4    6 1
   9    5    7 1
  10    6   40 1
  11    6   41 1
  12    7    8 1
  13    7    9 2
  14    8   10 ar
  15    8   14 ar
  16   10   11 ar
  17   10   42 1
  18   11   12 ar
  19   11   43 1
  20   12   13 ar
  21   12   15 1
  22   13   14 ar
  23   13   44 1
  24   14   45 1
  25   16   25 ar
  26   16   29 ar
  27   17   18 1
  28   17   46 1
  29   17   47 1
  30   18   19 1
  31   18   23 1
  32   19   20 1
  33   19   48 1
  34   19   49 1
  35   20   21 1
  36   20   50 1
  37   20   51 1
  38   21   22 1
  39   21   24 1
  40   22   23 1
  41   22   52 1
  42   22   53 1
  43   23   54 1
  44   23   55 1
  45   24   30 ar
  46   24   34 ar
  47   25   26 ar
  48   25   56 1
  49   26   27 ar
  50   26   57 1
  51   27   28 ar
  52   27   35 1
  53   28   29 ar
  54   28   58 1
  55   29   59 1
  56   30   31 ar
  57   30   60 1
  58   31   32 ar
  59   31   61 1
  60   32   33 ar
  61   32   36 1
  62   33   34 ar
  63   33   62 1
  64   34   63 1
  65   36   37 1
  66   36   38 1
  67   36   39 1

#	End of record

