#	Name: ASD08150456
#	Creating user name:	WinNT
#	Creation time:	15. 06. 2019 21:16

#	Modifying user name:	WinNT
#	Modification time:	15. 06. 2019 21:16

#	Program:	/corina/corina34_cracker 3.40 0067  02.08.2006

@<TRIPOS>MOLECULE
ASD08150456
  50   54    0    0    0
SMALL
NO_CHARGES


@<TRIPOS>ATOM
   1 N1             0.4522     2.0845     1.7500 N.am    
   2 C2             0.7184     1.1334     2.6662 C.2     
   3 C3             1.9322     0.4171     2.6341 C.2     
   4 C4             2.8542     0.6781     1.6728 C.2     
   5 C5             2.5774     1.6778     0.7069 C.ar    
   6 C6             3.4991     1.9873    -0.3115 C.ar    
   7 N7             3.2412     2.9100    -1.2012 N.ar    
   8 C8             2.0962     3.6094    -1.1984 C.ar    
   9 C9             1.1109     3.3642    -0.2104 C.ar    
  10 C10            1.3597     2.3728     0.7674 C.ar    
  11 C11           -0.0789     4.0989    -0.2160 C.ar    
  12 C12           -0.2814     5.0619    -1.1913 C.ar    
  13 C13            0.6982     5.2988    -2.1657 C.ar    
  14 C14            1.8604     4.5925    -2.1734 C.ar    
  15 O15           -0.1013     0.8891     3.5351 O.2     
  16 C16           -1.5407     5.8453    -1.2048 C.ar    
  17 C17           -0.7626     2.7781     1.8002 C.ar    
  18 C18           -1.8836     2.2652     1.1610 C.ar    
  19 C19           -3.0810     2.9518     1.2128 C.ar    
  20 C20           -3.1641     4.1486     1.9001 C.ar    
  21 C21           -2.0494     4.6622     2.5378 C.ar    
  22 C22           -0.8508     3.9781     2.4943 C.ar    
  23 C23           -4.4720     4.8954     1.9542 C.3     
  24 C24           -1.5313     7.1976    -1.5669 C.ar    
  25 C25           -2.7490     5.2447    -0.8632 C.ar    
  26 N26           -3.8709     5.9367    -0.8742 N.ar    
  27 C27           -3.8960     7.2184    -1.2069 C.ar    
  28 C28           -2.7279     7.8861    -1.5653 C.ar    
  29 N29           -5.1042     7.9040    -1.2035 N.pl3   
  30 C30           -4.2979     2.3961     0.5190 C.3     
  31 H31            2.1292    -0.3416     3.3770 H       
  32 H32            3.7856     0.1321     1.6445 H       
  33 H33            4.4365     1.4530    -0.3584 H       
  34 H34           -0.8343     3.9169     0.5340 H       
  35 H35            0.5278     6.0524    -2.9204 H       
  36 H36            2.6042     4.7881    -2.9316 H       
  37 H37           -1.8192     1.3305     0.6237 H       
  38 H38           -2.1175     5.5975     3.0736 H       
  39 H39            0.0193     4.3796     2.9924 H       
  40 H40           -5.0426     4.5664     2.8226 H       
  41 H41           -4.2768     5.9649     2.0316 H       
  42 H42           -5.0426     4.6949     1.0473 H       
  43 H43           -0.6101     7.6905    -1.8405 H       
  44 H44           -2.7676     4.2009    -0.5867 H       
  45 H45           -2.7570     8.9315    -1.8350 H       
  46 H46           -5.9223     7.4440    -0.9585 H       
  47 H47           -5.1298     8.8429    -1.4461 H       
  48 H48           -4.8464     1.7529     1.2071 H       
  49 H49           -4.9400     3.2167     0.1988 H       
  50 H50           -3.9876     1.8170    -0.3507 H       
@<TRIPOS>BOND
   1    1    2 am
   2    1   10 1
   3    1   17 1
   4    2    3 1
   5    2   15 2
   6    3    4 2
   7    3   31 1
   8    4    5 1
   9    4   32 1
  10    5    6 ar
  11    5   10 ar
  12    6    7 ar
  13    6   33 1
  14    7    8 ar
  15    8    9 ar
  16    8   14 ar
  17    9   10 ar
  18    9   11 ar
  19   11   12 ar
  20   11   34 1
  21   12   13 ar
  22   12   16 1
  23   13   14 ar
  24   13   35 1
  25   14   36 1
  26   16   24 ar
  27   16   25 ar
  28   17   18 ar
  29   17   22 ar
  30   18   19 ar
  31   18   37 1
  32   19   20 ar
  33   19   30 1
  34   20   21 ar
  35   20   23 1
  36   21   22 ar
  37   21   38 1
  38   22   39 1
  39   23   40 1
  40   23   41 1
  41   23   42 1
  42   24   28 ar
  43   24   43 1
  44   25   26 ar
  45   25   44 1
  46   26   27 ar
  47   27   28 ar
  48   27   29 1
  49   28   45 1
  50   29   46 1
  51   29   47 1
  52   30   48 1
  53   30   49 1
  54   30   50 1

#	End of record

