#	Name: ASD03320202
#	Creating user name:	WinNT
#	Creation time:	15. 06. 2019 20:36

#	Modifying user name:	WinNT
#	Modification time:	15. 06. 2019 20:36

#	Program:	/corina/corina34_cracker 3.40 0067  02.08.2006

@<TRIPOS>MOLECULE
ASD03320202
  44   46    0    0    0
SMALL
NO_CHARGES


@<TRIPOS>ATOM
   1 C1            -0.0074     1.3431    -0.1946 C.ar    
   2 C2             0.0219    -0.0349     0.0267 C.ar    
   3 N3            -1.0897    -0.7408     0.0439 N.ar    
   4 C4            -2.2749    -0.1844    -0.1452 C.ar    
   5 C5            -2.3924     1.1941    -0.3737 C.ar    
   6 C6            -1.2414     1.9753    -0.3944 C.ar    
   7 C7             1.2448     2.1246    -0.2118 C.2     
   8 O8             1.2099     3.3245    -0.4054 O.2     
   9 N9             2.4267     1.5081    -0.0130 N.am    
  10 C10            3.6210     2.2305    -0.1262 C.ar    
  11 C11           -3.7248     1.8111    -0.5849 C.ar    
  12 C12            3.6734     3.5553     0.2867 C.ar    
  13 C13            4.8515     4.2668     0.1752 C.ar    
  14 C14            5.9826     3.6585    -0.3492 C.ar    
  15 C15            5.9310     2.3353    -0.7624 C.ar    
  16 C16            4.7551     1.6207    -0.6462 C.ar    
  17 O17            7.1424     4.3598    -0.4587 O.3     
  18 C18            8.2677     3.6710    -1.0075 C.3     
  19 F19            7.9646     3.2410    -2.3038 F       
  20 F20            9.3684     4.5336    -1.0477 F       
  21 F21            8.5719     2.5638    -0.2082 F       
  22 C22           -4.1141     2.9433     0.1355 C.ar    
  23 N23           -5.3105     3.4612    -0.0838 N.ar    
  24 C24           -6.1300     2.9249    -0.9661 C.ar    
  25 N25           -5.8024     1.8570    -1.6663 N.ar    
  26 C26           -4.6230     1.2796    -1.5139 C.ar    
  27 O27           -3.3880    -0.9555    -0.1182 O.3     
  28 C28           -3.2038    -2.3527     0.1185 C.3     
  29 C29           -4.5634    -3.0544     0.1134 C.3     
  30 H30            0.9691    -0.5289     0.1857 H       
  31 H31           -1.2972     3.0398    -0.5678 H       
  32 H32            2.4500     0.5640     0.2085 H       
  33 H33            2.7928     4.0291     0.6946 H       
  34 H34            4.8923     5.2973     0.4960 H       
  35 H35            6.8119     1.8625    -1.1709 H       
  36 H36            4.7150     0.5905    -0.9679 H       
  37 H37           -3.4483     3.3880     0.8603 H       
  38 H38           -7.1000     3.3740    -1.1199 H       
  39 H39           -4.3618     0.4050    -2.0911 H       
  40 H40           -2.5745    -2.7741    -0.6654 H       
  41 H41           -2.7240    -2.4971     1.0865 H       
  42 H42           -5.1927    -2.6330     0.8973 H       
  43 H43           -5.0432    -2.9101    -0.8546 H       
  44 H44           -4.4229    -4.1202     0.2940 H       
@<TRIPOS>BOND
   1    1    2 ar
   2    1    7 1
   3    1    6 ar
   4    2    3 ar
   5    2   30 1
   6    3    4 ar
   7    4    5 ar
   8    4   27 1
   9    5    6 ar
  10    5   11 1
  11    6   31 1
  12    7    8 2
  13    7    9 am
  14    9   10 1
  15    9   32 1
  16   10   12 ar
  17   10   16 ar
  18   11   22 ar
  19   11   26 ar
  20   12   13 ar
  21   12   33 1
  22   13   14 ar
  23   13   34 1
  24   14   15 ar
  25   14   17 1
  26   15   16 ar
  27   15   35 1
  28   16   36 1
  29   17   18 1
  30   18   19 1
  31   18   20 1
  32   18   21 1
  33   22   23 ar
  34   22   37 1
  35   23   24 ar
  36   24   25 ar
  37   24   38 1
  38   25   26 ar
  39   26   39 1
  40   27   28 1
  41   28   29 1
  42   28   40 1
  43   28   41 1
  44   29   42 1
  45   29   43 1
  46   29   44 1

#	End of record

