#	Name: ASD01916157
#	Creating user name:	WinNT
#	Creation time:	15. 06. 2019 20:06

#	Modifying user name:	WinNT
#	Modification time:	15. 06. 2019 20:06

#	Program:	/corina/corina34_cracker 3.40 0067  02.08.2006

@<TRIPOS>MOLECULE
ASD01916157
  44   47    0    0    0
SMALL
NO_CHARGES


@<TRIPOS>ATOM
   1 C1             0.0780     1.3896    -0.0541 C.ar    
   2 C2             0.0831     0.0081    -0.0544 C.ar    
   3 C3             1.2873    -0.6803    -0.0525 C.ar    
   4 C4             2.4848     0.0196    -0.0502 C.ar    
   5 C5             2.4768     1.4010    -0.0499 C.ar    
   6 C6             1.2741     2.0869    -0.0519 C.ar    
   7 O7             1.2938    -2.0398    -0.0523 O.3     
   8 C8             2.5701    -2.6824    -0.0502 C.3     
   9 C9             2.3798    -4.1774    -0.0504 C.2     
  10 C10            1.1502    -4.8483    -0.0522 C.2     
  11 N11            3.3360    -5.0730    -0.0545 N.2     
  12 N12            2.7465    -6.3400    -0.0575 N.pl3   
  13 C13            1.4041    -6.1705    -0.0510 C.2     
  14 C14            3.4282    -7.6372    -0.0751 C.3     
  15 C15            2.4540    -8.7262     0.3873 C.3     
  16 N16            1.1648    -8.5453    -0.2972 N.am    
  17 C17            0.4088    -7.3066    -0.0380 C.3     
  18 C18            0.6888    -9.4829    -1.1403 C.2     
  19 C19           -0.6650    -9.3413    -1.7143 C.ar    
  20 O20            1.3735   -10.4452    -1.4284 O.2     
  21 C21           -0.9231    -9.7755    -3.0162 C.ar    
  22 C22           -3.2035    -9.0762    -2.7903 C.ar    
  23 C23           -2.9541    -8.6486    -1.4951 C.ar    
  24 C24           -1.6927    -8.7780    -0.9548 C.ar    
  25 C25           -2.1882    -9.6414    -3.5467 C.ar    
  26 F26           -4.4416    -8.9466    -3.3152 F       
  27 F27            1.2676     3.4379    -0.0520 F       
  28 H28           -0.8595     1.9258    -0.0602 H       
  29 H29           -0.8500    -0.5356    -0.0559 H       
  30 H30            3.4231    -0.5152    -0.0483 H       
  31 H31            3.4090     1.9462    -0.0477 H       
  32 H32            3.1271    -2.3870    -0.9393 H       
  33 H33            3.1243    -2.3868     0.8406 H       
  34 H34            0.1734    -4.3874    -0.0543 H       
  35 H35            3.7660    -7.8572    -1.0878 H       
  36 H36            4.2858    -7.6069     0.5969 H       
  37 H37            2.8616    -9.7071     0.1428 H       
  38 H38            2.3078    -8.6503     1.4648 H       
  39 H39           -0.0744    -7.3630     0.9374 H       
  40 H40           -0.3393    -7.1576    -0.8167 H       
  41 H41           -0.1328   -10.2153    -3.6065 H       
  42 H42           -3.7496    -8.2132    -0.9086 H       
  43 H43           -1.4995    -8.4447     0.0541 H       
  44 H44           -2.3889    -9.9769    -4.5535 H       
@<TRIPOS>BOND
   1    1    2 ar
   2    1    6 ar
   3    1   28 1
   4    2    3 ar
   5    2   29 1
   6    3    4 ar
   7    3    7 1
   8    4    5 ar
   9    4   30 1
  10    5    6 ar
  11    5   31 1
  12    6   27 1
  13    7    8 1
  14    8    9 1
  15    8   32 1
  16    8   33 1
  17    9   10 1
  18    9   11 2
  19   10   13 2
  20   10   34 1
  21   11   12 1
  22   12   13 1
  23   12   14 1
  24   13   17 1
  25   14   15 1
  26   14   35 1
  27   14   36 1
  28   15   16 1
  29   15   37 1
  30   15   38 1
  31   16   17 1
  32   16   18 am
  33   17   39 1
  34   17   40 1
  35   18   19 1
  36   18   20 2
  37   19   21 ar
  38   19   24 ar
  39   21   25 ar
  40   21   41 1
  41   22   23 ar
  42   22   26 1
  43   22   25 ar
  44   23   24 ar
  45   23   42 1
  46   24   43 1
  47   25   44 1

#	End of record

