#	Name: ASD02198609
#	Creating user name:	WinNT
#	Creation time:	15. 06. 2019 20:19

#	Modifying user name:	WinNT
#	Modification time:	15. 06. 2019 20:19

#	Program:	/corina/corina34_cracker 3.40 0067  02.08.2006

@<TRIPOS>MOLECULE
ASD02198609
  38   41    0    0    0
SMALL
NO_CHARGES


@<TRIPOS>ATOM
   1 C1            -0.0439     1.5051    -0.1136 C.2     
   2 C2            -0.0745     0.1655     0.0992 C.2     
   3 N3             1.0694    -0.5368     0.2620 N.pl3   
   4 N4             2.2343    -0.0030     0.2275 N.2     
   5 C5             2.4067     1.2861     0.0285 C.2     
   6 C6             1.2214     2.1382    -0.1596 C.2     
   7 C7             0.9769    -1.9159     0.4794 C.ar    
   8 C8             1.5767    -2.4872     1.5971 C.ar    
   9 C9             1.4825    -3.8508     1.8086 C.ar    
  10 C10            0.7928    -4.6450     0.9098 C.ar    
  11 C11            0.1957    -4.0782    -0.2031 C.ar    
  12 C12            0.2811    -2.7167    -0.4172 C.ar    
  13 C13            3.7641     1.8674    -0.0046 C.2     
  14 N14            4.3065     2.6064    -1.0182 N.pl3   
  15 N15            5.6087     2.9573    -0.6407 N.2     
  16 C16            5.8523     2.4583     0.5449 C.2     
  17 C17            4.7199     1.7717     0.9831 C.2     
  18 C18            3.6737     2.9507    -2.2194 C.ar    
  19 C19            2.9064     2.0114    -2.8957 C.ar    
  20 O20            1.3253     3.3411    -0.3482 O.2     
  21 C21            3.8075     4.2337    -2.7334 C.ar    
  22 C22            3.1823     4.5701    -3.9181 C.ar    
  23 C23            2.4236     3.6308    -4.5922 C.ar    
  24 C24            2.2837     2.3540    -4.0799 C.ar    
  25 F25            2.2505    -1.7114     2.4743 F       
  26 Cl26           0.6763    -6.3562     1.1780 Cl      
  27 H27           -0.9549     2.0693    -0.2481 H       
  28 H28           -1.0247    -0.3463     0.1396 H       
  29 H29            1.9479    -4.2959     2.6756 H       
  30 H30           -0.3416    -4.7012    -0.9028 H       
  31 H31           -0.1855    -2.2760    -1.2857 H       
  32 H32            6.7760     2.5639     1.0944 H       
  33 H33            4.6137     1.2529     1.9243 H       
  34 H34            2.7971     1.0139    -2.4964 H       
  35 H35            4.3996     4.9679    -2.2072 H       
  36 H36            3.2857     5.5679    -4.3182 H       
  37 H37            1.9357     3.8963    -5.5184 H       
  38 H38            1.6909     1.6225    -4.6089 H       
@<TRIPOS>BOND
   1    1    2 2
   2    1    6 1
   3    1   27 1
   4    2    3 1
   5    2   28 1
   6    3    4 1
   7    3    7 1
   8    4    5 2
   9    5    6 1
  10    5   13 1
  11    6   20 2
  12    7    8 ar
  13    7   12 ar
  14    8    9 ar
  15    8   25 1
  16    9   10 ar
  17    9   29 1
  18   10   11 ar
  19   10   26 1
  20   11   12 ar
  21   11   30 1
  22   12   31 1
  23   13   14 1
  24   13   17 2
  25   14   15 1
  26   14   18 1
  27   15   16 2
  28   16   17 1
  29   16   32 1
  30   17   33 1
  31   18   21 ar
  32   18   19 ar
  33   19   24 ar
  34   19   34 1
  35   21   22 ar
  36   21   35 1
  37   22   23 ar
  38   22   36 1
  39   23   24 ar
  40   23   37 1
  41   24   38 1

#	End of record

