#	Name: ASD01912928
#	Creating user name:	WinNT
#	Creation time:	15. 06. 2019 20:00

#	Modifying user name:	WinNT
#	Modification time:	15. 06. 2019 20:00

#	Program:	/corina/corina34_cracker 3.40 0067  02.08.2006

@<TRIPOS>MOLECULE
ASD01912928
  39   42    0    0    0
SMALL
NO_CHARGES


@<TRIPOS>ATOM
   1 C1            -0.0165     1.3669     0.0096 C.2     
   2 N2             0.0021    -0.0041     0.0020 N.pl3   
   3 C3            -1.2023    -0.6921     0.0098 C.2     
   4 C4            -2.3629    -0.0499     0.0243 C.2     
   5 N5            -2.4359     1.3308     0.0320 N.am    
   6 C6            -1.3019     2.0668     0.0309 C.2     
   7 C7             1.3015     1.7836    -0.0008 C.2     
   8 C8             2.0550     0.6110    -0.0143 C.2     
   9 N9             1.2244    -0.4045    -0.0118 N.2     
  10 O10           -1.3488     3.2837     0.0376 O.2     
  11 C11           -3.6794     1.9643     0.0469 C.ar    
  12 C12            3.5595     0.5249    -0.0295 C.3     
  13 O13            4.1120     1.8428    -0.0282 O.3     
  14 C14            5.4682     1.9436    -0.0410 C.ar    
  15 C15            6.0743     3.1962    -0.0405 C.ar    
  16 C16            7.4565     3.2937    -0.0537 C.ar    
  17 C17            8.2301     2.1481    -0.0673 C.ar    
  18 C18            7.6279     0.9036    -0.0682 C.ar    
  19 C19            6.2495     0.7993    -0.0489 C.ar    
  20 C20           -4.8374     1.2042     0.1649 C.ar    
  21 N21           -3.7441     3.2828    -0.0461 N.ar    
  22 C22           -4.8980     3.9219    -0.0356 C.ar    
  23 C23           -6.0904     3.2297     0.0743 C.ar    
  24 C24           -6.0643     1.8438     0.1789 C.ar    
  25 O25            5.3118     4.3222    -0.0276 O.3     
  26 F26           -7.2671     3.8934     0.0846 F       
  27 H27           -1.1950    -1.7720     0.0036 H       
  28 H28           -3.2784    -0.6227     0.0300 H       
  29 H29            1.6684     2.7994     0.0012 H       
  30 H30            3.9016    -0.0134     0.8543 H       
  31 H31            3.8840    -0.0042    -0.9255 H       
  32 H32            7.9293     4.2646    -0.0537 H       
  33 H33            9.3072     2.2254    -0.0775 H       
  34 H34            8.2357     0.0109    -0.0792 H       
  35 H35            5.7816    -0.1741    -0.0497 H       
  36 H36           -4.7802     0.1286     0.2443 H       
  37 H37           -4.9118     4.9990    -0.1134 H       
  38 H38           -6.9808     1.2789     0.2655 H       
  39 H39            5.0997     4.6434     0.8595 H       
@<TRIPOS>BOND
   1    1    2 1
   2    1    7 2
   3    1    6 1
   4    2    3 1
   5    2    9 1
   6    3    4 2
   7    3   27 1
   8    4    5 1
   9    4   28 1
  10    5    6 am
  11    5   11 1
  12    6   10 2
  13    7    8 1
  14    7   29 1
  15    8    9 2
  16    8   12 1
  17   11   21 ar
  18   11   20 ar
  19   12   13 1
  20   12   30 1
  21   12   31 1
  22   13   14 1
  23   14   15 ar
  24   14   19 ar
  25   15   16 ar
  26   15   25 1
  27   16   17 ar
  28   16   32 1
  29   17   18 ar
  30   17   33 1
  31   18   19 ar
  32   18   34 1
  33   19   35 1
  34   20   24 ar
  35   20   36 1
  36   21   22 ar
  37   22   23 ar
  38   22   37 1
  39   23   24 ar
  40   23   26 1
  41   24   38 1
  42   25   39 1

#	End of record

