#	Name: ASD01810583
#	Creating user name:	WinNT
#	Creation time:	15. 06. 2019 19:24

#	Modifying user name:	WinNT
#	Modification time:	15. 06. 2019 19:24

#	Program:	/corina/corina34_cracker 3.40 0067  02.08.2006

@<TRIPOS>MOLECULE
ASD01810583
  44   48    0    0    0
SMALL
NO_CHARGES


@<TRIPOS>ATOM
   1 C1            -0.0167     1.3812     0.0096 C.ar    
   2 C2             0.0021    -0.0041     0.0020 C.ar    
   3 C3             1.1984    -0.6908    -0.0131 C.ar    
   4 C4             2.4015     0.0061    -0.0204 C.ar    
   5 C5             2.3789     1.4106    -0.0127 C.ar    
   6 C6             1.1664     2.0916     0.0022 C.ar    
   7 N7             3.6054    -0.6770    -0.0347 N.pl3   
   8 C8             4.7971    -0.0584    -0.0423 C.2     
   9 C9             4.9001     1.3105    -0.0364 C.2     
  10 C10            3.6673     2.1304    -0.0207 C.2     
  11 C11            5.9972     2.2731    -0.0422 C.2     
  12 N12            5.4244     3.4961    -0.0313 N.am    
  13 N13            4.0322     3.3795    -0.0185 N.2     
  14 O14            7.1917     2.0232    -0.0541 O.2     
  15 C15            3.5781    -2.1418    -0.0413 C.3     
  16 C16            3.5556    -2.6374    -1.4643 C.ar    
  17 C17            4.7308    -2.6895    -2.1958 C.ar    
  18 C18            4.7143    -3.1441    -3.5016 C.ar    
  19 C19            3.5140    -3.5492    -4.0795 C.ar    
  20 C20            2.3355    -3.4942    -3.3382 C.ar    
  21 C21            2.3628    -3.0440    -2.0338 C.ar    
  22 C22            3.4899    -4.0378    -5.4813 C.2     
  23 C23            4.5980    -4.1468    -6.3439 C.2     
  24 N24            4.1766    -4.6149    -7.4888 N.2     
  25 N25            2.7945    -4.8216    -7.4034 N.pl3   
  26 C26            2.3913    -4.4684    -6.1663 C.2     
  27 F27            5.8940    -2.2955    -1.6330 F       
  28 C28            1.9355    -5.3376    -8.4721 C.3     
  29 H29           -0.9602     1.9068     0.0170 H       
  30 H30           -0.9288    -0.5516     0.0083 H       
  31 H31            1.2005    -1.7708    -0.0189 H       
  32 H32            1.1508     3.1714     0.0084 H       
  33 H33            5.6984    -0.6535    -0.0530 H       
  34 H34            5.9102     4.3357    -0.0315 H       
  35 H35            4.4658    -2.5240     0.4626 H       
  36 H36            2.6862    -2.4908     0.4791 H       
  37 H37            5.6304    -3.1845    -4.0721 H       
  38 H38            1.4023    -3.8072    -3.7826 H       
  39 H39            1.4493    -3.0017    -1.4592 H       
  40 H40            5.6181    -3.8882    -6.1014 H       
  41 H41            1.3806    -4.5119    -5.7882 H       
  42 H42            1.8860    -6.4244    -8.4056 H       
  43 H43            0.9338    -4.9211    -8.3662 H       
  44 H44            2.3477    -5.0512    -9.4397 H       
@<TRIPOS>BOND
   1    1    2 ar
   2    1    6 ar
   3    1   29 1
   4    2    3 ar
   5    2   30 1
   6    3    4 ar
   7    3   31 1
   8    4    5 ar
   9    4    7 1
  10    5    6 ar
  11    5   10 1
  12    6   32 1
  13    7    8 1
  14    7   15 1
  15    8    9 2
  16    8   33 1
  17    9   10 1
  18    9   11 1
  19   10   13 2
  20   11   12 am
  21   11   14 2
  22   12   13 1
  23   12   34 1
  24   15   16 1
  25   15   35 1
  26   15   36 1
  27   16   17 ar
  28   16   21 ar
  29   17   18 ar
  30   17   27 1
  31   18   19 ar
  32   18   37 1
  33   19   20 ar
  34   19   22 1
  35   20   21 ar
  36   20   38 1
  37   21   39 1
  38   22   23 1
  39   22   26 2
  40   23   24 2
  41   23   40 1
  42   24   25 1
  43   25   26 1
  44   25   28 1
  45   26   41 1
  46   28   42 1
  47   28   43 1
  48   28   44 1

#	End of record

