#	Name: ASD00071038
#	Creating user name:	WinNT
#	Creation time:	15. 06. 2019 18:30

#	Modifying user name:	WinNT
#	Modification time:	15. 06. 2019 18:30

#	Program:	/corina/corina34_cracker 3.40 0067  02.08.2006

@<TRIPOS>MOLECULE
ASD00071038
  43   45    0    0    0
SMALL
NO_CHARGES


@<TRIPOS>ATOM
   1 N1            -0.1100     1.1193     0.4099 N.ar    
   2 C2             0.0186    -0.1618     0.1345 C.ar    
   3 C3             1.2542    -0.7124    -0.2357 C.ar    
   4 C4             2.3556     0.0850    -0.3168 C.ar    
   5 C5             2.2112     1.4564    -0.0210 C.ar    
   6 C6             3.3045     2.3329    -0.0845 C.ar    
   7 C7             3.1274     3.6558     0.2094 C.ar    
   8 C8             1.8700     4.1443     0.5726 C.ar    
   9 C9             0.7912     3.3177     0.6433 C.ar    
  10 C10            0.9365     1.9517     0.3474 C.ar    
  11 N11           -1.0945    -0.9867     0.2128 N.pl3   
  12 C12            1.3633    -2.1837    -0.5428 C.3     
  13 C13            0.9990    -2.4242    -1.9852 C.ar    
  14 C14            1.9399    -2.2147    -2.9832 C.ar    
  15 C15            1.6015    -2.4369    -4.3099 C.ar    
  16 C16            0.3289    -2.8660    -4.6345 C.ar    
  17 C17           -0.6069    -3.0736    -3.6383 C.ar    
  18 C18           -0.2701    -2.8587    -2.3144 C.ar    
  19 O19            3.1908    -1.7922    -2.6615 O.3     
  20 C20            4.1074    -1.5974    -3.7404 C.3     
  21 O21            4.1865     4.5057     0.1480 O.3     
  22 C22            3.9378     5.8764     0.4663 C.3     
  23 C23            5.2384     6.6727     0.3431 C.3     
  24 H24            3.3148    -0.3225    -0.5999 H       
  25 H25            4.2806     1.9644    -0.3636 H       
  26 H26            1.7524     5.1933     0.8011 H       
  27 H27           -0.1742     3.7106     0.9264 H       
  28 H28           -1.9721    -0.6036     0.3673 H       
  29 H29           -0.9949    -1.9464     0.1129 H       
  30 H30            2.3859    -2.5170    -0.3659 H       
  31 H31            0.6831    -2.7408     0.1014 H       
  32 H32            2.3320    -2.2742    -5.0886 H       
  33 H33            0.0649    -3.0392    -5.6673 H       
  34 H34           -1.6014    -3.4084    -3.8941 H       
  35 H35           -1.0015    -3.0262    -1.5376 H       
  36 H36            5.0662    -1.2607    -3.3463 H       
  37 H37            4.2442    -2.5374    -4.2750 H       
  38 H38            3.7108    -0.8457    -4.4229 H       
  39 H39            3.1972     6.2810    -0.2235 H       
  40 H40            3.5621     5.9499     1.4869 H       
  41 H41            5.6141     6.5992    -0.6775 H       
  42 H42            5.0486     7.7182     0.5859 H       
  43 H43            5.9789     6.2681     1.0329 H       
@<TRIPOS>BOND
   1    1    2 ar
   2    1   10 ar
   3    2    3 ar
   4    2   11 1
   5    3    4 ar
   6    3   12 1
   7    4    5 ar
   8    4   24 1
   9    5    6 ar
  10    5   10 ar
  11    6    7 ar
  12    6   25 1
  13    7    8 ar
  14    7   21 1
  15    8    9 ar
  16    8   26 1
  17    9   10 ar
  18    9   27 1
  19   11   28 1
  20   11   29 1
  21   12   13 1
  22   12   30 1
  23   12   31 1
  24   13   14 ar
  25   13   18 ar
  26   14   15 ar
  27   14   19 1
  28   15   16 ar
  29   15   32 1
  30   16   17 ar
  31   16   33 1
  32   17   18 ar
  33   17   34 1
  34   18   35 1
  35   19   20 1
  36   20   36 1
  37   20   37 1
  38   20   38 1
  39   21   22 1
  40   22   23 1
  41   22   39 1
  42   22   40 1
  43   23   41 1
  44   23   42 1
  45   23   43 1

#	End of record

