#	Name: ASD01915397
#	Creating user name:	WinNT
#	Creation time:	15. 06. 2019 20:05

#	Modifying user name:	WinNT
#	Modification time:	15. 06. 2019 20:05

#	Program:	/corina/corina34_cracker 3.40 0067  02.08.2006

@<TRIPOS>MOLECULE
ASD01915397
  44   47    0    0    0
SMALL
NO_CHARGES


@<TRIPOS>ATOM
   1 C1             0.0012     1.3493    -0.0642 C.ar    
   2 C2             0.0385    -0.0429    -0.0913 C.ar    
   3 N3             1.1987    -0.6865    -0.0946 N.ar    
   4 C4             2.3467    -0.0407    -0.0727 C.ar    
   5 C5             2.3834     1.3415    -0.0448 C.ar    
   6 C6             1.1928     2.0537    -0.0408 C.ar    
   7 C7             3.7040     2.0670    -0.0190 C.3     
   8 N8             4.7698     1.1504     0.4118 N.am    
   9 C9             5.7549     1.0255    -0.6778 C.3     
  10 C10            5.5970     2.3251    -1.5060 C.3     
  11 C11            4.0638     2.5529    -1.4388 C.3     
  12 C12            4.8356     0.5280     1.6054 C.2     
  13 O13            4.0195     0.7840     2.4709 O.2     
  14 C14            5.8910    -0.4581     1.8611 C.2     
  15 C15           -1.2296    -0.8124    -0.1161 C.ar    
  16 C16           -1.2018    -2.2050    -0.1432 C.ar    
  17 C17           -2.3859    -2.9163    -0.1657 C.ar    
  18 C18           -3.5977    -2.2474    -0.1614 C.ar    
  19 C19           -3.6300    -0.8647    -0.1349 C.ar    
  20 C20           -2.4531    -0.1447    -0.1065 C.ar    
  21 Cl21          -2.3541    -4.6517    -0.2001 Cl      
  22 C22            1.1966     3.5604    -0.0107 C.3     
  23 F23            6.2882     3.3860    -0.9111 F       
  24 C24            6.1446    -1.0695     3.0453 C.2     
  25 N25            7.1460    -1.9125     3.0104 N.2     
  26 C26            7.7604    -2.0599     1.8808 C.2     
  27 S27            7.0521    -1.0663     0.6834 S.3     
  28 H28           -0.9439     1.8719    -0.0660 H       
  29 H29            3.2717    -0.5982    -0.0762 H       
  30 H30            3.6472     2.9158     0.6625 H       
  31 H31            6.7637     0.9552    -0.2710 H       
  32 H32            5.5315     0.1540    -1.2932 H       
  33 H33            5.9250     2.1751    -2.5346 H       
  34 H34            3.5516     1.9548    -2.1925 H       
  35 H35            3.8254     3.6100    -1.5566 H       
  36 H36           -0.2566    -2.7274    -0.1470 H       
  37 H37           -4.5213    -2.8069    -0.1790 H       
  38 H38           -4.5782    -0.3478    -0.1324 H       
  39 H39           -2.4799     0.9348    -0.0859 H       
  40 H40            1.2063     3.9442    -1.0309 H       
  41 H41            0.3031     3.9158     0.5026 H       
  42 H42            2.0830     3.9111     0.5178 H       
  43 H43            5.5705    -0.8772     3.9396 H       
  44 H44            8.5988    -2.7206     1.7167 H       
@<TRIPOS>BOND
   1    1    2 ar
   2    1    6 ar
   3    1   28 1
   4    2    3 ar
   5    2   15 1
   6    3    4 ar
   7    4    5 ar
   8    4   29 1
   9    5    6 ar
  10    5    7 1
  11    6   22 1
  12    7    8 1
  13    7   11 1
  14    7   30 1
  15    8    9 1
  16    8   12 am
  17    9   10 1
  18    9   31 1
  19    9   32 1
  20   10   11 1
  21   10   23 1
  22   10   33 1
  23   11   34 1
  24   11   35 1
  25   12   13 2
  26   12   14 1
  27   14   24 2
  28   14   27 1
  29   15   16 ar
  30   15   20 ar
  31   16   17 ar
  32   16   36 1
  33   17   18 ar
  34   17   21 1
  35   18   19 ar
  36   18   37 1
  37   19   20 ar
  38   19   38 1
  39   20   39 1
  40   22   40 1
  41   22   41 1
  42   22   42 1
  43   24   25 1
  44   24   43 1
  45   25   26 2
  46   26   27 1
  47   26   44 1

#	End of record

