#	Name: ASD01882013
#	Creating user name:	WinNT
#	Creation time:	15. 06. 2019 19:43

#	Modifying user name:	WinNT
#	Modification time:	15. 06. 2019 19:43

#	Program:	/corina/corina34_cracker 3.40 0067  02.08.2006

@<TRIPOS>MOLECULE
ASD01882013
  60   63    0    0    0
SMALL
NO_CHARGES


@<TRIPOS>ATOM
   1 N1            -0.1522     1.3568    -0.1145 N.am    
   2 C2             0.0602    -0.0820     0.1048 C.3     
   3 C3             0.9745    -0.6136    -1.0041 C.3     
   4 N4             2.2001     0.1948    -1.0535 N.3     
   5 C5             1.9041     1.5905    -1.4031 C.3     
   6 C6             1.0278     2.2125    -0.3106 C.3     
   7 C7            -1.3955     1.8764    -0.1407 C.2     
   8 O8            -2.3595     1.1538     0.0180 O.2     
   9 O9            -1.5695     3.1961    -0.3428 O.3     
  10 C10            3.1764    -0.3856    -1.9851 C.3     
  11 C11            4.3960     0.5329    -2.0833 C.3     
  12 O12            5.0254     0.6275    -0.8038 O.3     
  13 N13            9.5038     3.7204    -0.1860 N.pl3   
  14 N14            9.6827     3.4620     1.1811 N.2     
  15 N15            8.7565     2.6693     1.5917 N.2     
  16 C16            7.9271     2.3527     0.5774 C.ar    
  17 C17            8.3869     3.0158    -0.5736 C.ar    
  18 C18            6.7858     1.5435     0.4911 C.ar    
  19 C19            6.1331     1.4116    -0.7171 C.ar    
  20 C20            6.6007     2.0751    -1.8489 C.ar    
  21 C21            7.7127     2.8662    -1.7802 C.ar    
  22 C22           10.3378     4.5769    -1.0329 C.3     
  23 C23           11.4618     3.7432    -1.6513 C.3     
  24 C24           12.3768     4.4326    -2.6654 C.3     
  25 C25           12.8992     4.0992    -1.2665 C.3     
  26 Br26           6.1438     0.6385     2.0224 Br      
  27 C27           -2.9362     3.6860    -0.3587 C.3     
  28 C28           -3.6016     3.3848     0.9857 C.3     
  29 C29           -2.9336     5.1970    -0.5993 C.3     
  30 C30           -3.7136     2.9925    -1.4793 C.3     
  31 H31            0.5318    -0.2388     1.0748 H       
  32 H32           -0.8968    -0.6027     0.0713 H       
  33 H33            1.2320    -1.6522    -0.7965 H       
  34 H34            0.4586    -0.5509    -1.9622 H       
  35 H35            2.8357     2.1504    -1.4849 H       
  36 H36            1.3752     1.6225    -2.3557 H       
  37 H37            0.7106     3.2088    -0.6186 H       
  38 H38            1.5925     2.2762     0.6196 H       
  39 H39            3.4875    -1.3651    -1.6218 H       
  40 H40            2.7208    -0.4912    -2.9697 H       
  41 H41            5.1019     0.1236    -2.8060 H       
  42 H42            4.0791     1.5245    -2.4065 H       
  43 H43            6.0805     1.9629    -2.7887 H       
  44 H44            8.0675     3.3764    -2.6635 H       
  45 H45            9.7273     5.0087    -1.8259 H       
  46 H46           10.7680     5.3761    -0.4294 H       
  47 H47           11.2305     2.6908    -1.8161 H       
  48 H48           12.7478     3.8337    -3.4971 H       
  49 H49           12.1780     5.4801    -2.8920 H       
  50 H50           13.0441     4.9274    -0.5728 H       
  51 H51           13.6139     3.2810    -1.1779 H       
  52 H52           -3.0478     3.8788     1.7840 H       
  53 H53           -4.6276     3.7526     0.9738 H       
  54 H54           -3.6035     2.3083     1.1571 H       
  55 H55           -2.4596     5.4116    -1.5570 H       
  56 H56           -3.9596     5.5648    -0.6112 H       
  57 H57           -2.3798     5.6910     0.1990 H       
  58 H58           -3.7155     1.9161    -1.3079 H       
  59 H59           -4.7396     3.3603    -1.4912 H       
  60 H60           -3.2396     3.2071    -2.4370 H       
@<TRIPOS>BOND
   1    1    2 1
   2    1    6 1
   3    1    7 am
   4    2    3 1
   5    2   31 1
   6    2   32 1
   7    3    4 1
   8    3   33 1
   9    3   34 1
  10    4    5 1
  11    4   10 1
  12    5    6 1
  13    5   35 1
  14    5   36 1
  15    6   37 1
  16    6   38 1
  17    7    8 2
  18    7    9 1
  19    9   27 1
  20   10   11 1
  21   10   39 1
  22   10   40 1
  23   11   12 1
  24   11   41 1
  25   11   42 1
  26   12   19 1
  27   13   14 1
  28   13   17 1
  29   13   22 1
  30   14   15 2
  31   15   16 1
  32   16   17 ar
  33   16   18 ar
  34   17   21 ar
  35   18   19 ar
  36   18   26 1
  37   19   20 ar
  38   20   21 ar
  39   20   43 1
  40   21   44 1
  41   22   23 1
  42   22   45 1
  43   22   46 1
  44   23   24 1
  45   23   25 1
  46   23   47 1
  47   24   25 1
  48   24   48 1
  49   24   49 1
  50   25   50 1
  51   25   51 1
  52   27   28 1
  53   27   30 1
  54   27   29 1
  55   28   52 1
  56   28   53 1
  57   28   54 1
  58   29   55 1
  59   29   56 1
  60   29   57 1
  61   30   58 1
  62   30   59 1
  63   30   60 1

#	End of record

