#	Name: ASD01680025
#	Creating user name:	WinNT
#	Creation time:	15. 06. 2019 19:22

#	Modifying user name:	WinNT
#	Modification time:	15. 06. 2019 19:22

#	Program:	/corina/corina34_cracker 3.40 0067  02.08.2006

@<TRIPOS>MOLECULE
ASD01680025
 100  104    0    0    0
SMALL
NO_CHARGES


@<TRIPOS>ATOM
   1 N1            -0.0465     0.2278    -2.9855 N.am    
   2 C2             0.1491    -1.2301    -3.0840 C.3     
   3 C3             1.3631    -1.5300    -2.1697 C.3     
   4 C4             2.2572    -0.2872    -2.4214 C.3     
   5 C5             1.2280     0.8492    -2.5968 C.3     
   6 C6            -1.2009     0.8830    -3.2189 C.2     
   7 O7            -2.1710     0.2772    -3.6293 O.2     
   8 O8            -1.2792     2.2087    -2.9974 O.3     
   9 C9            -1.0923    -1.9691    -2.5803 C.3     
  10 N10           -1.3866    -1.5502    -1.2077 N.pl3   
  11 C11           -2.5279    -2.0190    -0.5675 C.ar    
  12 C12           -3.3866    -2.8859    -1.2362 C.ar    
  13 C13           -4.5185    -3.3445    -0.5873 C.ar    
  14 C14           -4.7549    -2.9194     0.7136 C.ar    
  15 C15           -3.8605    -2.0583     1.3165 C.ar    
  16 N16           -2.7854    -1.6409     0.6749 N.ar    
  17 O17            3.1015    -0.0355    -1.2963 O.3     
  18 C18            4.3488     0.5762    -1.6310 C.3     
  19 C19            5.1540     0.7944    -0.3759 C.2     
  20 N20            6.3742     1.3621    -0.4483 N.am    
  21 O21            4.7040     0.4591     0.6992 O.2     
  22 C22            7.1570     1.5742     0.7717 C.3     
  23 C23            8.4925     2.2292     0.4134 C.3     
  24 N24            8.2458     3.4589    -0.3435 N.am    
  25 C25            9.1876     3.9343    -1.1823 C.2     
  26 O26           10.2087     3.3064    -1.3661 O.2     
  27 C27            8.9717     5.2462    -1.8919 C.3     
  28 C28            9.3518     6.3986    -0.9601 C.3     
  29 C29            8.3886     6.4327     0.2282 C.3     
  30 C30            8.7687     7.5851     1.1600 C.3     
  31 C31           10.1975     7.3806     1.6675 C.3     
  32 C32           11.1608     7.3465     0.4793 C.3     
  33 C33           10.7807     6.1941    -0.4526 C.3     
  34 C34            9.8444     5.2965    -3.1475 C.3     
  35 C35            9.3987     4.2049    -4.1225 C.3     
  36 C36           10.2714     4.2552    -5.3782 C.3     
  37 C37           10.1271     5.6247    -6.0451 C.3     
  38 C38           10.5728     6.7163    -5.0701 C.3     
  39 C39            9.7001     6.6659    -3.8144 C.3     
  40 C40            9.2450     2.5593     1.6767 C.2     
  41 O41            9.5445     3.7043     1.9197 O.2     
  42 O42            9.5826     1.5812     2.5318 O.3     
  43 C43           -2.5537     2.8485    -3.2705 C.3     
  44 C44           -2.4519     4.3210    -2.9664 C.ar    
  45 C45           -2.0590     5.2051    -3.9538 C.ar    
  46 C46           -1.9656     6.5558    -3.6748 C.ar    
  47 C47           -2.2656     7.0224    -2.4086 C.ar    
  48 C48           -2.6594     6.1384    -1.4216 C.ar    
  49 C49           -2.7570     4.7883    -1.7017 C.ar    
  50 H50            0.3696    -1.5147    -4.1128 H       
  51 H51            1.0599    -1.5879    -1.1242 H       
  52 H52            1.8690    -2.4445    -2.4793 H       
  53 H53            2.8488    -0.4150    -3.3279 H       
  54 H54            1.5604     1.5331    -3.3778 H       
  55 H55            1.1064     1.3876    -1.6569 H       
  56 H56           -1.9411    -1.7330    -3.2221 H       
  57 H57           -0.9090    -3.0434    -2.6009 H       
  58 H58           -0.7850    -0.9457    -0.7455 H       
  59 H59           -3.1723    -3.1960    -2.2482 H       
  60 H60           -5.2034    -4.0179    -1.0812 H       
  61 H61           -5.6299    -3.2589     1.2479 H       
  62 H62           -4.0405    -1.7252     2.3280 H       
  63 H63            4.9019    -0.0738    -2.3091 H       
  64 H64            4.1649     1.5349    -2.1159 H       
  65 H65            6.7342     1.6303    -1.3082 H       
  66 H66            6.6040     2.2242     1.4498 H       
  67 H67            7.3410     0.6155     1.2566 H       
  68 H68            9.0832     1.5420    -0.1923 H       
  69 H69            7.4047     3.9311    -0.2410 H       
  70 H70            7.9230     5.3382    -2.1744 H       
  71 H71            9.2910     7.3411    -1.5043 H       
  72 H72            7.3707     6.5785    -0.1334 H       
  73 H73            8.4494     5.4903     0.7724 H       
  74 H74            8.7079     8.5276     0.6158 H       
  75 H75            8.0825     7.6094     2.0065 H       
  76 H76           10.4684     8.2016     2.3313 H       
  77 H77           10.2584     6.4381     2.2117 H       
  78 H78           11.1000     8.2889    -0.0649 H       
  79 H79           12.1787     7.2007     0.8408 H       
  80 H80           10.8415     5.2516     0.0916 H       
  81 H81           11.4669     6.1698    -1.2991 H       
  82 H82           10.8866     5.1344    -2.8724 H       
  83 H83            9.5015     3.2293    -3.6474 H       
  84 H84            8.3565     4.3670    -4.3977 H       
  85 H85           11.3136     4.0932    -5.1030 H       
  86 H86            9.9539     3.4776    -6.0728 H       
  87 H87           10.7488     5.6605    -6.9396 H       
  88 H88            9.0849     5.7867    -6.3202 H       
  89 H89           11.6150     6.5542    -4.7949 H       
  90 H90           10.4700     7.6919    -5.5452 H       
  91 H91            8.6579     6.8280    -4.0896 H       
  92 H92           10.0176     7.4436    -3.1198 H       
  93 H93           10.0647     1.8417     3.3286 H       
  94 H94           -2.8114     2.7114    -4.3207 H       
  95 H95           -3.3263     2.4010    -2.6453 H       
  96 H96           -1.8246     4.8406    -4.9430 H       
  97 H97           -1.6579     7.2465    -4.4460 H       
  98 H98           -2.1919     8.0776    -2.1905 H       
  99 H99           -2.8935     6.5030    -0.4323 H       
 100 H100          -3.0682     4.0981    -0.9315 H       
@<TRIPOS>BOND
   1    1    2 1
   2    1    5 1
   3    1    6 am
   4    2    3 1
   5    2    9 1
   6    2   50 1
   7    3    4 1
   8    3   51 1
   9    3   52 1
  10    4    5 1
  11    4   17 1
  12    4   53 1
  13    5   54 1
  14    5   55 1
  15    6    7 2
  16    6    8 1
  17    8   43 1
  18    9   10 1
  19    9   56 1
  20    9   57 1
  21   10   11 1
  22   10   58 1
  23   11   12 ar
  24   11   16 ar
  25   12   13 ar
  26   12   59 1
  27   13   14 ar
  28   13   60 1
  29   14   15 ar
  30   14   61 1
  31   15   16 ar
  32   15   62 1
  33   17   18 1
  34   18   19 1
  35   18   63 1
  36   18   64 1
  37   19   20 am
  38   19   21 2
  39   20   22 1
  40   20   65 1
  41   22   23 1
  42   22   66 1
  43   22   67 1
  44   23   24 1
  45   23   40 1
  46   23   68 1
  47   24   25 am
  48   24   69 1
  49   25   26 2
  50   25   27 1
  51   27   28 1
  52   27   34 1
  53   27   70 1
  54   28   29 1
  55   28   33 1
  56   28   71 1
  57   29   30 1
  58   29   72 1
  59   29   73 1
  60   30   31 1
  61   30   74 1
  62   30   75 1
  63   31   32 1
  64   31   76 1
  65   31   77 1
  66   32   33 1
  67   32   78 1
  68   32   79 1
  69   33   80 1
  70   33   81 1
  71   34   35 1
  72   34   39 1
  73   34   82 1
  74   35   36 1
  75   35   83 1
  76   35   84 1
  77   36   37 1
  78   36   85 1
  79   36   86 1
  80   37   38 1
  81   37   87 1
  82   37   88 1
  83   38   39 1
  84   38   89 1
  85   38   90 1
  86   39   91 1
  87   39   92 1
  88   40   41 2
  89   40   42 1
  90   42   93 1
  91   43   44 1
  92   43   94 1
  93   43   95 1
  94   44   45 ar
  95   44   49 ar
  96   45   46 ar
  97   45   96 1
  98   46   47 ar
  99   46   97 1
 100   47   48 ar
 101   47   98 1
 102   48   49 ar
 103   48   99 1
 104   49  100 1

#	End of record

