#	Name: ASD03091312
#	Creating user name:	WinNT
#	Creation time:	15. 06. 2019 20:30

#	Modifying user name:	WinNT
#	Modification time:	15. 06. 2019 20:30

#	Program:	/corina/corina34_cracker 3.40 0067  02.08.2006

@<TRIPOS>MOLECULE
ASD03091312
  67   71    0    0    0
SMALL
NO_CHARGES


@<TRIPOS>ATOM
   1 N1             0.1618     1.3437     0.0893 N.2     
   2 C2             0.1956     0.0373     0.1349 C.2     
   3 N3             1.3412    -0.6874    -0.0553 N.am    
   4 C4             2.5145    -0.0605    -0.3046 C.2     
   5 C5             2.5001     1.4089    -0.3609 C.ar    
   6 C6             3.6557     2.1450    -0.6117 C.ar    
   7 C7             3.5844     3.5273    -0.6540 C.ar    
   8 C8             2.3678     4.1782    -0.4478 C.ar    
   9 C9             1.2271     3.4702    -0.2010 C.ar    
  10 C10            1.2699     2.0733    -0.1520 C.ar    
  11 O11            3.5429    -0.6892    -0.4753 O.2     
  12 C12           -1.0620    -0.6909     0.4048 C.ar    
  13 C13           -1.1317    -1.6022     1.4602 C.ar    
  14 C14           -3.4182    -2.0550     0.9109 C.ar    
  15 C15           -2.1866    -0.4663    -0.3906 C.ar    
  16 C16           -2.3085    -2.2782     1.7070 C.ar    
  17 C17           -3.3575    -1.1491    -0.1328 C.ar    
  18 C18           -2.3857    -3.2622     2.8457 C.3     
  19 C19            1.2971    -2.1502     0.0119 C.3     
  20 C20            1.1170    -2.7202    -1.3965 C.3     
  21 C21            0.9923    -4.2431    -1.3182 C.3     
  22 C22           -0.1500    -2.1364    -2.0248 C.3     
  23 C23            2.3285    -2.3512    -2.2548 C.3     
  24 O24            0.8240    -4.7755    -2.6336 O.3     
  25 N25            7.2522     5.0228    -2.2795 N.3     
  26 C26            7.2156     4.1992    -1.0614 C.3     
  27 C27            5.9194     3.4074    -0.9869 C.3     
  28 N28            4.7382     4.2749    -0.9045 N.3     
  29 C29            4.5939     5.0713    -2.1311 C.3     
  30 C30            5.2506     6.4330    -1.9603 C.3     
  31 C31            6.7648     6.3779    -1.9848 C.3     
  32 C32            6.6416     4.4486    -3.4593 C.3     
  33 C33            5.1390     4.2796    -3.3057 C.3     
  34 H34            4.5984     1.6426    -0.7712 H       
  35 H35            2.3281     5.2569    -0.4836 H       
  36 H36            0.2927     3.9883    -0.0430 H       
  37 H37           -0.2661    -1.7779     2.0817 H       
  38 H38           -4.3371    -2.5871     1.1082 H       
  39 H39           -2.1405     0.2407    -1.2057 H       
  40 H40           -4.2272    -0.9795    -0.7504 H       
  41 H41           -2.7049    -2.7460     3.7510 H       
  42 H42           -3.1039    -4.0449     2.6014 H       
  43 H43           -1.4042    -3.7076     3.0082 H       
  44 H44            2.2286    -2.5226     0.4382 H       
  45 H45            0.4611    -2.4600     0.6389 H       
  46 H46            1.8949    -4.6591    -0.8706 H       
  47 H47            0.1291    -4.5060    -0.7067 H       
  48 H48           -0.0399    -1.0570    -2.1285 H       
  49 H49           -0.3068    -2.5817    -3.0072 H       
  50 H50           -1.0060    -2.3546    -1.3862 H       
  51 H51            3.2312    -2.7671    -1.8072 H       
  52 H52            2.2002    -2.7573    -3.2582 H       
  53 H53            2.4174    -1.2662    -2.3106 H       
  54 H54            0.7381    -5.7383    -2.6602 H       
  55 H55            8.0585     3.5082    -1.0698 H       
  56 H56            7.2916     4.8466    -0.1878 H       
  57 H57            5.8365     2.7816    -1.8754 H       
  58 H58            5.9480     2.7654    -0.1065 H       
  59 H59            3.5298     5.2285    -2.3077 H       
  60 H60            4.9117     7.0876    -2.7632 H       
  61 H61            4.9317     6.8578    -1.0085 H       
  62 H62            7.1480     6.6905    -1.0134 H       
  63 H63            7.1335     7.0626    -2.7485 H       
  64 H64            6.8389     5.0989    -4.3115 H       
  65 H65            7.0893     3.4733    -3.6500 H       
  66 H66            4.9147     3.2235    -3.1557 H       
  67 H67            4.6492     4.6179    -4.2188 H       
@<TRIPOS>BOND
   1    1    2 2
   2    1   10 1
   3    2    3 1
   4    2   12 1
   5    3    4 am
   6    3   19 1
   7    4    5 1
   8    4   11 2
   9    5    6 ar
  10    5   10 ar
  11    6    7 ar
  12    6   34 1
  13    7    8 ar
  14    7   28 1
  15    8    9 ar
  16    8   35 1
  17    9   10 ar
  18    9   36 1
  19   12   13 ar
  20   12   15 ar
  21   13   16 ar
  22   13   37 1
  23   14   16 ar
  24   14   17 ar
  25   14   38 1
  26   15   17 ar
  27   15   39 1
  28   16   18 1
  29   17   40 1
  30   18   41 1
  31   18   42 1
  32   18   43 1
  33   19   20 1
  34   19   44 1
  35   19   45 1
  36   20   21 1
  37   20   22 1
  38   20   23 1
  39   21   24 1
  40   21   46 1
  41   21   47 1
  42   22   48 1
  43   22   49 1
  44   22   50 1
  45   23   51 1
  46   23   52 1
  47   23   53 1
  48   24   54 1
  49   25   26 1
  50   25   31 1
  51   25   32 1
  52   26   27 1
  53   26   55 1
  54   26   56 1
  55   27   28 1
  56   27   57 1
  57   27   58 1
  58   28   29 1
  59   29   30 1
  60   29   33 1
  61   29   59 1
  62   30   31 1
  63   30   60 1
  64   30   61 1
  65   31   62 1
  66   31   63 1
  67   32   33 1
  68   32   64 1
  69   32   65 1
  70   33   66 1
  71   33   67 1

#	End of record

