#	Name: ASD03431000
#	Creating user name:	WinNT
#	Creation time:	15. 06. 2019 20:41

#	Modifying user name:	WinNT
#	Modification time:	15. 06. 2019 20:41

#	Program:	/corina/corina34_cracker 3.40 0067  02.08.2006

@<TRIPOS>MOLECULE
ASD03431000
  45   50    0    0    0
SMALL
NO_CHARGES


@<TRIPOS>ATOM
   1 N1            -0.0157     1.3095     0.0092 N.ar    
   2 C2             0.0021    -0.0041     0.0020 C.ar    
   3 C3             1.2122    -0.7002    -0.0114 C.ar    
   4 N4             2.3573    -0.0566    -0.0150 N.ar    
   5 C5             2.3664     1.2819    -0.0057 C.ar    
   6 C6             3.5719     1.9975    -0.0014 C.ar    
   7 C7             3.5612     3.3687     0.0022 C.ar    
   8 C8             2.3364     4.0574    -0.0081 C.ar    
   9 C9             1.1529     3.3935    -0.0025 C.ar    
  10 C10            1.1360     1.9878     0.0019 C.ar    
  11 O11            4.6101     4.2396     0.0282 O.3     
  12 C12            2.6751     5.5249    -0.0397 C.3     
  13 C13            4.1639     5.5364    -0.4107 C.3     
  14 N14            1.2060     7.2471    -0.3573 N.am    
  15 C15            1.8444     6.2762    -1.0403 C.2     
  16 C16            2.4190     6.1986     1.2755 C.ar    
  17 C17            2.8746     5.9874     2.5577 C.ar    
  18 C18            2.4424     6.8009     3.5898 C.ar    
  19 C19            1.5521     7.8272     3.3308 C.ar    
  20 C20            1.0931     8.0433     2.0482 C.ar    
  21 C21            1.5223     7.2287     1.0033 C.ar    
  22 O22            1.7641     6.0533    -2.2298 O.2     
  23 C23            0.2870     8.2093    -0.9702 C.3     
  24 C24           -1.1143     7.6558    -0.9388 C.ar    
  25 C25           -1.9626     8.0020     0.0963 C.ar    
  26 C26           -3.2497     7.4877     0.1156 C.ar    
  27 C27           -3.6374     6.6405    -0.9116 C.ar    
  28 C28           -2.7343     6.3392    -1.9131 C.ar    
  29 N29           -1.5189     6.8511    -1.9018 N.ar    
  30 H30           -0.9291    -0.5511     0.0068 H       
  31 H31            1.2068    -1.7802    -0.0184 H       
  32 H32            4.5126     1.4669    -0.0005 H       
  33 H33            0.2242     3.9449    -0.0005 H       
  34 H34            4.6894     6.3273     0.1245 H       
  35 H35            4.2929     5.6453    -1.4875 H       
  36 H36            3.5698     5.1855     2.7579 H       
  37 H37            2.7990     6.6348     4.5956 H       
  38 H38            1.2146     8.4621     4.1366 H       
  39 H39            0.3980     8.8467     1.8537 H       
  40 H40            0.3197     9.1471    -0.4156 H       
  41 H41            0.5840     8.3879    -2.0037 H       
  42 H42           -1.6266     8.6646     0.8802 H       
  43 H43           -3.9342     7.7405     0.9118 H       
  44 H44           -4.6326     6.2212    -0.9284 H       
  45 H45           -3.0285     5.6802    -2.7165 H       
@<TRIPOS>BOND
   1    1    2 ar
   2    1   10 ar
   3    2    3 ar
   4    2   30 1
   5    3    4 ar
   6    3   31 1
   7    4    5 ar
   8    5    6 ar
   9    5   10 ar
  10    6    7 ar
  11    6   32 1
  12    7    8 ar
  13    7   11 1
  14    8    9 ar
  15    8   12 1
  16    9   10 ar
  17    9   33 1
  18   11   13 1
  19   12   13 1
  20   12   15 1
  21   12   16 1
  22   13   34 1
  23   13   35 1
  24   14   15 am
  25   14   21 1
  26   14   23 1
  27   15   22 2
  28   16   17 ar
  29   16   21 ar
  30   17   18 ar
  31   17   36 1
  32   18   19 ar
  33   18   37 1
  34   19   20 ar
  35   19   38 1
  36   20   21 ar
  37   20   39 1
  38   23   24 1
  39   23   40 1
  40   23   41 1
  41   24   25 ar
  42   24   29 ar
  43   25   26 ar
  44   25   42 1
  45   26   27 ar
  46   26   43 1
  47   27   28 ar
  48   27   44 1
  49   28   29 ar
  50   28   45 1

#	End of record

