#	Name: ASD02562042
#	Creating user name:	WinNT
#	Creation time:	15. 06. 2019 20:25

#	Modifying user name:	WinNT
#	Modification time:	15. 06. 2019 20:25

#	Program:	/corina/corina34_cracker 3.40 0067  02.08.2006

@<TRIPOS>MOLECULE
ASD02562042
  43   46    0    0    0
SMALL
NO_CHARGES


@<TRIPOS>ATOM
   1 C1             0.1549     1.3715     1.2130 C.2     
   2 C2             0.1699    -0.0338     1.1607 C.2     
   3 C3             1.2938    -0.6905     0.8106 C.2     
   4 N4             2.4359    -0.0015     0.5016 N.pl3   
   5 C5             2.4514     1.3740     0.5440 C.2     
   6 C6             1.2800     2.0711     0.9089 C.2     
   7 C7             3.6845    -0.4111     0.1236 C.2     
   8 C8             4.4403     0.7280    -0.0578 C.2     
   9 N9             3.6600     1.7922     0.2060 N.2     
  10 N10            4.1119    -1.7285    -0.0455 N.3     
  11 C11            5.8627     0.7724    -0.4705 C.ar    
  12 C12            2.9885    -2.6667     0.0801 C.3     
  13 C13            3.3287    -3.9698    -0.6458 C.3     
  14 C14            2.1586    -4.9469    -0.5149 C.3     
  15 C15            1.9015    -5.2395     0.9647 C.3     
  16 C16            1.5613    -3.9363     1.6905 C.3     
  17 C17            2.7313    -2.9592     1.5597 C.3     
  18 C18            6.5115     1.9991    -0.6178 C.ar    
  19 C19            7.8374     2.0333    -1.0028 C.ar    
  20 C20            8.5213     0.8551    -1.2424 C.ar    
  21 C21            7.8828    -0.3639    -1.0978 C.ar    
  22 C22            6.5602    -0.4117    -0.7078 C.ar    
  23 Cl23           5.6539     3.4785    -0.3184 Cl      
  24 H24           -0.7492     1.8936     1.4898 H       
  25 H25           -0.7238    -0.5899     1.4026 H       
  26 H26            1.2935    -1.7699     0.7738 H       
  27 H27            1.2775     3.1504     0.9465 H       
  28 H28            4.5831    -1.8450    -0.9301 H       
  29 H29            2.0957    -2.2260    -0.3636 H       
  30 H30            3.5119    -3.7614    -1.6999 H       
  31 H31            4.2214    -4.4105    -0.2020 H       
  32 H32            1.2659    -4.5063    -0.9587 H       
  33 H33            2.4010    -5.8753    -1.0321 H       
  34 H34            1.0679    -5.9356     1.0579 H       
  35 H35            2.7942    -5.6801     1.4084 H       
  36 H36            0.6685    -3.4956     1.2468 H       
  37 H37            1.3781    -4.1447     2.7446 H       
  38 H38            3.6240    -3.3998     2.0034 H       
  39 H39            2.4889    -2.0308     2.0768 H       
  40 H40            8.3412     2.9818    -1.1173 H       
  41 H41            9.5578     0.8868    -1.5439 H       
  42 H42            8.4223    -1.2803    -1.2864 H       
  43 H43            6.0634    -1.3640    -0.5951 H       
@<TRIPOS>BOND
   1    1    2 1
   2    1    6 2
   3    1   24 1
   4    2    3 2
   5    2   25 1
   6    3    4 1
   7    3   26 1
   8    4    5 1
   9    4    7 1
  10    5    6 1
  11    5    9 2
  12    6   27 1
  13    7    8 2
  14    7   10 1
  15    8    9 1
  16    8   11 1
  17   10   12 1
  18   10   28 1
  19   11   18 ar
  20   11   22 ar
  21   12   13 1
  22   12   17 1
  23   12   29 1
  24   13   14 1
  25   13   30 1
  26   13   31 1
  27   14   15 1
  28   14   32 1
  29   14   33 1
  30   15   16 1
  31   15   34 1
  32   15   35 1
  33   16   17 1
  34   16   36 1
  35   16   37 1
  36   17   38 1
  37   17   39 1
  38   18   19 ar
  39   18   23 1
  40   19   20 ar
  41   19   40 1
  42   20   21 ar
  43   20   41 1
  44   21   22 ar
  45   21   42 1
  46   22   43 1

#	End of record

