#	Name: ASD03730688
#	Creating user name:	WinNT
#	Creation time:	15. 06. 2019 20:44

#	Modifying user name:	WinNT
#	Modification time:	15. 06. 2019 20:44

#	Program:	/corina/corina34_cracker 3.40 0067  02.08.2006

@<TRIPOS>MOLECULE
ASD03730688
  48   53    0    0    0
SMALL
NO_CHARGES


@<TRIPOS>ATOM
   1 C1             1.5565    -1.2871    -2.4132 C.2     
   2 C2             0.7041    -1.1973    -1.2100 C.ar    
   3 C3             1.2060    -0.6328    -0.0355 C.ar    
   4 C4             0.4045    -0.5516     1.0841 C.ar    
   5 C5            -0.8940    -1.0285     1.0454 C.ar    
   6 C6            -1.3974    -1.5893    -0.1148 C.ar    
   7 C7            -0.6087    -1.6711    -1.2438 C.ar    
   8 O8             2.6629    -0.7856    -2.4126 O.2     
   9 O9             1.1091    -1.9300    -3.5092 O.3     
  10 C10            2.6201    -0.1138     0.0088 C.3     
  11 O11            0.0930    -1.7705     6.5327 O.3     
  12 C12            0.0952    -1.6643     7.9686 C.3     
  13 O13            1.4938    -1.6026     8.3051 O.3     
  14 C14            2.1099    -1.0657     7.2111 C.ar    
  15 C15            1.2485    -1.1701     6.1214 C.ar    
  16 C16            3.3561    -0.4858     7.0546 C.ar    
  17 C17            3.7593    -0.0055     5.8123 C.ar    
  18 C18            2.8933    -0.1229     4.7294 C.ar    
  19 C19            1.6478    -0.6950     4.8835 C.ar    
  20 O20            4.9225     0.6078     5.4504 O.3     
  21 C21            3.6141     0.4520     3.5395 C.3     
  22 C22            5.0694     0.5410     4.0188 C.3     
  23 N23            2.9254     0.3569     1.3621 N.am    
  24 C24            3.4783    -0.4136     2.3201 C.2     
  25 C25            3.0742     1.7926     3.1379 C.ar    
  26 C26            2.9253     2.9938     3.7945 C.ar    
  27 C27            2.3791     4.0807     3.1353 C.ar    
  28 C28            1.9826     3.9575     1.8161 C.ar    
  29 C29            2.1289     2.7561     1.1544 C.ar    
  30 C30            2.6781     1.6569     1.8099 C.ar    
  31 O31            3.8027    -1.5777     2.2171 O.2     
  32 H32            0.7914    -0.1153     1.9931 H       
  33 H33           -1.5172    -0.9628     1.9250 H       
  34 H34           -2.4115    -1.9602    -0.1380 H       
  35 H35           -1.0044    -2.1048    -2.1503 H       
  36 H36            1.7026    -1.9626    -4.2720 H       
  37 H37            3.3093    -0.9138    -0.2616 H       
  38 H38            2.7266     0.7112    -0.6955 H       
  39 H39           -0.4155    -0.7552     8.2861 H       
  40 H40           -0.3686    -2.5422     8.4182 H       
  41 H41            4.0205    -0.4054     7.9022 H       
  42 H42            0.9823    -0.7728     4.0364 H       
  43 H43            5.5485     1.4423     3.6363 H       
  44 H44            5.6279    -0.3487     3.7280 H       
  45 H45            3.2354     3.0876     4.8247 H       
  46 H46            2.2629     5.0232     3.6497 H       
  47 H47            1.5561     4.8059     1.3016 H       
  48 H48            1.8164     2.6676     0.1244 H       
@<TRIPOS>BOND
   1    1    2 1
   2    1    8 2
   3    1    9 1
   4    2    3 ar
   5    2    7 ar
   6    3    4 ar
   7    3   10 1
   8    4    5 ar
   9    4   32 1
  10    5    6 ar
  11    5   33 1
  12    6    7 ar
  13    6   34 1
  14    7   35 1
  15    9   36 1
  16   10   23 1
  17   10   37 1
  18   10   38 1
  19   11   12 1
  20   11   15 1
  21   12   13 1
  22   12   39 1
  23   12   40 1
  24   13   14 1
  25   14   15 ar
  26   14   16 ar
  27   15   19 ar
  28   16   17 ar
  29   16   41 1
  30   17   18 ar
  31   17   20 1
  32   18   19 ar
  33   18   21 1
  34   19   42 1
  35   20   22 1
  36   21   22 1
  37   21   24 1
  38   21   25 1
  39   22   43 1
  40   22   44 1
  41   23   24 am
  42   23   30 1
  43   24   31 2
  44   25   26 ar
  45   25   30 ar
  46   26   27 ar
  47   26   45 1
  48   27   28 ar
  49   27   46 1
  50   28   29 ar
  51   28   47 1
  52   29   30 ar
  53   29   48 1

#	End of record

