#	Name: ASD01912956
#	Creating user name:	WinNT
#	Creation time:	15. 06. 2019 20:00

#	Modifying user name:	WinNT
#	Modification time:	15. 06. 2019 20:00

#	Program:	/corina/corina34_cracker 3.40 0067  02.08.2006

@<TRIPOS>MOLECULE
ASD01912956
  32   32    0    0    0
SMALL
NO_CHARGES


@<TRIPOS>ATOM
   1 C1            -0.0169     1.3962     0.0097 C.ar    
   2 C2             0.0021    -0.0041     0.0020 C.ar    
   3 C3            -1.2581    -0.7581     0.0095 C.2     
   4 C4            -1.2347    -2.2649     0.0012 C.3     
   5 O5            -2.3178    -0.1681     0.0224 O.2     
   6 C6            -2.6475    -2.7893     0.0113 C.2     
   7 C7            -2.8998    -4.2750     0.0057 C.3     
   8 O8            -3.5774    -2.0190     0.0240 O.2     
   9 C9            -4.2684    -4.5623     0.6263 C.3     
  10 C10           -2.8744    -4.7911    -1.4344 C.3     
  11 C11            1.2269    -0.6828    -0.0133 C.ar    
  12 C12            2.4006     0.0259    -0.0207 C.ar    
  13 C13            2.3762     1.4165    -0.0130 C.ar    
  14 C14            1.1625     2.0954     0.0022 C.ar    
  15 O15            3.5404     2.1130    -0.0199 O.3     
  16 C16            3.4434     3.5387    -0.0114 C.3     
  17 H17           -0.9589     1.9244     0.0170 H       
  18 H18           -0.7235    -2.6154    -0.8954 H       
  19 H19           -0.7072    -2.6249     0.8845 H       
  20 H20           -2.1253    -4.7773     0.5853 H       
  21 H21           -5.0429    -4.0600     0.0466 H       
  22 H22           -4.4509    -5.6369     0.6222 H       
  23 H23           -4.2865    -4.1946     1.6523 H       
  24 H24           -1.8994    -4.5865    -1.8766 H       
  25 H25           -3.0569    -5.8658    -1.4385 H       
  26 H26           -3.6489    -4.2889    -2.0141 H       
  27 H27            1.2469    -1.7626    -0.0190 H       
  28 H28            3.3458    -0.4965    -0.0322 H       
  29 H29            1.1490     3.1753     0.0078 H       
  30 H30            4.4440     3.9710    -0.0182 H       
  31 H31            2.8980     3.8711    -0.8946 H       
  32 H32            2.9143     3.8615     0.8852 H       
@<TRIPOS>BOND
   1    1    2 ar
   2    1   14 ar
   3    1   17 1
   4    2    3 1
   5    2   11 ar
   6    3    4 1
   7    3    5 2
   8    4    6 1
   9    4   18 1
  10    4   19 1
  11    6    7 1
  12    6    8 2
  13    7    9 1
  14    7   10 1
  15    7   20 1
  16    9   21 1
  17    9   22 1
  18    9   23 1
  19   10   24 1
  20   10   25 1
  21   10   26 1
  22   11   12 ar
  23   11   27 1
  24   12   13 ar
  25   12   28 1
  26   13   14 ar
  27   13   15 1
  28   14   29 1
  29   15   16 1
  30   16   30 1
  31   16   31 1
  32   16   32 1

#	End of record

