#	Name: ASD07300809
#	Creating user name:	WinNT
#	Creation time:	15. 06. 2019 21:10

#	Modifying user name:	WinNT
#	Modification time:	15. 06. 2019 21:10

#	Program:	/corina/corina34_cracker 3.40 0067  02.08.2006

@<TRIPOS>MOLECULE
ASD07300809
  48   52    0    0    0
SMALL
NO_CHARGES


@<TRIPOS>ATOM
   1 C1            -0.0172     1.4140     0.0098 C.2     
   2 C2             0.0021    -0.0041     0.0020 C.2     
   3 N3             1.1798     2.0888     0.0020 N.pl3   
   4 N4             1.1598    -0.6390    -0.0124 N.2     
   5 C5             2.3139     0.0265    -0.0199 C.2     
   6 C6             2.3470     1.3783    -0.0134 C.2     
   7 N7            -0.9945     2.3042     0.0292 N.2     
   8 C8            -0.4776     3.5304     0.0285 C.2     
   9 C9             0.8864     3.4254     0.0124 C.2     
  10 C10           -2.4705    -2.8374     0.0118 C.ar    
  11 C11           -1.2650    -2.1662     0.0030 C.ar    
  12 C12           -1.2674    -0.7674     0.0105 C.ar    
  13 C13           -2.5017    -0.1094     0.0268 C.ar    
  14 C14           -3.6597    -0.8596     0.0347 C.ar    
  15 N15           -3.6129    -2.1779     0.0271 N.ar    
  16 C16            2.9699     4.5122     0.8481 C.ar    
  17 C17            1.8563     4.5408     0.0093 C.ar    
  18 C18            1.6703     5.6423    -0.8371 C.ar    
  19 C19            2.6034     6.6596    -0.8048 C.ar    
  20 C20            3.6895     6.5592     0.0599 C.ar    
  21 N21            3.8367     5.5048     0.8479 N.ar    
  22 N22            4.6328     7.5801     0.0973 N.3     
  23 C23            5.6935     7.2820     1.0707 C.3     
  24 C24            6.7389     8.3999     1.0365 C.3     
  25 O25            6.0995     9.6519     1.2990 O.3     
  26 C26            5.0615     9.9743     0.3695 C.3     
  27 C27            3.9990     8.8723     0.3970 C.3     
  28 C28           -1.2620     4.8171     0.0468 C.3     
  29 H29            3.2424    -0.5252    -0.0314 H       
  30 H30            3.2949     1.8958    -0.0199 H       
  31 H31           -2.4791    -3.9173     0.0016 H       
  32 H32           -0.3335    -2.7127    -0.0092 H       
  33 H33           -2.5475     0.9696     0.0334 H       
  34 H34           -4.6175    -0.3606     0.0476 H       
  35 H35            3.1210     3.6705     1.5077 H       
  36 H36            0.8182     5.6940    -1.4986 H       
  37 H37            2.4920     7.5233    -1.4436 H       
  38 H38            5.2627     7.2169     2.0698 H       
  39 H39            6.1661     6.3337     0.8149 H       
  40 H40            7.4975     8.2122     1.7964 H       
  41 H41            7.2078     8.4298     0.0529 H       
  42 H42            4.6068    10.9252     0.6471 H       
  43 H43            5.4815    10.0500    -0.6334 H       
  44 H44            3.2347     9.0849    -0.3506 H       
  45 H45            3.5412     8.8327     1.3854 H       
  46 H46           -1.4360     5.1219     1.0787 H       
  47 H47           -0.6989     5.5933    -0.4713 H       
  48 H48           -2.2185     4.6667    -0.4538 H       
@<TRIPOS>BOND
   1    1    2 1
   2    1    3 1
   3    1    7 2
   4    2    4 2
   5    2   12 1
   6    3    6 1
   7    3    9 1
   8    4    5 1
   9    5    6 2
  10    5   29 1
  11    6   30 1
  12    7    8 1
  13    8    9 2
  14    8   28 1
  15    9   17 1
  16   10   11 ar
  17   10   15 ar
  18   10   31 1
  19   11   12 ar
  20   11   32 1
  21   12   13 ar
  22   13   14 ar
  23   13   33 1
  24   14   15 ar
  25   14   34 1
  26   16   17 ar
  27   16   21 ar
  28   16   35 1
  29   17   18 ar
  30   18   19 ar
  31   18   36 1
  32   19   20 ar
  33   19   37 1
  34   20   21 ar
  35   20   22 1
  36   22   23 1
  37   22   27 1
  38   23   24 1
  39   23   38 1
  40   23   39 1
  41   24   25 1
  42   24   40 1
  43   24   41 1
  44   25   26 1
  45   26   27 1
  46   26   42 1
  47   26   43 1
  48   27   44 1
  49   27   45 1
  50   28   46 1
  51   28   47 1
  52   28   48 1

#	End of record

