#	Name: ASD01840462
#	Creating user name:	WinNT
#	Creation time:	15. 06. 2019 19:37

#	Modifying user name:	WinNT
#	Modification time:	15. 06. 2019 19:37

#	Program:	/corina/corina34_cracker 3.40 0067  02.08.2006

@<TRIPOS>MOLECULE
ASD01840462
  39   41    0    0    0
SMALL
NO_CHARGES


@<TRIPOS>ATOM
   1 C1             0.5834     2.1704    -1.2712 C.ar    
   2 C2             0.6463     0.9031    -1.8074 C.ar    
   3 N3             1.6368     0.0908    -1.4806 N.ar    
   4 N4             2.5681     0.4288    -0.6691 N.ar    
   5 C5             1.6018     2.5634    -0.3732 C.ar    
   6 C6             1.7938     3.8148     0.3361 C.2     
   7 C7             2.6090     1.6311    -0.0901 C.ar    
   8 S8             3.7663     2.3195     1.0399 S.3     
   9 C9             2.8966     3.8389     1.1251 C.2     
  10 C10           -0.5349     3.1124    -1.6362 C.3     
  11 C11           -0.4177     0.4409    -2.7693 C.3     
  12 N12            0.9259     4.8919     0.2172 N.pl3   
  13 C13            3.3069     4.9825     1.9385 C.2     
  14 O14            2.5841     5.9584     2.0253 O.2     
  15 N15            4.4853     4.9563     2.5922 N.am    
  16 C16            5.5264     3.9154     2.5052 C.3     
  17 C17            6.8659     4.5839     2.8662 C.3     
  18 C18            6.5066     6.0519     3.1928 C.3     
  19 C19            5.0024     5.9704     3.5399 C.3     
  20 O20            7.2618     6.5208     4.3117 O.3     
  21 C21            7.5323     7.9237     4.2835 C.3     
  22 H22           -1.3186     3.0560    -0.8807 H       
  23 H23           -0.1504     4.1311    -1.6855 H       
  24 H24           -0.9446     2.8314    -2.6064 H       
  25 H25           -0.1196     0.6898    -3.7878 H       
  26 H26           -0.5434    -0.6383    -2.6810 H       
  27 H27           -1.3596     0.9368    -2.5349 H       
  28 H28            0.0240     4.7539    -0.1119 H       
  29 H29            1.2215     5.7824     0.4632 H       
  30 H30            5.3095     3.1135     3.2110 H       
  31 H31            5.5709     3.5187     1.4909 H       
  32 H32            7.3082     4.0997     3.7369 H       
  33 H33            7.5509     4.5411     2.0194 H       
  34 H34            6.6652     6.6905     2.3238 H       
  35 H35            4.5178     6.9328     3.3756 H       
  36 H36            4.8647     5.6401     4.5695 H       
  37 H37            8.1023     8.1659     3.3866 H       
  38 H38            6.5920     8.4750     4.2763 H       
  39 H39            8.1088     8.2003     5.1662 H       
@<TRIPOS>BOND
   1    1    2 ar
   2    1    5 ar
   3    1   10 1
   4    2   11 1
   5    2    3 ar
   6    3    4 ar
   7    4    7 ar
   8    5    7 ar
   9    5    6 1
  10    6    9 2
  11    6   12 1
  12    7    8 1
  13    8    9 1
  14    9   13 1
  15   10   22 1
  16   10   23 1
  17   10   24 1
  18   11   25 1
  19   11   26 1
  20   11   27 1
  21   12   28 1
  22   12   29 1
  23   13   14 2
  24   13   15 am
  25   15   16 1
  26   15   19 1
  27   16   17 1
  28   16   30 1
  29   16   31 1
  30   17   18 1
  31   17   32 1
  32   17   33 1
  33   18   19 1
  34   18   20 1
  35   18   34 1
  36   19   35 1
  37   19   36 1
  38   20   21 1
  39   21   37 1
  40   21   38 1
  41   21   39 1

#	End of record

