#	Name: ASD08170537
#	Creating user name:	WinNT
#	Creation time:	15. 06. 2019 21:17

#	Modifying user name:	WinNT
#	Modification time:	15. 06. 2019 21:17

#	Program:	/corina/corina34_cracker 3.40 0067  02.08.2006

@<TRIPOS>MOLECULE
ASD08170537
  79   80    0    0    0
SMALL
NO_CHARGES


@<TRIPOS>ATOM
   1 C1            -0.0184     1.5028     0.0103 C.3     
   2 C2             0.0021    -0.0041     0.0020 C.2     
   3 N3             0.6044    -0.6754     1.0035 N.am    
   4 C4             0.6232    -2.0660     0.9959 C.2     
   5 S5             1.3442    -3.0614     2.1892 S.3     
   6 C6             0.8328    -4.4851     1.2821 C.2     
   7 C7             1.0833    -5.9208     1.6657 C.3     
   8 C8             2.4103    -6.3858     1.0625 C.3     
   9 C9             4.3017    -8.4770     0.7299 C.3     
  10 C10            4.7029    -9.9228     1.0292 C.3     
  11 C11            6.0238   -10.2245     0.3694 C.2     
  12 S12            6.2513   -10.8654    -1.2582 S.3     
  13 C13            7.9466   -10.8285    -1.0149 C.2     
  14 N14            8.9072   -11.2210    -1.9408 N.am    
  15 C15           10.2159   -11.1439    -1.6279 C.2     
  16 C16           11.2568   -11.5692    -2.6313 C.3     
  17 N17            0.0923    -2.8253     0.0856 N.2     
  18 N18            0.2033    -4.0750     0.2270 N.2     
  19 N19            7.1960   -10.0546     0.8934 N.2     
  20 N20            8.1862   -10.3728     0.1777 N.2     
  21 O21           10.5558   -10.7323    -0.5389 O.2     
  22 O22           -0.5235    -0.6127    -0.9059 O.2     
  23 S23            2.7118    -8.1139     1.5242 S.3     
  24 C24           11.0484   -13.0421    -2.9892 C.3     
  25 C25            1.4170     2.0324    -0.0006 C.3     
  26 N26           -0.7269     1.9881    -1.1766 N.am    
  27 C27           -1.3119     3.2022    -1.1627 C.2     
  28 O28           -1.9631     3.6482    -2.2534 O.3     
  29 O29           -1.2517     3.8942    -0.1657 O.2     
  30 C30           -2.5691     4.9648    -2.1669 C.3     
  31 C31           -1.4862     6.0068    -1.8799 C.3     
  32 C32           -3.2583     5.2971    -3.4919 C.3     
  33 C33           -3.6015     4.9779    -1.0378 C.3     
  34 N34           12.5919   -11.3908    -2.0552 N.am    
  35 C35           13.6559   -11.2113    -2.8629 C.2     
  36 O36           13.5077   -11.1975    -4.0689 O.2     
  37 O37           14.8829   -11.0474    -2.3335 O.3     
  38 C38           15.9822   -10.8592    -3.2633 C.3     
  39 C39           15.7280    -9.6084    -4.1071 C.3     
  40 C40           17.2873   -10.6912    -2.4826 C.3     
  41 C41           16.0896   -12.0796    -4.1798 C.3     
  42 H42           -0.5286     1.8543     0.9071 H       
  43 H43            1.0247    -0.1886     1.7297 H       
  44 H44            1.1288    -6.0041     2.7515 H       
  45 H45            0.2737    -6.5446     1.2870 H       
  46 H46            2.3648    -6.3024    -0.0234 H       
  47 H47            3.2199    -5.7619     1.4411 H       
  48 H48            5.0641    -7.8009     1.1169 H       
  49 H49            4.2089    -8.3414    -0.3476 H       
  50 H50            4.7958   -10.0585     2.1068 H       
  51 H51            3.9406   -10.5990     0.6423 H       
  52 H52            8.6353   -11.5501    -2.8118 H       
  53 H53           11.1648   -10.9602    -3.5306 H       
  54 H54           11.1405   -13.6510    -2.0898 H       
  55 H55           10.0551   -13.1748    -3.4178 H       
  56 H56           11.8013   -13.3497    -3.7149 H       
  57 H57            1.9272     1.6808    -0.8974 H       
  58 H58            1.4022     3.1222     0.0054 H       
  59 H59            1.9442     1.6713     0.8825 H       
  60 H60           -0.7750     1.4356    -1.9724 H       
  61 H61           -0.7507     5.9975    -2.6843 H       
  62 H62           -1.9412     6.9952    -1.8150 H       
  63 H63           -0.9953     5.7701    -0.9360 H       
  64 H64           -4.0298     4.5548    -3.6964 H       
  65 H65           -3.7132     6.2855    -3.4270 H       
  66 H66           -2.5228     5.2878    -4.2963 H       
  67 H67           -3.1106     4.7412    -0.0939 H       
  68 H68           -4.0565     5.9663    -0.9729 H       
  69 H69           -4.3730     4.2355    -1.2423 H       
  70 H70           12.7102   -11.4018    -1.0925 H       
  71 H71           15.6515    -8.7390    -3.4541 H       
  72 H72           16.5532    -9.4672    -4.8050 H       
  73 H73           14.7982    -9.7281    -4.6632 H       
  74 H74           17.4683   -11.5822    -1.8815 H       
  75 H75           18.1125   -10.5499    -3.1806 H       
  76 H76           17.2108    -9.8218    -1.8297 H       
  77 H77           15.1598   -12.1992    -4.7359 H       
  78 H78           16.9148   -11.9383    -4.8777 H       
  79 H79           16.2707   -12.9706    -3.5786 H       
@<TRIPOS>BOND
   1    1    2 1
   2    1   25 1
   3    1   26 1
   4    1   42 1
   5    2    3 am
   6    2   22 2
   7    3    4 1
   8    3   43 1
   9    4    5 1
  10    4   17 2
  11    5    6 1
  12    6    7 1
  13    6   18 2
  14    7    8 1
  15    7   44 1
  16    7   45 1
  17    8   23 1
  18    8   46 1
  19    8   47 1
  20    9   10 1
  21    9   23 1
  22    9   48 1
  23    9   49 1
  24   10   11 1
  25   10   50 1
  26   10   51 1
  27   11   12 1
  28   11   19 2
  29   12   13 1
  30   13   14 1
  31   13   20 2
  32   14   15 am
  33   14   52 1
  34   15   16 1
  35   15   21 2
  36   16   24 1
  37   16   34 1
  38   16   53 1
  39   17   18 1
  40   19   20 1
  41   24   54 1
  42   24   55 1
  43   24   56 1
  44   25   57 1
  45   25   58 1
  46   25   59 1
  47   26   27 am
  48   26   60 1
  49   27   28 1
  50   27   29 2
  51   28   30 1
  52   30   31 1
  53   30   32 1
  54   30   33 1
  55   31   61 1
  56   31   62 1
  57   31   63 1
  58   32   64 1
  59   32   65 1
  60   32   66 1
  61   33   67 1
  62   33   68 1
  63   33   69 1
  64   34   35 am
  65   34   70 1
  66   35   36 2
  67   35   37 1
  68   37   38 1
  69   38   39 1
  70   38   40 1
  71   38   41 1
  72   39   71 1
  73   39   72 1
  74   39   73 1
  75   40   74 1
  76   40   75 1
  77   40   76 1
  78   41   77 1
  79   41   78 1
  80   41   79 1

#	End of record

