#	Name: ASD03430088
#	Creating user name:	WinNT
#	Creation time:	15. 06. 2019 20:40

#	Modifying user name:	WinNT
#	Modification time:	15. 06. 2019 20:40

#	Program:	/corina/corina34_cracker 3.40 0067  02.08.2006

@<TRIPOS>MOLECULE
ASD03430088
  52   57    0    0    0
SMALL
NO_CHARGES


@<TRIPOS>ATOM
   1 C1             0.4839     1.0303    -0.7496 C.ar    
   2 C2             0.4678    -0.3484    -0.6067 C.ar    
   3 C3             1.6447    -1.0410    -0.4167 C.ar    
   4 C4             2.8608    -0.3667    -0.3569 C.ar    
   5 C5             2.8740     1.0163    -0.5064 C.ar    
   6 C6             1.6936     1.7134    -0.6999 C.ar    
   7 O7             3.8935    -1.2291    -0.1343 O.3     
   8 C8             1.9571    -2.5040    -0.2537 C.3     
   9 C9             3.4761    -2.5669    -0.4668 C.3     
  10 C10            0.6878    -4.0831     0.8472 C.ar    
  11 C11            1.5594    -3.0283     1.0937 C.ar    
  12 C12            1.2217    -3.3589    -1.2456 C.2     
  13 N13            0.5112    -4.2523    -0.5285 N.am    
  14 O14            1.2594    -3.2640    -2.4541 O.2     
  15 C15            1.8826    -2.6712     2.3977 C.ar    
  16 C16            1.3302    -3.3791     3.4683 C.ar    
  17 C17            0.4677    -4.4273     3.2217 C.ar    
  18 C18            0.1464    -4.7801     1.9258 C.ar    
  19 C19            2.8079    -1.5465     2.6510 C.2     
  20 O20           -0.6869     1.6978    -0.9429 O.3     
  21 C21           -0.6681     3.1102    -0.7079 C.3     
  22 C22            0.5746     3.6937    -1.3939 C.3     
  23 O23            1.7331     3.0676    -0.8350 O.3     
  24 N24            3.8836    -1.7243     3.4432 N.am    
  25 O25            2.5986    -0.4614     2.1446 O.2     
  26 C26            4.8106    -0.6886     3.6073 C.ar    
  27 C27            4.3796     0.6310     3.6443 C.ar    
  28 C28            6.1621    -0.9795     3.7391 C.ar    
  29 C29            7.0751     0.0439     3.9014 C.ar    
  30 C30            6.6437     1.3594     3.9328 C.ar    
  31 C31            5.2960     1.6514     3.8068 C.ar    
  32 F32            7.5385     2.3591     4.0916 F       
  33 C33           -0.3464    -5.2809    -1.1225 C.3     
  34 H34           -0.4703    -0.8821    -0.6439 H       
  35 H35            3.8121     1.5502    -0.4710 H       
  36 H36            3.7120    -2.7990    -1.5053 H       
  37 H37            3.9317    -3.2931     0.2064 H       
  38 H38            1.5775    -3.1073     4.4838 H       
  39 H39            0.0410    -4.9762     4.0481 H       
  40 H40           -0.5301    -5.6027     1.7467 H       
  41 H41           -1.5664     3.5645    -1.1260 H       
  42 H42           -0.6219     3.3042     0.3637 H       
  43 H43            0.5317     3.4932    -2.4644 H       
  44 H44            0.6182     4.7692    -1.2222 H       
  45 H45            4.0154    -2.5699     3.8997 H       
  46 H46            3.3286     0.8591     3.5458 H       
  47 H47            6.4989    -2.0054     3.7150 H       
  48 H48            8.1262    -0.1819     4.0042 H       
  49 H49            4.9616     2.6780     3.8316 H       
  50 H50           -1.3545    -4.8857    -1.2477 H       
  51 H51            0.0535    -5.5707    -2.0942 H       
  52 H52           -0.3763    -6.1517    -0.4676 H       
@<TRIPOS>BOND
   1    1    2 ar
   2    1    6 ar
   3    1   20 1
   4    2    3 ar
   5    2   34 1
   6    3    4 ar
   7    3    8 1
   8    4    5 ar
   9    4    7 1
  10    5    6 ar
  11    5   35 1
  12    6   23 1
  13    7    9 1
  14    8    9 1
  15    8   11 1
  16    8   12 1
  17    9   36 1
  18    9   37 1
  19   10   11 ar
  20   10   13 1
  21   10   18 ar
  22   11   15 ar
  23   12   13 am
  24   12   14 2
  25   13   33 1
  26   15   16 ar
  27   15   19 1
  28   16   17 ar
  29   16   38 1
  30   17   18 ar
  31   17   39 1
  32   18   40 1
  33   19   24 am
  34   19   25 2
  35   20   21 1
  36   21   22 1
  37   21   41 1
  38   21   42 1
  39   22   23 1
  40   22   43 1
  41   22   44 1
  42   24   26 1
  43   24   45 1
  44   26   27 ar
  45   26   28 ar
  46   27   31 ar
  47   27   46 1
  48   28   29 ar
  49   28   47 1
  50   29   30 ar
  51   29   48 1
  52   30   31 ar
  53   30   32 1
  54   31   49 1
  55   33   50 1
  56   33   51 1
  57   33   52 1

#	End of record

