#	Name: ASD01917886
#	Creating user name:	WinNT
#	Creation time:	15. 06. 2019 20:10

#	Modifying user name:	WinNT
#	Modification time:	15. 06. 2019 20:10

#	Program:	/corina/corina34_cracker 3.40 0067  02.08.2006

@<TRIPOS>MOLECULE
ASD01917886
  43   46    0    0    0
SMALL
NO_CHARGES


@<TRIPOS>ATOM
   1 C1            -0.0170     1.3409     0.0118 C.2     
   2 C2             0.0002    -0.0051     0.0064 C.2     
   3 C3            -1.2651    -0.8492     0.0078 C.3     
   4 C4            -2.4386     0.0073     0.4892 C.3     
   5 N5            -2.4123     1.2988    -0.2140 N.am    
   6 C6            -1.2662     2.1916     0.0320 C.3     
   7 C7            -3.4039     1.6536    -1.0549 C.2     
   8 O8            -4.2923     0.8649    -1.3147 O.2     
   9 S9             1.6410     1.9253    -0.0009 S.3     
  10 C10            2.2159     0.3157    -0.0076 C.2     
  11 N11            1.2273    -0.5077    -0.0019 N.2     
  12 C12            3.6696    -0.0814    -0.0191 C.3     
  13 O13            4.1191    -0.2043    -1.3700 O.3     
  14 C14            5.4175    -0.5589    -1.5583 C.ar    
  15 C15            5.9207    -0.6965    -2.8438 C.ar    
  16 C16            7.2408    -1.0572    -3.0326 C.ar    
  17 C17            8.0603    -1.2809    -1.9417 C.ar    
  18 C18            7.5611    -1.1449    -0.6595 C.ar    
  19 C19            6.2433    -0.7784    -0.4654 C.ar    
  20 C20           -3.4117     2.9983    -1.6600 C.2     
  21 C21           -2.9610     3.1852    -2.9892 C.2     
  22 C22           -2.9795     4.4360    -3.5221 C.2     
  23 C23           -3.4442     5.5137    -2.7450 C.2     
  24 N24           -3.8675     5.3135    -1.4837 N.am    
  25 C25           -3.8636     4.0835    -0.9372 C.2     
  26 O26           -3.4628     6.6375    -3.2184 O.2     
  27 H27           -1.4654    -1.2073    -1.0020 H       
  28 H28           -1.1353    -1.6991     0.6779 H       
  29 H29           -3.3762    -0.5055     0.2745 H       
  30 H30           -2.3512     0.1750     1.5626 H       
  31 H31           -1.3732     2.6721     1.0044 H       
  32 H32           -1.2108     2.9474    -0.7515 H       
  33 H33            4.2584     0.6805     0.4918 H       
  34 H34            3.7894    -1.0366     0.4920 H       
  35 H35            5.2809    -0.5222    -3.6962 H       
  36 H36            7.6329    -1.1648    -4.0331 H       
  37 H37            9.0921    -1.5628    -2.0914 H       
  38 H38            8.2030    -1.3209     0.1909 H       
  39 H39            5.8538    -0.6723     0.5363 H       
  40 H40           -2.6074     2.3468    -3.5710 H       
  41 H41           -2.6400     4.6014    -4.5339 H       
  42 H42           -4.1844     6.0669    -0.9613 H       
  43 H43           -4.2126     3.9455     0.0755 H       
@<TRIPOS>BOND
   1    1    2 2
   2    1    9 1
   3    1    6 1
   4    2    3 1
   5    2   11 1
   6    3    4 1
   7    3   27 1
   8    3   28 1
   9    4    5 1
  10    4   29 1
  11    4   30 1
  12    5    6 1
  13    5    7 am
  14    6   31 1
  15    6   32 1
  16    7    8 2
  17    7   20 1
  18    9   10 1
  19   10   11 2
  20   10   12 1
  21   12   13 1
  22   12   33 1
  23   12   34 1
  24   13   14 1
  25   14   15 ar
  26   14   19 ar
  27   15   16 ar
  28   15   35 1
  29   16   17 ar
  30   16   36 1
  31   17   18 ar
  32   17   37 1
  33   18   19 ar
  34   18   38 1
  35   19   39 1
  36   20   21 1
  37   20   25 2
  38   21   22 2
  39   21   40 1
  40   22   23 1
  41   22   41 1
  42   23   24 am
  43   23   26 2
  44   24   25 1
  45   24   42 1
  46   25   43 1

#	End of record

