#	Name: ASD01884970
#	Creating user name:	WinNT
#	Creation time:	15. 06. 2019 19:49

#	Modifying user name:	WinNT
#	Modification time:	15. 06. 2019 19:49

#	Program:	/corina/corina34_cracker 3.40 0067  02.08.2006

@<TRIPOS>MOLECULE
ASD01884970
  46   49    0    0    0
SMALL
NO_CHARGES


@<TRIPOS>ATOM
   1 C1             0.0269     1.4058     0.1655 C.ar    
   2 C2             0.0799     0.0275     0.1643 C.ar    
   3 C3            -1.0942    -0.7138     0.0284 C.ar    
   4 C4            -2.3179    -0.0582    -0.1059 C.ar    
   5 C5            -2.3642     1.3201    -0.1041 C.ar    
   6 C6            -1.1952     2.0555     0.0366 C.ar    
   7 C7            -1.0412    -2.1943     0.0262 C.2     
   8 C8            -1.6381    -2.9162     1.0441 C.2     
   9 C9            -0.3840    -2.8849    -1.0211 C.2     
  10 C10           -0.3373    -4.2301    -1.0215 C.2     
  11 N11           -0.9196    -4.9511    -0.0185 N.pl3   
  12 C12           -1.5711    -4.3205     1.0137 C.2     
  13 Cl13          -2.4570    -2.1009     2.3397 Cl      
  14 C14           -1.0270    -6.2848     0.2341 C.2     
  15 N15           -1.6970    -6.4220     1.3492 N.2     
  16 N16           -2.0242    -5.2695     1.8184 N.2     
  17 C17           -0.4752    -7.3997    -0.6165 C.3     
  18 Cl18           1.4868     2.3298     0.3351 Cl      
  19 O19           -1.2446     3.4133     0.0381 O.3     
  20 C20           -1.0501     4.0600    -1.1411 C.ar    
  21 C21           -1.1525     5.4418    -1.2110 C.ar    
  22 N22           -0.9650     6.0733    -2.3530 N.ar    
  23 C23           -0.6751     5.4265    -3.4648 C.ar    
  24 C24           -0.5557     4.0491    -3.4742 C.ar    
  25 C25           -0.7395     3.3462    -2.2947 C.ar    
  26 C26           -1.4820     6.2290     0.0311 C.3     
  27 C27           -0.4714     6.1990    -4.7426 C.3     
  28 C28            0.9457    -7.7351    -0.1587 C.3     
  29 F29            0.9210    -8.1388     1.1806 F       
  30 F30            1.4579    -8.7702    -0.9483 F       
  31 F31            1.7573    -6.6032    -0.2897 F       
  32 H32            1.0291    -0.4772     0.2682 H       
  33 H33           -3.2283    -0.6294    -0.2117 H       
  34 H34           -3.3116     1.8279    -0.2084 H       
  35 H35            0.0811    -2.3302    -1.8225 H       
  36 H36            0.1667    -4.7458    -1.8255 H       
  37 H37           -1.1075    -8.2816    -0.5144 H       
  38 H38           -0.4560    -7.0852    -1.6600 H       
  39 H39           -0.3183     3.5276    -4.3897 H       
  40 H40           -0.6520     2.2700    -2.2727 H       
  41 H41           -0.5594     6.5038     0.5425 H       
  42 H42           -2.0272     7.1316    -0.2447 H       
  43 H43           -2.0976     5.6209     0.6940 H       
  44 H44            0.5797     6.4710    -4.8392 H       
  45 H45           -0.7665     5.5819    -5.5912 H       
  46 H46           -1.0801     7.1030    -4.7216 H       
@<TRIPOS>BOND
   1    1    2 ar
   2    1   18 1
   3    1    6 ar
   4    2    3 ar
   5    2   32 1
   6    3    4 ar
   7    3    7 1
   8    4    5 ar
   9    4   33 1
  10    5    6 ar
  11    5   34 1
  12    6   19 1
  13    7    8 2
  14    7    9 1
  15    8   13 1
  16    8   12 1
  17    9   10 2
  18    9   35 1
  19   10   11 1
  20   10   36 1
  21   11   12 1
  22   11   14 1
  23   12   16 2
  24   14   15 2
  25   14   17 1
  26   15   16 1
  27   17   28 1
  28   17   37 1
  29   17   38 1
  30   19   20 1
  31   20   21 ar
  32   20   25 ar
  33   21   22 ar
  34   21   26 1
  35   22   23 ar
  36   23   24 ar
  37   23   27 1
  38   24   25 ar
  39   24   39 1
  40   25   40 1
  41   26   41 1
  42   26   42 1
  43   26   43 1
  44   27   44 1
  45   27   45 1
  46   27   46 1
  47   28   29 1
  48   28   30 1
  49   28   31 1

#	End of record

