#	Name: ASD01813211
#	Creating user name:	WinNT
#	Creation time:	15. 06. 2019 19:30

#	Modifying user name:	WinNT
#	Modification time:	15. 06. 2019 19:30

#	Program:	/corina/corina34_cracker 3.40 0067  02.08.2006

@<TRIPOS>MOLECULE
ASD01813211
  52   55    0    0    0
SMALL
NO_CHARGES


@<TRIPOS>ATOM
   1 C1            -0.6434     1.0088    -0.0095 C.2     
   2 C2            -0.4237    -0.3750     0.0167 C.2     
   3 C3             0.8532    -0.8532    -0.0288 C.2     
   4 C4             1.9266     0.0501    -0.1010 C.2     
   5 N5             1.6831     1.3965    -0.1247 N.am    
   6 C6             0.4027     1.8628    -0.0792 C.2     
   7 C7             3.2398    -0.4388    -0.1477 C.2     
   8 C8             4.2898     0.4302    -0.2176 C.2     
   9 C9             4.0356     1.8140    -0.2423 C.2     
  10 C10            2.7040     2.2746    -0.1936 C.2     
  11 O11            2.4745     3.4721    -0.2150 O.2     
  12 C12            5.1448     2.7676    -0.3166 C.2     
  13 O13            4.8944     4.0929    -0.3399 O.3     
  14 O14            6.2917     2.3644    -0.3572 O.2     
  15 C15            3.4919    -1.9243    -0.1203 C.3     
  16 N16            3.6303    -2.4229    -1.4951 N.3     
  17 C17            4.1090    -3.8111    -1.5057 C.3     
  18 C18            4.3796    -4.2478    -2.9472 C.3     
  19 C19            3.0893    -4.1270    -3.7628 C.3     
  20 C20            2.5858    -2.6825    -3.6956 C.3     
  21 C21            2.3671    -2.2912    -2.2323 C.3     
  22 N22            3.3567    -4.4891    -5.1611 N.3     
  23 C23            2.1347    -4.4155    -5.9652 C.3     
  24 C24            2.4937    -4.3571    -7.4539 C.3     
  25 S25            3.3706    -5.8879    -7.8968 S.3     
  26 C26            4.6675    -5.9597    -6.6233 C.3     
  27 C27            4.0091    -5.7975    -5.2489 C.3     
  28 H28           -1.6517     1.3944     0.0217 H       
  29 H29           -1.2588    -1.0576     0.0727 H       
  30 H30            1.0372    -1.9172    -0.0090 H       
  31 H31            0.2218     2.9274    -0.0985 H       
  32 H32            5.3038     0.0601    -0.2531 H       
  33 H33            5.6587     4.6832    -0.3894 H       
  34 H34            4.4084    -2.1270     0.4338 H       
  35 H35            2.6551    -2.4259     0.3657 H       
  36 H36            5.0292    -3.8824    -0.9258 H       
  37 H37            3.3515    -4.4599    -1.0658 H       
  38 H38            5.1470    -3.6082    -3.3833 H       
  39 H39            4.7200    -5.2833    -2.9560 H       
  40 H40            2.3338    -4.7957    -3.3504 H       
  41 H41            3.3249    -2.0182    -4.1434 H       
  42 H42            1.6445    -2.5996    -4.2390 H       
  43 H43            1.6178    -2.9471    -1.7890 H       
  44 H44            2.0222    -1.2585    -2.1802 H       
  45 H45            1.5221    -5.2967    -5.7747 H       
  46 H46            1.5749    -3.5209    -5.6923 H       
  47 H47            1.5833    -4.2718    -8.0471 H       
  48 H48            3.1384    -3.4984    -7.6417 H       
  49 H49            5.1774    -6.9217    -6.6737 H       
  50 H50            5.3834    -5.1536    -6.7838 H       
  51 H51            4.7692    -5.8761    -4.4717 H       
  52 H52            3.2664    -6.5828    -5.1082 H       
@<TRIPOS>BOND
   1    1    2 1
   2    1    6 2
   3    1   28 1
   4    2    3 2
   5    2   29 1
   6    3    4 1
   7    3   30 1
   8    4    5 1
   9    4    7 2
  10    5    6 1
  11    5   10 am
  12    6   31 1
  13    7    8 1
  14    7   15 1
  15    8    9 2
  16    8   32 1
  17    9   10 1
  18    9   12 1
  19   10   11 2
  20   12   13 1
  21   12   14 2
  22   13   33 1
  23   15   16 1
  24   15   34 1
  25   15   35 1
  26   16   17 1
  27   16   21 1
  28   17   18 1
  29   17   36 1
  30   17   37 1
  31   18   19 1
  32   18   38 1
  33   18   39 1
  34   19   20 1
  35   19   22 1
  36   19   40 1
  37   20   21 1
  38   20   41 1
  39   20   42 1
  40   21   43 1
  41   21   44 1
  42   22   23 1
  43   22   27 1
  44   23   24 1
  45   23   45 1
  46   23   46 1
  47   24   25 1
  48   24   47 1
  49   24   48 1
  50   25   26 1
  51   26   27 1
  52   26   49 1
  53   26   50 1
  54   27   51 1
  55   27   52 1

#	End of record

