#	Name: ASD03092022
#	Creating user name:	WinNT
#	Creation time:	15. 06. 2019 20:31

#	Modifying user name:	WinNT
#	Modification time:	15. 06. 2019 20:31

#	Program:	/corina/corina34_cracker 3.40 0067  02.08.2006

@<TRIPOS>MOLECULE
ASD03092022
  40   42    0    0    0
SMALL
NO_CHARGES


@<TRIPOS>ATOM
   1 N1             0.1406     1.5183     0.0346 N.am    
   2 C2             0.1272     0.1497    -0.0407 C.2     
   3 C3            -1.1776    -0.2424    -0.0884 C.2     
   4 C4            -1.9753     0.9122    -0.0412 C.2     
   5 N5            -1.1888     1.9595     0.0382 N.2     
   6 C6             1.2369     2.2996     0.0995 C.2     
   7 N7             1.1120     3.6409     0.0563 N.am    
   8 C8             2.3037     4.4901     0.1268 C.3     
   9 N9            -3.3722     0.9407    -0.0677 N.pl3   
  10 C10           -4.0498     2.1545     0.0844 C.ar    
  11 C11           -3.5027     3.3247    -0.4252 C.ar    
  12 C12           -4.1749     4.5239    -0.2733 C.ar    
  13 C13           -5.3935     4.5570     0.3876 C.ar    
  14 C14           -5.9391     3.3906     0.8957 C.ar    
  15 C15           -5.2737     2.1902     0.7405 C.ar    
  16 F16           -3.6440     5.6633    -0.7685 F       
  17 C17            1.3099    -0.7377    -0.0662 C.ar    
  18 C18            1.3006    -1.9680     0.6011 C.ar    
  19 C19            2.4257    -2.7643     0.5511 C.ar    
  20 N20            3.4990    -2.3797    -0.1131 N.ar    
  21 C21            3.5498    -1.2284    -0.7556 C.ar    
  22 C22            2.4677    -0.3732    -0.7633 C.ar    
  23 C23            1.8868     5.9606     0.0580 C.3     
  24 F24           -6.0489     5.7290     0.5362 F       
  25 O25            2.3379     1.7947     0.1969 O.2     
  26 H26           -1.5342    -1.2599    -0.1517 H       
  27 H27            0.2332     4.0439    -0.0214 H       
  28 H28            2.8272     4.3044     1.0647 H       
  29 H29            2.9638     4.2600    -0.7095 H       
  30 H30           -3.8718     0.1186    -0.1917 H       
  31 H31           -2.5532     3.2984    -0.9392 H       
  32 H32           -6.8882     3.4186     1.4104 H       
  33 H33           -5.7004     1.2809     1.1374 H       
  34 H34            0.4259    -2.2888     1.1473 H       
  35 H35            2.4283    -3.7153     1.0628 H       
  36 H36            4.4494    -0.9539    -1.2865 H       
  37 H37            2.5163     0.5677    -1.2912 H       
  38 H38            2.7735     6.5924     0.1105 H       
  39 H39            1.3633     6.1463    -0.8799 H       
  40 H40            1.2267     6.1907     0.8943 H       
@<TRIPOS>BOND
   1    1    2 1
   2    1    6 am
   3    1    5 1
   4    2    3 2
   5    2   17 1
   6    3    4 1
   7    3   26 1
   8    4    5 2
   9    4    9 1
  10    6    7 am
  11    6   25 2
  12    7    8 1
  13    7   27 1
  14    8   23 1
  15    8   28 1
  16    8   29 1
  17    9   10 1
  18    9   30 1
  19   10   11 ar
  20   10   15 ar
  21   11   12 ar
  22   11   31 1
  23   12   13 ar
  24   12   16 1
  25   13   14 ar
  26   13   24 1
  27   14   15 ar
  28   14   32 1
  29   15   33 1
  30   17   18 ar
  31   17   22 ar
  32   18   19 ar
  33   18   34 1
  34   19   20 ar
  35   19   35 1
  36   20   21 ar
  37   21   22 ar
  38   21   36 1
  39   22   37 1
  40   23   38 1
  41   23   39 1
  42   23   40 1

#	End of record

