#	Name: ASD06090002
#	Creating user name:	WinNT
#	Creation time:	15. 06. 2019 21:04

#	Modifying user name:	WinNT
#	Modification time:	15. 06. 2019 21:04

#	Program:	/corina/corina34_cracker 3.40 0067  02.08.2006

@<TRIPOS>MOLECULE
ASD06090002
  54   57    0    0    0
SMALL
NO_CHARGES


@<TRIPOS>ATOM
   1 S1            -0.0217     1.7516     0.0117 S.3     
   2 C2             0.0021    -0.0041     0.0020 C.2     
   3 C3             1.2518    -0.4531    -0.0123 C.2     
   4 C4             2.2511     0.5267    -0.0166 C.2     
   5 C5             1.7351     1.8184    -0.0047 C.2     
   6 N6             3.6126     0.3737    -0.0304 N.2     
   7 C7             4.4121     1.3935    -0.0326 C.2     
   8 N8             3.9549     2.6730    -0.0209 N.am    
   9 C9             2.6283     2.9166    -0.0070 C.2     
  10 Br10           1.6556    -2.3004    -0.0255 Br      
  11 O11            2.2065     4.0608     0.0037 O.2     
  12 C12            4.9037     3.7892    -0.0235 C.3     
  13 C13            5.2204     4.1861    -1.4668 C.3     
  14 C14            6.3040     5.2668    -1.4724 C.3     
  15 C15            6.5938     5.6863    -2.9169 C.3     
  16 N16            6.9317     4.4888    -3.6984 N.am    
  17 C17            5.9999     3.3528    -3.6889 C.3     
  18 C18            5.7168     2.9595    -2.2356 C.3     
  19 C19            8.0744     4.4336    -4.4108 C.2     
  20 C20            8.4069     3.1983    -5.2073 C.3     
  21 O21            8.8352     5.3781    -4.4108 O.2     
  22 O22            4.0392     4.6931    -2.0911 O.3     
  23 C23            9.7480     3.3947    -5.9171 C.3     
  24 C24           10.0220     2.2117    -6.8095 C.ar    
  25 C25           10.1816     2.3948    -8.1704 C.ar    
  26 C26           10.4329     1.3097    -8.9890 C.ar    
  27 C27           10.5251     0.0414    -8.4468 C.ar    
  28 C28           10.3663    -0.1416    -7.0858 C.ar    
  29 C29           10.1193     0.9442    -6.2666 C.ar    
  30 C30           10.8627     3.5174    -4.8763 C.3     
  31 H31           -0.8771    -0.6314     0.0074 H       
  32 H32            5.4782     1.2206    -0.0437 H       
  33 H33            4.4659     4.6395     0.4994 H       
  34 H34            5.8220     3.4867     0.4800 H       
  35 H35            5.9589     6.1310    -0.9048 H       
  36 H36            7.2133     4.8725    -1.0187 H       
  37 H37            5.7112     6.1635    -3.3429 H       
  38 H38            7.4323     6.3824    -2.9341 H       
  39 H39            5.0689     3.6398    -4.1777 H       
  40 H40            6.4466     2.5094    -4.2153 H       
  41 H41            6.6316     2.5870    -1.7748 H       
  42 H42            4.9537     2.1815    -2.2113 H       
  43 H43            8.4725     2.3408    -4.5375 H       
  44 H44            7.6264     3.0222    -5.9475 H       
  45 H45            3.3086     4.0605    -2.1228 H       
  46 H46            9.7110     4.3029    -6.5187 H       
  47 H47           10.1096     3.3856    -8.5940 H       
  48 H48           10.5569     1.4526   -10.0523 H       
  49 H49           10.7207    -0.8065    -9.0865 H       
  50 H50           10.4380    -1.1324    -6.6622 H       
  51 H51            9.9954     0.8012    -5.2033 H       
  52 H52           10.8996     2.6092    -4.2747 H       
  53 H53           11.8181     3.6573    -5.3820 H       
  54 H54           10.6645     4.3730    -4.2308 H       
@<TRIPOS>BOND
   1    1    2 1
   2    1    5 1
   3    2    3 2
   4    2   31 1
   5    3    4 1
   6    3   10 1
   7    4    5 2
   8    4    6 1
   9    5    9 1
  10    6    7 2
  11    7    8 1
  12    7   32 1
  13    8    9 am
  14    8   12 1
  15    9   11 2
  16   12   13 1
  17   12   33 1
  18   12   34 1
  19   13   14 1
  20   13   22 1
  21   13   18 1
  22   14   15 1
  23   14   35 1
  24   14   36 1
  25   15   16 1
  26   15   37 1
  27   15   38 1
  28   16   17 1
  29   16   19 am
  30   17   18 1
  31   17   39 1
  32   17   40 1
  33   18   41 1
  34   18   42 1
  35   19   20 1
  36   19   21 2
  37   20   23 1
  38   20   43 1
  39   20   44 1
  40   22   45 1
  41   23   24 1
  42   23   30 1
  43   23   46 1
  44   24   25 ar
  45   24   29 ar
  46   25   26 ar
  47   25   47 1
  48   26   27 ar
  49   26   48 1
  50   27   28 ar
  51   27   49 1
  52   28   29 ar
  53   28   50 1
  54   29   51 1
  55   30   52 1
  56   30   53 1
  57   30   54 1

#	End of record

