#	Name: ASD01915111
#	Creating user name:	WinNT
#	Creation time:	15. 06. 2019 20:04

#	Modifying user name:	WinNT
#	Modification time:	15. 06. 2019 20:04

#	Program:	/corina/corina34_cracker 3.40 0067  02.08.2006

@<TRIPOS>MOLECULE
ASD01915111
  49   51    0    0    0
SMALL
NO_CHARGES


@<TRIPOS>ATOM
   1 C1             0.0263     1.5057    -0.1248 C.2     
   2 C2             0.0676     0.0350    -0.2458 C.ar    
   3 C3             1.2975    -0.6288    -0.2829 C.ar    
   4 C4             1.3364    -1.9893    -0.3947 C.ar    
   5 C5             0.1449    -2.7191    -0.4718 C.ar    
   6 C6            -1.0857    -2.0541    -0.4342 C.ar    
   7 C7            -1.1233    -0.6939    -0.3174 C.ar    
   8 O8             1.0617     2.1395    -0.0575 O.2     
   9 N9            -1.1591     2.1463    -0.0947 N.am    
  10 C10            0.1850    -4.1457    -0.5896 C.1     
  11 C11            0.2179    -5.3152    -0.6862 C.1     
  12 C12            0.2580    -6.7418    -0.8040 C.ar    
  13 C13           -0.9302    -7.4738    -0.8813 C.ar    
  14 C14           -0.8836    -8.8474    -0.9945 C.ar    
  15 C15            0.3355    -9.5012    -1.0314 C.ar    
  16 C16            1.5161    -8.7833    -0.9549 C.ar    
  17 C17            1.4855    -7.4086    -0.8481 C.ar    
  18 C18           -1.2001     3.6058     0.0254 C.3     
  19 N19           -2.7295     5.5492     0.1576 N.3     
  20 C20           -2.6482     4.0865    -0.0888 C.3     
  21 C21           -3.1631     3.9059    -1.5329 C.3     
  22 C22           -4.0535     5.1375    -1.7979 C.3     
  23 C23           -4.0017     5.9585    -0.4915 C.3     
  24 C24           -2.7558     5.8400     1.5973 C.3     
  25 C25           -2.4539     7.3227     1.8237 C.3     
  26 H26            2.2170    -0.0654    -0.2233 H       
  27 H27            2.2866    -2.5019    -0.4241 H       
  28 H28           -2.0057    -2.6167    -0.4937 H       
  29 H29           -2.0731    -0.1809    -0.2842 H       
  30 H30           -1.9851     1.6411    -0.1524 H       
  31 H31           -1.8824    -6.9649    -0.8519 H       
  32 H32           -1.8009    -9.4144    -1.0543 H       
  33 H33            0.3657   -10.5771    -1.1198 H       
  34 H34            2.4638    -9.3004    -0.9839 H       
  35 H35            2.4077    -6.8492    -0.7938 H       
  36 H36           -0.7940     3.9024     0.9925 H       
  37 H37           -0.6051     4.0528    -0.7711 H       
  38 H38           -3.2851     3.5469     0.6122 H       
  39 H39           -2.3278     3.8851    -2.2329 H       
  40 H40           -3.7492     2.9905    -1.6142 H       
  41 H41           -3.6553     5.7211    -2.6278 H       
  42 H42           -5.0766     4.8265    -2.0092 H       
  43 H43           -4.8504     5.7119     0.1464 H       
  44 H44           -3.9891     7.0256    -0.7134 H       
  45 H45           -3.7420     5.6047     1.9975 H       
  46 H46           -2.0041     5.2347     2.1039 H       
  47 H47           -1.4677     7.5580     1.4234 H       
  48 H48           -3.2055     7.9281     1.3170 H       
  49 H49           -2.4733     7.5385     2.8919 H       
@<TRIPOS>BOND
   1    1    2 1
   2    1    8 2
   3    1    9 am
   4    2    3 ar
   5    2    7 ar
   6    3    4 ar
   7    3   26 1
   8    4    5 ar
   9    4   27 1
  10    5    6 ar
  11    5   10 1
  12    6    7 ar
  13    6   28 1
  14    7   29 1
  15    9   18 1
  16    9   30 1
  17   10   11 3
  18   11   12 1
  19   12   13 ar
  20   12   17 ar
  21   13   14 ar
  22   13   31 1
  23   14   15 ar
  24   14   32 1
  25   15   16 ar
  26   15   33 1
  27   16   17 ar
  28   16   34 1
  29   17   35 1
  30   18   20 1
  31   18   36 1
  32   18   37 1
  33   19   20 1
  34   19   23 1
  35   19   24 1
  36   20   21 1
  37   20   38 1
  38   21   22 1
  39   21   39 1
  40   21   40 1
  41   22   23 1
  42   22   41 1
  43   22   42 1
  44   23   43 1
  45   23   44 1
  46   24   25 1
  47   24   45 1
  48   24   46 1
  49   25   47 1
  50   25   48 1
  51   25   49 1

#	End of record

