#	Name: ASD09310005
#	Creating user name:	WinNT
#	Creation time:	15. 06. 2019 21:21

#	Modifying user name:	WinNT
#	Modification time:	15. 06. 2019 21:21

#	Program:	/corina/corina34_cracker 3.40 0067  02.08.2006

@<TRIPOS>MOLECULE
ASD09310005
  37   41    0    0    0
SMALL
NO_CHARGES


@<TRIPOS>ATOM
   1 C1            -0.0184     1.5065     0.0103 C.3     
   2 C2             0.0021    -0.0041     0.0020 C.3     
   3 C3            -1.0303    -0.7329    -0.8523 C.3     
   4 C4            -1.5400     0.1496    -2.0063 C.3     
   5 C5            -2.0999     1.4316    -1.3352 C.3     
   6 C6            -0.7543     2.1807    -1.1350 C.3     
   7 C7            -0.0291     1.8431    -2.4327 C.2     
   8 O8            -0.3591     0.5822    -2.7537 O.3     
   9 O9             0.7053     2.5733    -3.0552 O.2     
  10 C10           -3.0232     2.1843    -2.2582 C.2     
  11 C11           -4.2623     2.4143    -1.9005 C.2     
  12 C12            1.4673     1.9372    -0.0015 C.3     
  13 C13            2.1650     0.8255    -0.8305 C.3     
  14 C14            1.3435    -0.4513    -0.6098 C.3     
  15 O15           -0.3042    -1.8544    -1.4535 O.3     
  16 C16            0.9831    -1.5059    -1.6237 C.2     
  17 O17            1.7303    -1.9646    -2.4551 O.2     
  18 O18            2.6327    -0.2904    -0.0517 O.3     
  19 O19           -0.6064     1.9464     1.2362 O.3     
  20 C20           -2.5212     2.6725    -3.5926 C.3     
  21 C21           -0.0705    -0.5223     1.4397 C.3     
  22 H22           -1.8619    -1.0777    -0.2378 H       
  23 H23           -2.2794    -0.3570    -2.6265 H       
  24 H24           -2.5819     1.2094    -0.3832 H       
  25 H25           -0.8852     3.2512    -0.9766 H       
  26 H26           -4.6221     2.0645    -0.9442 H       
  27 H27           -4.9240     2.9538    -2.5620 H       
  28 H28            1.5815     2.9062    -0.4873 H       
  29 H29            1.8659     1.9664     1.0125 H       
  30 H30            2.6258     1.0919    -1.7818 H       
  31 H31           -0.6589     2.9079     1.3244 H       
  32 H32           -2.6896     1.9042    -4.3473 H       
  33 H33           -3.0563     3.5800    -3.8723 H       
  34 H34           -1.4546     2.8863    -3.5235 H       
  35 H35           -0.9923    -0.1738     1.9055 H       
  36 H36           -0.0558    -1.6122     1.4343 H       
  37 H37            0.7848    -0.1502     2.0037 H       
@<TRIPOS>BOND
   1    1    2 1
   2    1   12 1
   3    1   19 1
   4    1    6 1
   5    2    3 1
   6    2   14 1
   7    2   21 1
   8    3    4 1
   9    3   15 1
  10    3   22 1
  11    4    5 1
  12    4    8 1
  13    4   23 1
  14    5    6 1
  15    5   10 1
  16    5   24 1
  17    6    7 1
  18    6   25 1
  19    7    8 1
  20    7    9 2
  21   10   11 2
  22   10   20 1
  23   11   26 1
  24   11   27 1
  25   12   13 1
  26   12   28 1
  27   12   29 1
  28   13   14 1
  29   13   18 1
  30   13   30 1
  31   14   16 1
  32   14   18 1
  33   15   16 1
  34   16   17 2
  35   19   31 1
  36   20   32 1
  37   20   33 1
  38   20   34 1
  39   21   35 1
  40   21   36 1
  41   21   37 1

#	End of record

