#	Name: ASD01915348
#	Creating user name:	WinNT
#	Creation time:	15. 06. 2019 20:05

#	Modifying user name:	WinNT
#	Modification time:	15. 06. 2019 20:05

#	Program:	/corina/corina34_cracker 3.40 0067  02.08.2006

@<TRIPOS>MOLECULE
ASD01915348
  44   47    0    0    0
SMALL
NO_CHARGES


@<TRIPOS>ATOM
   1 C1            -0.0166     1.3745     0.0096 C.ar    
   2 C2             0.0021    -0.0041     0.0020 C.ar    
   3 C3             1.2220    -0.6831    -0.0133 C.ar    
   4 C4             2.4171     0.0389    -0.0209 C.ar    
   5 C5             2.3868     1.4173    -0.0132 C.ar    
   6 C6             1.1729     2.0864     0.0021 C.ar    
   7 F7             1.1489     3.4371     0.0091 F       
   8 C8             1.2482    -2.1602    -0.0210 C.2     
   9 O9             0.1864    -2.9809    -0.0152 O.3     
  10 N10            0.5612    -4.1344    -0.0250 N.2     
  11 C11            1.8603    -4.1908    -0.0377 C.2     
  12 N12            2.3219    -2.9306    -0.0407 N.2     
  13 C13            2.6963    -5.4446    -0.0517 C.3     
  14 C14            2.3888    -6.2641     1.1884 C.3     
  15 C15            3.2965    -7.4672     1.3684 C.3     
  16 C16            3.0545    -8.5024     0.2684 C.3     
  17 N17            3.8884    -8.1578    -0.8945 N.am    
  18 C18            3.5874    -7.1026    -1.6527 C.2     
  19 C19            2.3859    -6.2432    -1.3200 C.3     
  20 O20            4.2783    -6.8305    -2.6117 O.2     
  21 C21            5.0063    -8.9433    -1.2069 C.ar    
  22 C22            6.2480    -8.6348    -0.6628 C.ar    
  23 C23            7.3491    -9.4122    -0.9726 C.ar    
  24 C24            7.2146   -10.4961    -1.8236 C.ar    
  25 C25            5.9783   -10.8038    -2.3663 C.ar    
  26 C26            4.8744   -10.0337    -2.0553 C.ar    
  27 F27            6.3788    -7.5768     0.1671 F       
  28 F28            8.2912   -11.2544    -2.1252 F       
  29 H29           -0.9597     1.9007     0.0169 H       
  30 H30           -0.9252    -0.5577     0.0083 H       
  31 H31            3.3634    -0.4814    -0.0324 H       
  32 H32            3.3106     1.9767    -0.0187 H       
  33 H33            3.7517    -5.1721    -0.0492 H       
  34 H34            2.4856    -5.6212     2.0632 H       
  35 H35            1.3576    -6.6122     1.1286 H       
  36 H36            4.3358    -7.1408     1.3310 H       
  37 H37            3.0995    -7.9227     2.3389 H       
  38 H38            3.3261    -9.4933     0.6324 H       
  39 H39            2.0032    -8.4914    -0.0193 H       
  40 H40            1.5171    -6.8787    -1.1488 H       
  41 H41            2.1857    -5.5587    -2.1444 H       
  42 H42            8.3143    -9.1735    -0.5510 H       
  43 H43            5.8762   -11.6496    -3.0301 H       
  44 H44            3.9107   -10.2750    -2.4790 H       
@<TRIPOS>BOND
   1    1    2 ar
   2    1    6 ar
   3    1   29 1
   4    2    3 ar
   5    2   30 1
   6    3    4 ar
   7    3    8 1
   8    4    5 ar
   9    4   31 1
  10    5    6 ar
  11    5   32 1
  12    6    7 1
  13    8    9 1
  14    8   12 2
  15    9   10 1
  16   10   11 2
  17   11   12 1
  18   11   13 1
  19   13   14 1
  20   13   19 1
  21   13   33 1
  22   14   15 1
  23   14   34 1
  24   14   35 1
  25   15   16 1
  26   15   36 1
  27   15   37 1
  28   16   17 1
  29   16   38 1
  30   16   39 1
  31   17   18 am
  32   17   21 1
  33   18   19 1
  34   18   20 2
  35   19   40 1
  36   19   41 1
  37   21   22 ar
  38   21   26 ar
  39   22   23 ar
  40   22   27 1
  41   23   24 ar
  42   23   42 1
  43   24   25 ar
  44   24   28 1
  45   25   26 ar
  46   25   43 1
  47   26   44 1

#	End of record

