#	Name: ASD04660043
#	Creating user name:	WinNT
#	Creation time:	15. 06. 2019 20:52

#	Modifying user name:	WinNT
#	Modification time:	15. 06. 2019 20:52

#	Program:	/corina/corina34_cracker 3.40 0067  02.08.2006

@<TRIPOS>MOLECULE
ASD04660043
  38   41    0    0    0
SMALL
NO_CHARGES


@<TRIPOS>ATOM
   1 C1            -0.0162     1.3412     0.0094 C.2     
   2 N2             0.0021    -0.0041     0.0020 N.am    
   3 C3            -1.1658    -0.7170     0.0098 C.2     
   4 C4            -2.3477    -0.0642     0.0250 C.2     
   5 C5            -2.3525     1.3516     0.0327 C.2     
   6 N6            -1.1799     2.0172     0.0298 N.am    
   7 O7             1.0334     1.9549     0.0027 O.2     
   8 O8            -3.4059     1.9624     0.0464 O.2     
   9 S9            -3.8636    -0.9622     0.0347 S.o2    
  10 O10           -4.7215    -0.3112    -0.8923 O.2     
  11 O11           -3.5163    -2.3368    -0.0607 O.2     
  12 N12           -4.5465    -0.7550     1.5290 N.am    
  13 C13           -4.9682     0.5136     1.9345 C.ar    
  14 C14           -5.6905     1.3180     1.0612 C.ar    
  15 C15           -6.1098     2.5741     1.4580 C.ar    
  16 C16           -5.8140     3.0375     2.7237 C.ar    
  17 C17           -5.0890     2.2373     3.6083 C.ar    
  18 C18           -4.6708     0.9682     3.2105 C.ar    
  19 C19           -4.7707     2.7317     4.9653 C.2     
  20 N20           -5.1158     3.8851     5.4286 N.2     
  21 C21           -4.7519     4.1920     6.6841 C.ar    
  22 C22           -4.0281     3.1697     7.3115 C.ar    
  23 S23           -3.8747     1.8280     6.1782 S.3     
  24 C24           -5.0001     5.3732     7.4202 C.ar    
  25 C25           -4.5233     5.4641     8.7086 C.ar    
  26 C26           -3.8152     4.4048     9.2549 C.ar    
  27 N27           -3.5915     3.3122     8.5592 N.ar    
  28 H28            0.8511    -0.4730    -0.0093 H       
  29 H29           -1.1425    -1.7967     0.0034 H       
  30 H30           -1.1750     2.9872     0.0353 H       
  31 H31           -4.6538    -1.5146     2.1227 H       
  32 H32           -5.9247     0.9608     0.0693 H       
  33 H33           -6.6706     3.1950     0.7750 H       
  34 H34           -6.1431     4.0196     3.0297 H       
  35 H35           -4.1097     0.3447     3.8908 H       
  36 H36           -5.5532     6.1895     6.9797 H       
  37 H37           -4.6999     6.3564     9.2908 H       
  38 H38           -3.4422     4.4784    10.2658 H       
@<TRIPOS>BOND
   1    1    2 am
   2    1    7 2
   3    1    6 am
   4    2    3 1
   5    2   28 1
   6    3    4 2
   7    3   29 1
   8    4    5 1
   9    4    9 1
  10    5    6 am
  11    5    8 2
  12    6   30 1
  13    9   10 2
  14    9   11 2
  15    9   12 am
  16   12   13 1
  17   12   31 1
  18   13   14 ar
  19   13   18 ar
  20   14   15 ar
  21   14   32 1
  22   15   16 ar
  23   15   33 1
  24   16   17 ar
  25   16   34 1
  26   17   18 ar
  27   17   19 1
  28   18   35 1
  29   19   20 2
  30   19   23 1
  31   20   21 1
  32   21   22 ar
  33   21   24 ar
  34   22   23 1
  35   22   27 ar
  36   24   25 ar
  37   24   36 1
  38   25   26 ar
  39   25   37 1
  40   26   27 ar
  41   26   38 1

#	End of record

