#	Name: ASD03180074
#	Creating user name:	WinNT
#	Creation time:	15. 06. 2019 20:33

#	Modifying user name:	WinNT
#	Modification time:	15. 06. 2019 20:33

#	Program:	/corina/corina34_cracker 3.40 0067  02.08.2006

@<TRIPOS>MOLECULE
ASD03180074
  47   50    0    0    0
SMALL
NO_CHARGES


@<TRIPOS>ATOM
   1 C1            -0.2096     0.9893     0.3348 C.ar    
   2 C2            -0.0628    -0.3820     0.2357 C.ar    
   3 C3             1.1935    -0.9373     0.0778 C.ar    
   4 C4             2.3110    -0.1183     0.0180 C.ar    
   5 C5             2.1629     1.2651     0.1176 C.ar    
   6 C6             0.8989     1.8133     0.2763 C.ar    
   7 N7             3.5838    -0.6783    -0.1413 N.3     
   8 C8             4.1620    -0.3099    -1.4399 C.3     
   9 C9             5.6044    -0.8153    -1.5193 C.3     
  10 C10            5.6171    -2.3367    -1.3471 C.3     
  11 C11            4.9659    -2.6964    -0.0088 C.3     
  12 C12            3.5421    -2.1365     0.0269 C.3     
  13 N13            3.2873     2.0979     0.0585 N.pl3   
  14 C14            3.1974     3.3414    -0.5464 C.2     
  15 S15            1.7926     3.9494    -1.4165 S.3     
  16 C16            2.6432     5.4573    -1.7436 C.2     
  17 C17            3.8679     5.3800    -1.1912 C.2     
  18 N18            4.1334     4.2398    -0.5543 N.2     
  19 C19            4.8480     6.4843    -1.2800 C.2     
  20 C20            6.1760     8.5247    -1.6483 C.2     
  21 N21            6.7686     7.5940    -0.9789 N.2     
  22 C22            6.0944     6.4856    -0.7606 C.2     
  23 S23            4.6002     8.0299    -2.0890 S.3     
  24 C24            6.6638     5.3182     0.0037 C.3     
  25 C25            6.7872     9.8580    -1.9941 C.3     
  26 H26           -1.1936     1.4182     0.4539 H       
  27 H27           -0.9320    -1.0213     0.2820 H       
  28 H28            1.3046    -2.0088     0.0014 H       
  29 H29            0.7805     2.8840     0.3537 H       
  30 H30            3.5747    -0.7605    -2.2399 H       
  31 H31            4.1508     0.7747    -1.5479 H       
  32 H32            6.0281    -0.5553    -2.4894 H       
  33 H33            6.1956    -0.3545    -0.7280 H       
  34 H34            5.0585    -2.8001    -2.1602 H       
  35 H35            6.6461    -2.6961    -1.3597 H       
  36 H36            4.9335    -3.7804     0.1004 H       
  37 H37            5.5470    -2.2652     0.8063 H       
  38 H38            3.0805    -2.3786     0.9842 H       
  39 H39            2.9576    -2.5785    -0.7800 H       
  40 H40            4.1290     1.8043     0.4409 H       
  41 H41            2.2495     6.2991    -2.2938 H       
  42 H42            6.4358     5.4318     1.0635 H       
  43 H43            6.2229     4.3923    -0.3656 H       
  44 H44            7.7446     5.2862    -0.1341 H       
  45 H45            7.3015     9.7844    -2.9523 H       
  46 H46            6.0023    10.6114    -2.0600 H       
  47 H47            7.5000    10.1427    -1.2201 H       
@<TRIPOS>BOND
   1    1    2 ar
   2    1    6 ar
   3    1   26 1
   4    2    3 ar
   5    2   27 1
   6    3    4 ar
   7    3   28 1
   8    4    5 ar
   9    4    7 1
  10    5    6 ar
  11    5   13 1
  12    6   29 1
  13    7    8 1
  14    7   12 1
  15    8    9 1
  16    8   30 1
  17    8   31 1
  18    9   10 1
  19    9   32 1
  20    9   33 1
  21   10   11 1
  22   10   34 1
  23   10   35 1
  24   11   12 1
  25   11   36 1
  26   11   37 1
  27   12   38 1
  28   12   39 1
  29   13   14 1
  30   13   40 1
  31   14   15 1
  32   14   18 2
  33   15   16 1
  34   16   17 2
  35   16   41 1
  36   17   18 1
  37   17   19 1
  38   19   23 1
  39   19   22 2
  40   20   21 2
  41   20   23 1
  42   20   25 1
  43   21   22 1
  44   22   24 1
  45   24   42 1
  46   24   43 1
  47   24   44 1
  48   25   45 1
  49   25   46 1
  50   25   47 1

#	End of record

