#	Name: ASD05730070
#	Creating user name:	WinNT
#	Creation time:	15. 06. 2019 21:02

#	Modifying user name:	WinNT
#	Modification time:	15. 06. 2019 21:02

#	Program:	/corina/corina34_cracker 3.40 0067  02.08.2006

@<TRIPOS>MOLECULE
ASD05730070
  78   83    0    0    0
SMALL
NO_CHARGES


@<TRIPOS>ATOM
   1 N1            -0.0121     1.3947     0.0611 N.pl3   
   2 C2             0.0057    -0.0044     0.0405 C.ar    
   3 C3            -1.0323    -0.7033    -0.5618 C.ar    
   4 C4            -1.0148    -2.0837    -0.5821 C.ar    
   5 C5             0.0409    -2.7733    -0.0002 C.ar    
   6 C6             1.0786    -2.0746     0.6025 C.ar    
   7 C7             1.0642    -0.6940     0.6174 C.ar    
   8 N8             0.0586    -4.1738    -0.0208 N.pl3   
   9 C9             1.2585    -4.8475    -0.1401 C.ar    
  10 N10            1.2606    -6.1684    -0.0441 N.ar    
  11 C11            2.3947    -6.8511    -0.1535 C.ar    
  12 C12            3.5949    -6.1410    -0.3737 C.ar    
  13 C13            3.5397    -4.7423    -0.4679 C.ar    
  14 N14            2.3674    -4.1472    -0.3522 N.ar    
  15 N15            2.4063    -8.2195    -0.0550 N.am    
  16 C16            3.5594    -8.9067    -0.1659 C.2     
  17 C17            4.8220    -8.2009    -0.3945 C.2     
  18 C18            4.8201    -6.8354    -0.4956 C.2     
  19 C19            1.1517    -8.9406     0.1737 C.3     
  20 C20            0.5248    -9.2906    -1.1513 C.2     
  21 O21            3.5521   -10.1214    -0.0751 O.2     
  22 C22            6.0899    -8.9576    -0.5165 C.ar    
  23 C23            2.2282     2.3078    -0.3032 C.3     
  24 C24            1.0829     2.1319     0.6965 C.3     
  25 N25            3.3175     3.0649     0.3266 N.3     
  26 C26            6.6846    -9.1327    -1.7682 C.ar    
  27 C27            7.8675    -9.8394    -1.8741 C.ar    
  28 C28            8.4610   -10.3723    -0.7439 C.ar    
  29 C29            7.8758   -10.2016     0.4979 C.ar    
  30 C30            6.6975    -9.4930     0.6182 C.ar    
  31 F31            6.1048    -8.6131    -2.8723 F       
  32 S32            9.9685   -11.2731    -0.8867 S.o     
  33 O33            9.9477   -11.7193    -2.2357 O.2     
  34 C34           11.2326    -9.9862    -0.6950 C.3     
  35 C35           12.6182   -10.5948    -0.9200 C.3     
  36 C36           10.9903    -8.8766    -1.7201 C.3     
  37 N37            0.7438   -10.3799    -1.8072 N.2     
  38 C38            0.1113   -10.5285    -2.9536 C.2     
  39 C39           -0.6858    -9.5077    -3.2832 C.2     
  40 S40           -0.5854    -8.3050    -1.9994 S.3     
  41 C41            2.8731     4.4089     0.7175 C.3     
  42 C42            1.7471     4.2957     1.7477 C.3     
  43 C43            0.5824     3.5095     1.1394 C.3     
  44 C44            4.4896     3.1341    -0.5562 C.3     
  45 H45           -0.7474     1.8765    -0.3488 H       
  46 H46           -1.8535    -0.1670    -1.0141 H       
  47 H47           -1.8222    -2.6272    -1.0502 H       
  48 H48            1.8992    -2.6109     1.0557 H       
  49 H49            1.8714    -0.1506     1.0858 H       
  50 H50           -0.7717    -4.6704     0.0487 H       
  51 H51            4.4369    -4.1651    -0.6358 H       
  52 H52            5.7410    -6.2970    -0.6645 H       
  53 H53            1.3544    -9.8543     0.7324 H       
  54 H54            0.4690    -8.3102     0.7435 H       
  55 H55            2.5964     1.3287    -0.6097 H       
  56 H56            1.8672     2.8498    -1.1773 H       
  57 H57            1.4395     1.5773     1.5645 H       
  58 H58            8.3292    -9.9760    -2.8408 H       
  59 H59            8.3443   -10.6206     1.3761 H       
  60 H60            6.2424    -9.3609     1.5886 H       
  61 H61           11.1776    -9.5699     0.3109 H       
  62 H62           12.6732   -11.0111    -1.9258 H       
  63 H63           13.3777    -9.8215    -0.8047 H       
  64 H64           12.7908   -11.3853    -0.1896 H       
  65 H65           10.0032    -8.4431    -1.5599 H       
  66 H66           11.7498    -8.1034    -1.6049 H       
  67 H67           11.0453    -9.2930    -2.7260 H       
  68 H68            0.2277   -11.4034    -3.5761 H       
  69 H69           -1.2881    -9.4346    -4.1767 H       
  70 H70            3.7096     4.9558     1.1524 H       
  71 H71            2.5091     4.9410    -0.1614 H       
  72 H72            2.1143     3.7758     2.6326 H       
  73 H73            1.4069     5.2931     2.0260 H       
  74 H74            0.1898     4.0488     0.2774 H       
  75 H75           -0.2043     3.3892     1.8842 H       
  76 H76            4.2140     3.6278    -1.4881 H       
  77 H77            5.2812     3.7002    -0.0654 H       
  78 H78            4.8432     2.1255    -0.7703 H       
@<TRIPOS>BOND
   1    1    2 1
   2    1   24 1
   3    1   45 1
   4    2    3 ar
   5    2    7 ar
   6    3    4 ar
   7    3   46 1
   8    4    5 ar
   9    4   47 1
  10    5    6 ar
  11    5    8 1
  12    6    7 ar
  13    6   48 1
  14    7   49 1
  15    8    9 1
  16    8   50 1
  17    9   10 ar
  18    9   14 ar
  19   10   11 ar
  20   11   12 ar
  21   11   15 1
  22   12   13 ar
  23   12   18 1
  24   13   14 ar
  25   13   51 1
  26   15   16 am
  27   15   19 1
  28   16   17 1
  29   16   21 2
  30   17   18 2
  31   17   22 1
  32   18   52 1
  33   19   20 1
  34   19   53 1
  35   19   54 1
  36   20   37 2
  37   20   40 1
  38   22   26 ar
  39   22   30 ar
  40   23   24 1
  41   23   25 1
  42   23   55 1
  43   23   56 1
  44   24   43 1
  45   24   57 1
  46   25   41 1
  47   25   44 1
  48   26   27 ar
  49   26   31 1
  50   27   28 ar
  51   27   58 1
  52   28   29 ar
  53   28   32 1
  54   29   30 ar
  55   29   59 1
  56   30   60 1
  57   32   33 2
  58   32   34 1
  59   34   35 1
  60   34   36 1
  61   34   61 1
  62   35   62 1
  63   35   63 1
  64   35   64 1
  65   36   65 1
  66   36   66 1
  67   36   67 1
  68   37   38 1
  69   38   39 2
  70   38   68 1
  71   39   40 1
  72   39   69 1
  73   41   42 1
  74   41   70 1
  75   41   71 1
  76   42   43 1
  77   42   72 1
  78   42   73 1
  79   43   74 1
  80   43   75 1
  81   44   76 1
  82   44   77 1
  83   44   78 1

#	End of record

