#	Name: ASD06170413
#	Creating user name:	WinNT
#	Creation time:	15. 06. 2019 21:05

#	Modifying user name:	WinNT
#	Modification time:	15. 06. 2019 21:05

#	Program:	/corina/corina34_cracker 3.40 0067  02.08.2006

@<TRIPOS>MOLECULE
ASD06170413
  33   35    0    0    0
SMALL
NO_CHARGES


@<TRIPOS>ATOM
   1 C1            -0.0179     1.4674     0.0101 C.ar    
   2 C2             0.0021    -0.0041     0.0020 C.2     
   3 C3            -1.2926    -0.7753     0.0102 C.3     
   4 C4            -0.9927    -2.2755    -0.0007 C.3     
   5 C5            -0.2124    -2.6695     1.2354 C.2     
   6 C6            -2.2728    -3.0722     0.1035 C.ar    
   7 C7            -2.1785    -3.8119     1.2754 C.ar    
   8 O8             0.8846    -2.2627     1.5550 O.2     
   9 O9             1.0602    -0.5960    -0.0113 O.2     
  10 C10           -3.3881    -3.1614    -0.6987 C.ar    
  11 C11           -4.4318    -3.9962    -0.3394 C.ar    
  12 C12           -4.3498    -4.7378     0.8251 C.ar    
  13 C13           -3.2337    -4.6501     1.6308 C.ar    
  14 N14           -0.9640    -3.5540     1.9123 N.am    
  15 O15           -0.2725    -2.6323    -1.1822 O.3     
  16 C16            1.1815     2.1867     0.0025 C.ar    
  17 C17            1.1544     3.5653     0.0102 C.ar    
  18 C18           -0.0554     4.2372     0.0259 C.ar    
  19 C19           -1.2467     3.5326     0.0339 C.ar    
  20 C20           -1.2364     2.1538     0.0196 C.ar    
  21 H21           -1.8592    -0.5245     0.9070 H       
  22 H22           -1.8762    -0.5150    -0.8728 H       
  23 H23           -3.4486    -2.5805    -1.6071 H       
  24 H24           -5.3082    -4.0680    -0.9665 H       
  25 H25           -5.1646    -5.3889     1.1055 H       
  26 H26           -3.1771    -5.2324     2.5386 H       
  27 H27           -0.6933    -3.9662     2.7476 H       
  28 H28            0.5720    -2.1719    -1.2821 H       
  29 H29            2.1264     1.6638    -0.0090 H       
  30 H30            2.0798     4.1222     0.0044 H       
  31 H31           -0.0701     5.3171     0.0322 H       
  32 H32           -2.1867     4.0641     0.0465 H       
  33 H33           -2.1667     1.6053     0.0259 H       
@<TRIPOS>BOND
   1    1    2 1
   2    1   16 ar
   3    1   20 ar
   4    2    3 1
   5    2    9 2
   6    3    4 1
   7    3   21 1
   8    3   22 1
   9    4    5 1
  10    4   15 1
  11    4    6 1
  12    5    8 2
  13    5   14 am
  14    6    7 ar
  15    6   10 ar
  16    7   14 1
  17    7   13 ar
  18   10   11 ar
  19   10   23 1
  20   11   12 ar
  21   11   24 1
  22   12   13 ar
  23   12   25 1
  24   13   26 1
  25   14   27 1
  26   15   28 1
  27   16   17 ar
  28   16   29 1
  29   17   18 ar
  30   17   30 1
  31   18   19 ar
  32   18   31 1
  33   19   20 ar
  34   19   32 1
  35   20   33 1

#	End of record

