#	Name: ASD04570033
#	Creating user name:	WinNT
#	Creation time:	15. 06. 2019 20:49

#	Modifying user name:	WinNT
#	Modification time:	15. 06. 2019 20:49

#	Program:	/corina/corina34_cracker 3.40 0067  02.08.2006

@<TRIPOS>MOLECULE
ASD04570033
 338  338    0    0    0
SMALL
NO_CHARGES


@<TRIPOS>ATOM
   1 C1            -0.0187     1.5258     0.0104 C.3     
   2 C2             0.0021    -0.0041     0.0020 C.3     
   3 C3            -1.4333    -0.5336     0.0129 C.3     
   4 C4            -1.4126    -2.0635     0.0045 C.3     
   5 C5            -2.8479    -2.5931     0.0153 C.3     
   6 C6            -2.8272    -4.1229     0.0069 C.3     
   7 C7            -4.2626    -4.6525     0.0178 C.3     
   8 C8            -4.2418    -6.1823     0.0094 C.3     
   9 C9            -5.6772    -6.7119     0.0202 C.3     
  10 C10           -5.6565    -8.2417     0.0118 C.3     
  11 C11           -7.0918    -8.7713     0.0227 C.3     
  12 C12           -7.0711   -10.3012     0.0143 C.3     
  13 C13           -8.5065   -10.8307     0.0251 C.3     
  14 C14           -8.4857   -12.3606     0.0167 C.3     
  15 C15           -9.8995   -12.8822     0.0274 C.2     
  16 N16          -10.1278   -14.2105     0.0224 N.am    
  17 O17          -10.8319   -12.1067     0.0405 O.2     
  18 C18          -11.5022   -14.7176     0.0328 C.3     
  19 C19          -11.5336   -16.0963    -0.5748 C.2     
  20 N20          -12.7005   -16.7638    -0.6713 N.am    
  21 O21          -10.5088   -16.6052    -0.9769 O.2     
  22 C22          -12.7310   -18.1041    -1.2620 C.3     
  23 C23          -14.1448   -18.6257    -1.2513 C.2     
  24 N24          -14.4156   -19.8487    -1.7486 N.am    
  25 O25          -15.0389   -17.9449    -0.7952 O.2     
  26 C26          -15.7900   -20.3558    -1.7382 C.3     
  27 C27          -15.9556   -21.3807    -2.8305 C.2     
  28 O28          -15.0179   -21.6600    -3.5472 O.2     
  29 N29          -17.1457   -21.9868    -3.0111 N.am    
  30 C30          -16.0848   -21.0025    -0.3832 C.3     
  31 C31          -16.0395   -19.9512     0.6956 C.ar    
  32 C32          -17.1883   -19.2607     1.0350 C.ar    
  33 C33          -17.3067   -22.9831    -4.0731 C.3     
  34 C34          -17.6323   -22.2763    -5.3904 C.3     
  35 C35          -18.4304   -23.9215    -3.7154 C.2     
  36 O36          -19.0370   -23.7727    -2.6758 O.2     
  37 N37          -18.7612   -24.9260    -4.5508 N.am    
  38 C38          -16.4394   -21.4187    -5.8174 C.3     
  39 C39          -16.7601   -20.7225    -7.1149 C.2     
  40 N40          -15.8505   -19.9079    -7.6853 N.am    
  41 C41          -19.8535   -25.8382    -4.2031 C.3     
  42 C42          -21.1862   -25.2292    -4.6434 C.3     
  43 C43          -19.6484   -27.1572    -4.9026 C.2     
  44 O44          -18.6847   -27.3193    -5.6208 O.2     
  45 N45          -20.5359   -28.1567    -4.7300 N.am    
  46 C46          -20.3365   -29.4389    -5.4100 C.3     
  47 C47          -21.0427   -30.5470    -4.6263 C.3     
  48 C48          -20.9101   -29.3640    -6.8016 C.2     
  49 C49          -20.3778   -30.7070    -3.2577 C.3     
  50 C50          -21.0840   -31.8152    -2.4740 C.3     
  51 C51          -12.0105   -14.7839     1.4744 C.3     
  52 O52          -11.2470   -15.7459     2.2049 O.3     
  53 C53          -11.6431   -15.8865     3.5707 C.3     
  54 C54          -17.1494   -18.2966     2.0236 C.ar    
  55 C55          -15.9564   -18.0214     2.6760 C.ar    
  56 C56          -14.8051   -18.7156     2.3336 C.ar    
  57 C57          -14.8505   -19.6828     1.3482 C.ar    
  58 O58          -15.9155   -17.0731     3.6486 O.3     
  59 O59          -17.8368   -20.8952    -7.6458 O.2     
  60 C60          -20.4190   -31.9752    -1.1053 C.3     
  61 N61          -21.0971   -33.0391    -0.3529 N.3     
  62 C62            1.4167     2.0553    -0.0004 C.3     
  63 H63           -9.3821   -14.8307     0.0120 H       
  64 C64          -21.4536   -23.9536    -3.8420 C.3     
  65 C65          -22.7863   -23.3446    -4.2823 C.3     
  66 C66          -23.0536   -22.0690    -3.4809 C.3     
  67 N67          -24.3332   -21.4843    -3.9037 N.3     
  68 O68          -21.6602   -28.4653    -7.0979 O.2     
  69 C69          -20.5474   -30.4106    -7.8234 C.3     
  70 H70           -0.5459     1.8868    -0.8726 H       
  71 H71           -0.5289     1.8773     0.9072 H       
  72 H72            0.5123    -0.3556    -0.8948 H       
  73 H73            0.5293    -0.3651     0.8851 H       
  74 H74           -1.9435    -0.1821     0.9097 H       
  75 H75           -1.9605    -0.1726    -0.8702 H       
  76 H76           -0.9024    -2.4150    -0.8923 H       
  77 H77           -0.8854    -2.4246     0.8875 H       
  78 H78           -3.3581    -2.2415     0.9121 H       
  79 H79           -3.3751    -2.2320    -0.8677 H       
  80 H80           -2.3170    -4.4744    -0.8899 H       
  81 H81           -2.3000    -4.4840     0.8900 H       
  82 H82           -4.7728    -4.3010     0.9146 H       
  83 H83           -4.7898    -4.2914    -0.8653 H       
  84 H84           -3.7316    -6.5338    -0.8874 H       
  85 H85           -3.7146    -6.5434     0.8924 H       
  86 H86           -6.1874    -6.3604     0.9170 H       
  87 H87           -6.2044    -6.3508    -0.8628 H       
  88 H88           -5.1463    -8.5933    -0.8850 H       
  89 H89           -5.1293    -8.6028     0.8949 H       
  90 H90           -7.6020    -8.4198     0.9195 H       
  91 H91           -7.6190    -8.4102    -0.8604 H       
  92 H92           -6.5609   -10.6527    -0.8825 H       
  93 H93           -6.5439   -10.6622     0.8973 H       
  94 H94           -9.0167   -10.4792     0.9219 H       
  95 H95           -9.0337   -10.4697    -0.8579 H       
  96 H96           -7.9755   -12.7121    -0.8801 H       
  97 H97           -7.9586   -12.7217     0.8998 H       
  98 H98          -12.1400   -14.0504    -0.5470 H       
  99 H99          -13.5201   -16.3567    -0.3497 H       
 100 H100         -12.3689   -18.0568    -2.2890 H       
 101 H101         -12.0931   -18.7712    -0.6822 H       
 102 H102         -13.7005   -20.3932    -2.1133 H       
 103 H103         -16.4828   -19.5311    -1.9056 H       
 104 H104         -17.8957   -21.7634    -2.4379 H       
 105 H105         -17.0749   -21.4577    -0.4056 H       
 106 H106         -15.3374   -21.7683    -0.1758 H       
 107 H107         -18.1167   -19.4750     0.5266 H       
 108 H108         -16.3818   -23.5492    -4.1834 H       
 109 H109         -17.8394   -23.0197    -6.1601 H       
 110 H110         -18.5071   -21.6403    -5.2549 H       
 111 H111         -18.2760   -25.0450    -5.3822 H       
 112 H112         -16.2324   -20.6752    -5.0477 H       
 113 H113         -15.5646   -22.0547    -5.9529 H       
 114 H114         -14.9894   -19.7697    -7.2607 H       
 115 H115         -16.0569   -19.4598    -8.5205 H       
 116 H116         -19.8651   -25.9968    -3.1247 H       
 117 H117         -21.1424   -24.9886    -5.7055 H       
 118 H118         -21.9890   -25.9449    -4.4657 H       
 119 H119         -21.3067   -28.0271    -4.1555 H       
 120 H120         -19.2703   -29.6576    -5.4677 H       
 121 H121         -22.0922   -30.2849    -4.4919 H       
 122 H122         -20.9701   -31.4847    -5.1773 H       
 123 H123         -19.3283   -30.9692    -3.3920 H       
 124 H124         -20.4504   -29.7694    -2.7066 H       
 125 H125         -22.1334   -31.5530    -2.3396 H       
 126 H126         -21.0114   -32.7528    -3.0250 H       
 127 H127         -11.9048   -13.8051     1.9423 H       
 128 H128         -13.0606   -15.0760     1.4764 H       
 129 H129         -11.0160   -16.6346     4.0557 H       
 130 H130         -11.5297   -14.9306     4.0821 H       
 131 H131         -12.6855   -16.2015     3.6162 H       
 132 H132         -18.0470   -17.7572     2.2881 H       
 133 H133         -13.8752   -18.5032     2.8400 H       
 134 H134         -13.9546   -20.2238     1.0816 H       
 135 H135         -16.0937   -17.4123     4.5364 H       
 136 H136         -19.3696   -32.2373    -1.2397 H       
 137 H137         -20.4916   -31.0375    -0.5543 H       
 138 H138         -20.6760   -33.1643     0.5555 H       
 139 H139         -22.0849   -32.8507    -0.2707 H       
 140 H140           1.4019     3.1452     0.0056 H       
 141 H141           1.9439     1.6943     0.8826 H       
 142 H142           1.9269     1.7038    -0.8972 H       
 143 H143         -21.4973   -24.1943    -2.7798 H       
 144 H144         -20.6508   -23.2380    -4.0196 H       
 145 H145         -22.7425   -23.1040    -5.3445 H       
 146 H146         -23.5891   -24.0602    -4.1047 H       
 147 H147         -23.0974   -22.3097    -2.4187 H       
 148 H148         -22.2509   -21.3534    -3.6585 H       
 149 H149         -24.5327   -20.6399    -3.3886 H       
 150 H150         -24.3411   -21.3118    -4.8978 H       
 151 H151         -21.2610   -31.2329    -7.7703 H       
 152 H152         -20.5742   -29.9701    -8.8200 H       
 153 H153         -19.5447   -30.7860    -7.6189 H       
 154 C154          11.2451    41.0670    12.7613 C.3     
 155 C155          12.0379    39.9244    12.1808 C.2     
 156 N156          12.0993    38.7467    12.8334 N.am    
 157 C157          12.8700    37.6359    12.2690 C.3     
 158 C158          12.3231    36.3308    12.7871 C.2     
 159 N159          12.8795    35.1658    12.4000 N.am    
 160 C160          12.3478    33.8970    12.9037 C.3     
 161 C161          13.4277    32.8468    12.8592 C.2     
 162 N162          13.1656    31.5926    13.2771 N.am    
 163 O163          14.5326    33.1303    12.4473 O.2     
 164 C164          14.2153    30.5717    13.2338 C.3     
 165 C165          13.9223    29.5060    14.2583 C.2     
 166 C166          14.2569    29.9416    11.8401 C.3     
 167 O167          13.0362    29.2391    11.5984 O.3     
 168 C168          12.9715    28.6101    10.3169 C.3     
 169 N169          14.7586    28.4586    14.3993 N.am    
 170 O170          12.9338    29.5910    14.9559 O.2     
 171 C171          14.4737    27.4226    15.3952 C.3     
 172 C172          15.7582    26.7442    15.7959 C.2     
 173 N173          15.7967    25.9721    16.9000 N.am    
 174 O174          16.7575    26.8928    15.1248 O.2     
 175 C175          17.0219    25.2464    17.2441 C.3     
 176 C176          16.6879    23.8056    17.5330 C.2     
 177 O177          15.5396    23.4226    17.4589 O.2     
 178 N178          17.6654    22.9426    17.8739 N.am    
 179 C179          17.3408    21.5419    18.1548 C.3     
 180 C180          16.9089    21.4016    19.6159 C.3     
 181 C181          18.5551    20.6850    17.9055 C.2     
 182 O182          19.5899    21.1942    17.5301 O.2     
 183 N183          18.4913    19.3529    18.0997 N.am    
 184 C184          19.6718    18.5199    17.8572 C.3     
 185 C185          20.5555    18.5117    19.1062 C.3     
 186 C186          19.2369    17.1122    17.5404 C.2     
 187 O187          18.0570    16.8323    17.5192 O.2     
 188 N188          20.1591    16.1643    17.2807 N.am    
 189 C189          19.7363    14.7959    16.9727 C.3     
 190 C190          19.4154    14.6848    15.4809 C.3     
 191 C191          20.8456    13.8370    17.3207 C.2     
 192 O192          21.8868    14.2555    17.7807 O.2     
 193 N193          20.6806    12.5144    17.1208 N.am    
 194 C194          18.2081    15.5651    15.1519 C.3     
 195 C195          17.8872    15.4540    13.6601 C.3     
 196 N196          16.7312    16.2970    13.3451 N.pl3   
 197 C197          16.2561    16.3586    12.0564 C.2     
 198 C198          13.5163    26.3898    14.7972 C.3     
 199 C199          13.1018    25.3916    15.8801 C.3     
 200 O200          12.3560    27.0527    14.2910 O.3     
 201 C201          17.6595    25.8803    18.4820 C.3     
 202 C202          18.1218    27.2758    18.1501 C.2     
 203 O203          18.7546    28.0115    19.0775 O.3     
 204 O204          17.9228    27.7323    17.0493 O.2     
 205 C205          15.6057    22.1717    19.8387 C.3     
 206 C206          15.1739    22.0314    21.2998 C.3     
 207 C207          13.8707    22.8015    21.5225 C.3     
 208 N208          13.4560    22.6668    22.9254 N.3     
 209 C209          21.0901    19.8990    19.3523 C.ar    
 210 C210          20.3789    20.7826    20.1431 C.ar    
 211 C211          22.2939    20.2843    18.7917 C.ar    
 212 C212          22.7864    21.5553    19.0162 C.ar    
 213 C213          22.0721    22.4454    19.8049 C.ar    
 214 C214          20.8669    22.0549    20.3702 C.ar    
 215 N215          16.8659    15.6291    11.0633 N.pl3   
 216 N216          15.2276    17.1086    11.7762 N.2     
 217 C217          11.1706    33.4554    12.0318 C.3     
 218 O218          11.6361    33.1724    10.7107 O.3     
 219 O219          11.3822    36.3286    13.5524 O.2     
 220 C220          14.3375    37.7728    12.6797 C.3     
 221 C221          14.9276    39.0361    12.0497 C.3     
 222 C222          16.3951    39.1730    12.4604 C.3     
 223 N223          16.9602    40.3826    11.8572 N.pl3   
 224 C224          18.2743    40.7156    12.0864 C.2     
 225 N225          19.0580    39.9134    12.8817 N.pl3   
 226 N226          18.7770    41.7918    11.5498 N.2     
 227 O227          12.6206    40.0645    11.1264 O.2     
 228 C228          21.7590    11.5823    17.4591 C.3     
 229 C229          22.7235    11.4898    16.3049 C.2     
 230 C230          21.1680    10.1997    17.7419 C.3     
 231 C231          20.2979    10.2644    18.9988 C.3     
 232 N232          23.8020    10.6860    16.3907 N.am    
 233 O233          22.5293    12.1386    15.2988 O.2     
 234 C234          19.5799     8.9271    19.1914 C.3     
 235 O235          22.5547    23.6962    20.0275 O.3     
 236 N236          11.7941    42.3402    12.2761 N.3     
 237 C237           9.7826    40.9445    12.3291 C.3     
 238 C238          12.8986    42.7969    13.1303 C.3     
 239 C239           8.9512    42.0194    13.0323 C.3     
 240 C240           7.5143    41.9766    12.5085 C.3     
 241 C241           8.9524    41.7598    14.5401 C.3     
 242 C242          21.1802    10.5494    20.2158 C.3     
 243 H243          11.3063    41.0360    13.8492 H       
 244 H244          11.6333    38.6346    13.6767 H       
 245 H245          12.7935    37.6560    11.1819 H       
 246 H246          13.6320    35.1675    11.7880 H       
 247 H247          12.0098    34.0272    13.9317 H       
 248 H248          12.2818    31.3659    13.6065 H       
 249 H249          15.1788    31.0317    13.4534 H       
 250 H250          14.3803    30.7240    11.0913 H       
 251 H251          15.0942    29.2463    11.7806 H       
 252 H252          12.0149    28.0986    10.2111 H       
 253 H253          13.0683    29.3648     9.5364 H       
 254 H254          13.7822    27.8872    10.2257 H       
 255 H255          15.5491    28.3906    13.8413 H       
 256 H256          14.0145    27.8785    16.2725 H       
 257 H257          15.0131    25.8970    17.4667 H       
 258 H258          17.7208    25.2970    16.4091 H       
 259 H259          18.5839    23.2489    17.9332 H       
 260 H260          16.5286    21.2194    17.5033 H       
 261 H261          16.7530    20.3483    19.8491 H       
 262 H262          17.6856    21.8063    20.2648 H       
 263 H263          17.6637    18.9456    18.3999 H       
 264 H264          20.2352    18.9241    17.0162 H       
 265 H265          19.9666    18.1915    19.9658 H       
 266 H266          21.3871    17.8228    18.9585 H       
 267 H267          21.1028    16.3881    17.2976 H       
 268 H268          18.8479    14.5504    17.5547 H       
 269 H269          20.2756    15.0153    14.8986 H       
 270 H270          19.1868    13.6478    15.2346 H       
 271 H271          19.8478    12.1797    16.7529 H       
 272 H272          17.3480    15.2346    15.7342 H       
 273 H273          18.4367    16.6021    15.3982 H       
 274 H274          18.7474    15.7846    13.0778 H       
 275 H275          17.6587    14.4171    13.4138 H       
 276 H276          16.3010    16.8117    14.0458 H       
 277 H277          14.0148    25.8594    13.9858 H       
 278 H278          12.6505    25.9278    16.7149 H       
 279 H279          12.3794    24.6872    15.4676 H       
 280 H280          13.9800    24.8486    16.2292 H       
 281 H281          12.5442    27.7016    13.5992 H       
 282 H282          16.9261    25.9224    19.2873 H       
 283 H283          18.5128    25.2806    18.7987 H       
 284 H284          19.0322    28.9007    18.8181 H       
 285 H285          15.7617    23.2249    19.6054 H       
 286 H286          14.8291    21.7670    19.1898 H       
 287 H287          15.0179    20.9781    21.5330 H       
 288 H288          15.9505    22.4361    21.9487 H       
 289 H289          14.0266    23.8547    21.2893 H       
 290 H290          13.0940    22.3967    20.8736 H       
 291 H291          14.1862    22.9757    23.5495 H       
 292 H292          12.5970    23.1670    23.0981 H       
 293 H293          19.4409    20.4779    20.5832 H       
 294 H294          22.8497    19.5908    18.1781 H       
 295 H295          23.7269    21.8556    18.5783 H       
 296 H296          20.3090    22.7460    20.9846 H       
 297 H297          17.6313    15.0710    11.2719 H       
 298 H298          16.5307    15.6726    10.1541 H       
 299 H299          14.8924    17.1521    10.8670 H       
 300 H300          10.7192    32.5593    12.4577 H       
 301 H301          10.4284    34.2527    11.9925 H       
 302 H302          10.9416    32.8859    10.1019 H       
 303 H303          14.4061    37.8421    13.7653 H       
 304 H304          14.8940    36.9011    12.3353 H       
 305 H305          14.8590    38.9669    10.9641 H       
 306 H306          14.3712    39.9078    12.3941 H       
 307 H307          16.4637    39.2422    13.5460 H       
 308 H308          16.9516    38.3013    12.1160 H       
 309 H309          16.4072    40.9486    11.2961 H       
 310 H310          18.6839    39.1125    13.2810 H       
 311 H311          19.9852    40.1484    13.0434 H       
 312 H312          19.7041    42.0267    11.7115 H       
 313 H313          22.2847    11.9407    18.3441 H       
 314 H314          20.5593     9.8844    16.8945 H       
 315 H315          21.9755     9.4839    17.8956 H       
 316 H316          19.5609    11.0601    18.8899 H       
 317 H317          23.9574    10.1672    17.1954 H       
 318 H318          24.4228    10.6265    15.6478 H       
 319 H319          18.8951     9.0007    20.0362 H       
 320 H320          19.0190     8.6826    18.2893 H       
 321 H321          20.3141     8.1452    19.3858 H       
 322 H322          22.2676    24.3503    19.3757 H       
 323 H323          12.0888    42.2638    11.3141 H       
 324 H324           9.7103    41.0776    11.2497 H       
 325 H325           9.4051    39.9584    12.5997 H       
 326 H326          13.2294    43.7818    12.8007 H       
 327 H327          12.5582    42.8551    14.1641 H       
 328 H328          13.7276    42.0927    13.0598 H       
 329 H329           9.3818    43.0005    12.8322 H       
 330 H330           7.0552    41.0272    12.7842 H       
 331 H331           6.9439    42.7964    12.9451 H       
 332 H332           7.5202    42.0757    11.4230 H       
 333 H333           9.9761    41.7903    14.9132 H       
 334 H334           8.3601    42.5256    15.0411 H       
 335 H335           8.5218    40.7787    14.7402 H       
 336 H336          21.6917    11.5021    20.0786 H       
 337 H337          20.5603    10.5955    21.1112 H       
 338 H338          21.9172     9.7537    20.3247 H       
@<TRIPOS>BOND
   1    1    2 1
   2    1   62 1
   3    1   70 1
   4    1   71 1
   5    2    3 1
   6    2   72 1
   7    2   73 1
   8    3    4 1
   9    3   74 1
  10    3   75 1
  11    4    5 1
  12    4   76 1
  13    4   77 1
  14    5    6 1
  15    5   78 1
  16    5   79 1
  17    6    7 1
  18    6   80 1
  19    6   81 1
  20    7    8 1
  21    7   82 1
  22    7   83 1
  23    8    9 1
  24    8   84 1
  25    8   85 1
  26    9   10 1
  27    9   86 1
  28    9   87 1
  29   10   11 1
  30   10   88 1
  31   10   89 1
  32   11   12 1
  33   11   90 1
  34   11   91 1
  35   12   13 1
  36   12   92 1
  37   12   93 1
  38   13   14 1
  39   13   94 1
  40   13   95 1
  41   14   15 1
  42   14   96 1
  43   14   97 1
  44   15   16 am
  45   15   17 2
  46   16   18 1
  47   16   63 1
  48   18   19 1
  49   18   51 1
  50   18   98 1
  51   19   20 am
  52   19   21 2
  53   20   22 1
  54   20   99 1
  55   22   23 1
  56   22  100 1
  57   22  101 1
  58   23   24 am
  59   23   25 2
  60   24   26 1
  61   24  102 1
  62   26   27 1
  63   26   30 1
  64   26  103 1
  65   27   28 2
  66   27   29 am
  67   29   33 1
  68   29  104 1
  69   30   31 1
  70   30  105 1
  71   30  106 1
  72   31   32 ar
  73   31   57 ar
  74   32   54 ar
  75   32  107 1
  76   33   34 1
  77   33   35 1
  78   33  108 1
  79   34   38 1
  80   34  109 1
  81   34  110 1
  82   35   36 2
  83   35   37 am
  84   37   41 1
  85   37  111 1
  86   38   39 1
  87   38  112 1
  88   38  113 1
  89   39   40 am
  90   39   59 2
  91   40  114 1
  92   40  115 1
  93   41   42 1
  94   41   43 1
  95   41  116 1
  96   42   64 1
  97   42  117 1
  98   42  118 1
  99   43   44 2
 100   43   45 am
 101   45   46 1
 102   45  119 1
 103   46   47 1
 104   46   48 1
 105   46  120 1
 106   47   49 1
 107   47  121 1
 108   47  122 1
 109   48   68 2
 110   48   69 1
 111   49   50 1
 112   49  123 1
 113   49  124 1
 114   50   60 1
 115   50  125 1
 116   50  126 1
 117   51   52 1
 118   51  127 1
 119   51  128 1
 120   52   53 1
 121   53  129 1
 122   53  130 1
 123   53  131 1
 124   54   55 ar
 125   54  132 1
 126   55   56 ar
 127   55   58 1
 128   56   57 ar
 129   56  133 1
 130   57  134 1
 131   58  135 1
 132   60   61 1
 133   60  136 1
 134   60  137 1
 135   61  138 1
 136   61  139 1
 137   62  140 1
 138   62  141 1
 139   62  142 1
 140   64   65 1
 141   64  143 1
 142   64  144 1
 143   65   66 1
 144   65  145 1
 145   65  146 1
 146   66   67 1
 147   66  147 1
 148   66  148 1
 149   67  149 1
 150   67  150 1
 151   69  151 1
 152   69  152 1
 153   69  153 1
 154  154  155 1
 155  154  236 1
 156  154  237 1
 157  154  243 1
 158  155  156 am
 159  155  227 2
 160  156  157 1
 161  156  244 1
 162  157  158 1
 163  157  220 1
 164  157  245 1
 165  158  159 am
 166  158  219 2
 167  159  160 1
 168  159  246 1
 169  160  161 1
 170  160  217 1
 171  160  247 1
 172  161  162 am
 173  161  163 2
 174  162  164 1
 175  162  248 1
 176  164  165 1
 177  164  166 1
 178  164  249 1
 179  165  169 am
 180  165  170 2
 181  166  167 1
 182  166  250 1
 183  166  251 1
 184  167  168 1
 185  168  252 1
 186  168  253 1
 187  168  254 1
 188  169  171 1
 189  169  255 1
 190  171  172 1
 191  171  198 1
 192  171  256 1
 193  172  173 am
 194  172  174 2
 195  173  175 1
 196  173  257 1
 197  175  176 1
 198  175  201 1
 199  175  258 1
 200  176  177 2
 201  176  178 am
 202  178  179 1
 203  178  259 1
 204  179  180 1
 205  179  181 1
 206  179  260 1
 207  180  205 1
 208  180  261 1
 209  180  262 1
 210  181  182 2
 211  181  183 am
 212  183  184 1
 213  183  263 1
 214  184  185 1
 215  184  186 1
 216  184  264 1
 217  185  209 1
 218  185  265 1
 219  185  266 1
 220  186  187 2
 221  186  188 am
 222  188  189 1
 223  188  267 1
 224  189  190 1
 225  189  191 1
 226  189  268 1
 227  190  194 1
 228  190  269 1
 229  190  270 1
 230  191  192 2
 231  191  193 am
 232  193  228 1
 233  193  271 1
 234  194  195 1
 235  194  272 1
 236  194  273 1
 237  195  196 1
 238  195  274 1
 239  195  275 1
 240  196  197 1
 241  196  276 1
 242  197  215 1
 243  197  216 2
 244  198  199 1
 245  198  200 1
 246  198  277 1
 247  199  278 1
 248  199  279 1
 249  199  280 1
 250  200  281 1
 251  201  202 1
 252  201  282 1
 253  201  283 1
 254  202  203 1
 255  202  204 2
 256  203  284 1
 257  205  206 1
 258  205  285 1
 259  205  286 1
 260  206  207 1
 261  206  287 1
 262  206  288 1
 263  207  208 1
 264  207  289 1
 265  207  290 1
 266  208  291 1
 267  208  292 1
 268  209  210 ar
 269  209  211 ar
 270  210  214 ar
 271  210  293 1
 272  211  212 ar
 273  211  294 1
 274  212  213 ar
 275  212  295 1
 276  213  214 ar
 277  213  235 1
 278  214  296 1
 279  215  297 1
 280  215  298 1
 281  216  299 1
 282  217  218 1
 283  217  300 1
 284  217  301 1
 285  218  302 1
 286  220  221 1
 287  220  303 1
 288  220  304 1
 289  221  222 1
 290  221  305 1
 291  221  306 1
 292  222  223 1
 293  222  307 1
 294  222  308 1
 295  223  224 1
 296  223  309 1
 297  224  225 1
 298  224  226 2
 299  225  310 1
 300  225  311 1
 301  226  312 1
 302  228  229 1
 303  228  230 1
 304  228  313 1
 305  229  232 am
 306  229  233 2
 307  230  231 1
 308  230  314 1
 309  230  315 1
 310  231  234 1
 311  231  242 1
 312  231  316 1
 313  232  317 1
 314  232  318 1
 315  234  319 1
 316  234  320 1
 317  234  321 1
 318  235  322 1
 319  236  238 1
 320  236  323 1
 321  237  239 1
 322  237  324 1
 323  237  325 1
 324  238  326 1
 325  238  327 1
 326  238  328 1
 327  239  240 1
 328  239  241 1
 329  239  329 1
 330  240  330 1
 331  240  331 1
 332  240  332 1
 333  241  333 1
 334  241  334 1
 335  241  335 1
 336  242  336 1
 337  242  337 1
 338  242  338 1

#	End of record

