#	Name: ASD01720027
#	Creating user name:	WinNT
#	Creation time:	15. 06. 2019 19:23

#	Modifying user name:	WinNT
#	Modification time:	15. 06. 2019 19:23

#	Program:	/corina/corina34_cracker 3.40 0067  02.08.2006

@<TRIPOS>MOLECULE
ASD01720027
  42   44    0    0    0
SMALL
NO_CHARGES


@<TRIPOS>ATOM
   1 O1            -0.0198     1.6058     0.0109 O.3     
   2 P2             0.0021    -0.0041     0.0020 P.3     
   3 O3             0.6948    -0.4814    -1.2156 O.2     
   4 O4             0.7808    -0.5374     1.3064 O.3     
   5 O5            -1.5084    -0.5613     0.0134 O.3     
   6 P6            -2.1733    -1.9964    -0.2877 P.3     
   7 O7            -1.4979    -2.6193    -1.4479 O.2     
   8 O8            -2.0087    -2.9455     1.0024 O.3     
   9 O9            -3.7376    -1.8046    -0.6167 O.3     
  10 C10           -4.5841    -2.8800    -1.0277 C.3     
  11 O11           -6.0277    -1.4491    -2.3818 O.3     
  12 C12           -6.0025    -2.3539    -1.2564 C.3     
  13 C13           -6.9463    -3.5092    -1.6575 C.3     
  14 C14           -7.8912    -2.8760    -2.7033 C.3     
  15 C15           -7.4065    -1.4132    -2.8103 C.3     
  16 O16           -9.2450    -2.9229    -2.2482 O.3     
  17 O17           -7.6877    -3.9664    -0.5247 O.3     
  18 N18           -6.9350    -0.5048    -6.2579 N.2     
  19 C19           -6.5126    -1.0100    -5.1354 C.2     
  20 N20           -7.4980    -0.9456    -4.1956 N.pl3   
  21 C21           -8.5913    -0.3630    -4.7853 C.ar    
  22 N22           -9.8163    -0.0432    -4.3815 N.ar    
  23 C23          -10.6680     0.5262    -5.2083 C.ar    
  24 N24          -10.3600     0.8060    -6.4614 N.ar    
  25 C25           -9.1588     0.5228    -6.9547 C.ar    
  26 C26           -8.2146    -0.0852    -6.1103 C.ar    
  27 N27           -8.8454     0.8195    -8.2696 N.pl3   
  28 H28            0.8582     2.0111     0.0047 H       
  29 H29            0.3814    -0.2621     2.1429 H       
  30 H30           -2.4279    -2.5988     1.8018 H       
  31 H31           -4.2021    -3.3095    -1.9538 H       
  32 H32           -4.6012    -3.6457    -0.2521 H       
  33 H33           -6.3723    -1.8555    -0.3604 H       
  34 H34           -6.3803    -4.3285    -2.1007 H       
  35 H35           -7.7923    -3.3823    -3.6635 H       
  36 H36           -7.9916    -0.7705    -2.1525 H       
  37 H37           -9.5814    -3.8182    -2.1059 H       
  38 H38           -8.2966    -4.6918    -0.7198 H       
  39 H39           -5.5269    -1.4201    -4.9725 H       
  40 H40          -11.6557     0.7733    -4.8481 H       
  41 H41           -9.5060     1.2391    -8.8428 H       
  42 H42           -7.9652     0.6079    -8.6181 H       
@<TRIPOS>BOND
   1    1    2 1
   2    1   28 1
   3    2    3 2
   4    2    4 1
   5    2    5 1
   6    4   29 1
   7    5    6 1
   8    6    7 2
   9    6    8 1
  10    6    9 1
  11    8   30 1
  12    9   10 1
  13   10   12 1
  14   10   31 1
  15   10   32 1
  16   11   12 1
  17   11   15 1
  18   12   13 1
  19   12   33 1
  20   13   14 1
  21   13   17 1
  22   13   34 1
  23   14   15 1
  24   14   16 1
  25   14   35 1
  26   15   20 1
  27   15   36 1
  28   16   37 1
  29   17   38 1
  30   18   19 2
  31   18   26 1
  32   19   20 1
  33   19   39 1
  34   20   21 1
  35   21   22 ar
  36   21   26 ar
  37   22   23 ar
  38   23   24 ar
  39   23   40 1
  40   24   25 ar
  41   25   26 ar
  42   25   27 1
  43   27   41 1
  44   27   42 1

#	End of record

