#	Name: ASD04910388
#	Creating user name:	WinNT
#	Creation time:	15. 06. 2019 20:55

#	Modifying user name:	WinNT
#	Modification time:	15. 06. 2019 20:55

#	Program:	/corina/corina34_cracker 3.40 0067  02.08.2006

@<TRIPOS>MOLECULE
ASD04910388
  54   57    0    0    0
SMALL
NO_CHARGES


@<TRIPOS>ATOM
   1 C1            -0.1626     1.4802     0.0992 C.2     
   2 C2            -0.1033     0.0045     0.0637 C.ar    
   3 C3             1.1305    -0.6465     0.0053 C.ar    
   4 C4             1.1787    -2.0248    -0.0271 C.ar    
   5 C5             0.0079    -2.7618    -0.0024 C.ar    
   6 C6            -1.2182    -2.1230     0.0550 C.ar    
   7 C7            -1.2806    -0.7456     0.0942 C.ar    
   8 O8             0.8635     2.1299     0.0776 O.2     
   9 O9            -1.3548     2.1053     0.1499 O.3     
  10 C10            0.0684    -4.2672    -0.0385 C.3     
  11 C11           -0.1111    -4.8190     1.3772 C.3     
  12 C12            0.0743    -6.3376     1.3599 C.3     
  13 C13           -0.1052    -6.8894     2.7756 C.3     
  14 O14           -0.9737    -4.7657    -0.8798 O.3     
  15 C15           -0.7107    -5.8994    -1.5819 C.ar    
  16 C16            0.5519    -6.4724    -1.5264 C.ar    
  17 C17            0.8195    -7.6240    -2.2389 C.ar    
  18 C18           -0.1753    -8.2092    -3.0114 C.ar    
  19 C19           -1.4388    -7.6352    -3.0665 C.ar    
  20 C20           -1.7066    -6.4865    -2.3494 C.ar    
  21 N21            1.3271   -10.0431    -3.7560 N.2     
  22 N22            0.0958    -9.3780    -3.7353 N.pl3   
  23 C23           -0.7873   -10.0264    -4.5114 C.2     
  24 C24           -0.1489   -11.1268    -5.0530 C.ar    
  25 C25           -0.5309   -12.1691    -5.9241 C.ar    
  26 C26            0.3736   -13.1213    -6.2650 C.ar    
  27 C27            1.6815   -13.1003    -5.7757 C.ar    
  28 C28            2.1151   -12.1278    -4.9350 C.ar    
  29 C29            1.2291   -11.1043    -4.5372 C.ar    
  30 C30           -1.3371     3.5569     0.1825 C.3     
  31 H31            2.0451    -0.0724    -0.0147 H       
  32 H32            2.1323    -2.5296    -0.0722 H       
  33 H33           -2.1282    -2.7044     0.0733 H       
  34 H34           -2.2380    -0.2483     0.1438 H       
  35 H35            1.0349    -4.5826    -0.4316 H       
  36 H36            0.6297    -4.3700     2.0387 H       
  37 H37           -1.1118    -4.5792     1.7364 H       
  38 H38           -0.6666    -6.7866     0.6983 H       
  39 H39            1.0750    -6.5774     1.0006 H       
  40 H40            0.6356    -6.4405     3.4372 H       
  41 H41           -1.1060    -6.6496     3.1349 H       
  42 H42            0.0268    -7.9713     2.7633 H       
  43 H43            1.3255    -6.0170    -0.9259 H       
  44 H44            1.8023    -8.0697    -2.1959 H       
  45 H45           -2.2128    -8.0898    -3.6671 H       
  46 H46           -2.6904    -6.0426    -2.3886 H       
  47 H47           -1.8144    -9.7396    -4.6821 H       
  48 H48           -1.5364   -12.2089    -6.3164 H       
  49 H49            0.0742   -13.9163    -6.9319 H       
  50 H50            2.3665   -13.8800    -6.0746 H       
  51 H51            3.1323   -12.1372    -4.5720 H       
  52 H52           -0.8463     3.9345    -0.7145 H       
  53 H53           -2.3598     3.9319     0.2223 H       
  54 H54           -0.7920     3.8939     1.0641 H       
@<TRIPOS>BOND
   1    1    2 1
   2    1    8 2
   3    1    9 1
   4    2    3 ar
   5    2    7 ar
   6    3    4 ar
   7    3   31 1
   8    4    5 ar
   9    4   32 1
  10    5    6 ar
  11    5   10 1
  12    6    7 ar
  13    6   33 1
  14    7   34 1
  15    9   30 1
  16   10   11 1
  17   10   14 1
  18   10   35 1
  19   11   12 1
  20   11   36 1
  21   11   37 1
  22   12   13 1
  23   12   38 1
  24   12   39 1
  25   13   40 1
  26   13   41 1
  27   13   42 1
  28   14   15 1
  29   15   16 ar
  30   15   20 ar
  31   16   17 ar
  32   16   43 1
  33   17   18 ar
  34   17   44 1
  35   18   19 ar
  36   18   22 1
  37   19   20 ar
  38   19   45 1
  39   20   46 1
  40   21   22 1
  41   21   29 2
  42   22   23 1
  43   23   24 2
  44   23   47 1
  45   24   25 ar
  46   24   29 ar
  47   25   26 ar
  48   25   48 1
  49   26   27 ar
  50   26   49 1
  51   27   28 ar
  52   27   50 1
  53   28   29 ar
  54   28   51 1
  55   30   52 1
  56   30   53 1
  57   30   54 1

#	End of record

