#	Name: ASD01882044
#	Creating user name:	WinNT
#	Creation time:	15. 06. 2019 19:43

#	Modifying user name:	WinNT
#	Modification time:	15. 06. 2019 19:43

#	Program:	/corina/corina34_cracker 3.40 0067  02.08.2006

@<TRIPOS>MOLECULE
ASD01882044
  31   32    0    0    0
SMALL
NO_CHARGES


@<TRIPOS>ATOM
   1 N1            -0.0169     1.3986     0.0097 N.pl3   
   2 N2             0.0021    -0.0041     0.0020 N.2     
   3 N3             1.2208    -0.4155    -0.0118 N.2     
   4 C4             2.0689     0.6325    -0.0143 C.ar    
   5 C5             1.2957     1.8066    -0.0006 C.ar    
   6 C6             3.4661     0.7327    -0.0271 C.ar    
   7 C7             4.0606     1.9605    -0.0262 C.ar    
   8 C8             3.2961     3.1199    -0.0127 C.ar    
   9 C9             1.9211     3.0486     0.0008 C.ar    
  10 N10            5.5375     2.0582    -0.0393 N.pl3   
  11 O11            6.2147     1.0459    -0.0509 O.2     
  12 O12            6.0756     3.1509    -0.0386 O.2     
  13 C13           -1.2024     2.2592     0.0203 C.3     
  14 C14           -1.6077     2.5515     1.4664 C.3     
  15 C15           -0.4573     3.2591     2.1853 C.3     
  16 C16           -2.8458     3.4503     1.4774 C.3     
  17 C17           -1.9251     1.2373     2.1826 C.3     
  18 H18            4.0720    -0.1612    -0.0374 H       
  19 H19            3.7833     4.0837    -0.0118 H       
  20 H20            1.3311     3.9531     0.0113 H       
  21 H21           -0.9763     3.1955    -0.4900 H       
  22 H22           -2.0220     1.7551    -0.4919 H       
  23 H23           -0.2311     4.1954     1.6750 H       
  24 H24           -0.7460     3.4674     3.2155 H       
  25 H25            0.4247     2.6188     2.1774 H       
  26 H26           -3.6653     2.9462     0.9652 H       
  27 H27           -3.1344     3.6585     2.5076 H       
  28 H28           -2.6196     4.3866     0.9671 H       
  29 H29           -1.0431     0.5970     2.1748 H       
  30 H30           -2.2138     1.4455     3.2129 H       
  31 H31           -2.7447     0.7332     1.6705 H       
@<TRIPOS>BOND
   1    1    2 1
   2    1    5 1
   3    1   13 1
   4    2    3 2
   5    3    4 1
   6    4    5 ar
   7    4    6 ar
   8    5    9 ar
   9    6    7 ar
  10    6   18 1
  11    7    8 ar
  12    7   10 1
  13    8    9 ar
  14    8   19 1
  15    9   20 1
  16   10   11 2
  17   10   12 2
  18   13   14 1
  19   13   21 1
  20   13   22 1
  21   14   15 1
  22   14   16 1
  23   14   17 1
  24   15   23 1
  25   15   24 1
  26   15   25 1
  27   16   26 1
  28   16   27 1
  29   16   28 1
  30   17   29 1
  31   17   30 1
  32   17   31 1

#	End of record

