#	Name: ASD04882532
#	Creating user name:	WinNT
#	Creation time:	15. 06. 2019 20:55

#	Modifying user name:	WinNT
#	Modification time:	15. 06. 2019 20:55

#	Program:	/corina/corina34_cracker 3.40 0067  02.08.2006

@<TRIPOS>MOLECULE
ASD04882532
  70   74    0    0    0
SMALL
NO_CHARGES


@<TRIPOS>ATOM
   1 C1            -0.0215     1.4013    -0.0094 C.ar    
   2 C2            -0.0117     0.0037    -0.0051 C.ar    
   3 C3            -1.2095    -0.7018    -0.0165 C.ar    
   4 C4            -2.4098    -0.0266    -0.0315 C.ar    
   5 C5            -2.4268     1.3710    -0.0354 C.ar    
   6 C6            -1.2240     2.0827    -0.0192 C.ar    
   7 N7             1.1996    -0.6831     0.0100 N.3     
   8 C8             1.3065    -1.5360     1.2020 C.3     
   9 C9             1.3723    -1.4734    -1.2168 C.3     
  10 C10            2.7461    -2.1477    -1.1969 C.3     
  11 N11            2.8530    -3.0007    -0.0050 N.3     
  12 C12            2.6803    -2.2103     1.2219 C.3     
  13 C13           -3.7127     2.0940    -0.0514 C.2     
  14 O14           -3.7266     3.3099    -0.0548 O.2     
  15 N15           -4.8721     1.4068    -0.0624 N.am    
  16 N16            1.1863     2.1109     0.0021 N.am    
  17 C17            4.0680    -3.6895     0.0103 C.ar    
  18 C18            1.2294     3.3599     0.5068 C.2     
  19 C19            2.5092     4.0695     0.5995 C.2     
  20 C20            4.0807    -5.0784     0.0145 C.ar    
  21 C21            5.2839    -5.7564     0.0291 C.ar    
  22 C22            6.4749    -5.0542     0.0399 C.ar    
  23 C23            6.4659    -3.6711     0.0357 C.ar    
  24 C24            5.2666    -2.9870     0.0154 C.ar    
  25 O25            0.2059     3.8988     0.8856 O.2     
  26 C26            2.6935     5.3314     1.0877 C.2     
  27 C27            4.0665     5.6058     0.9887 C.2     
  28 C28            4.6527     4.5133     0.4513 C.2     
  29 O29            3.7118     3.5878     0.2228 O.3     
  30 C30            2.7831    -5.8446     0.0038 C.3     
  31 C31           -6.1490     2.1247    -0.0783 C.3     
  32 C32           -7.2831     1.1324    -0.0881 C.ar    
  33 C33           -7.8164     0.6805     1.1042 C.ar    
  34 C34           -8.8568    -0.2299     1.0952 C.ar    
  35 C35           -9.3640    -0.6878    -0.1062 C.ar    
  36 C36           -8.8312    -0.2351    -1.2990 C.ar    
  37 C37           -7.7940     0.6784    -1.2900 C.ar    
  38 C38           -9.4375    -0.7233     2.3953 C.3     
  39 F39          -10.4858     0.1166     2.7864 F       
  40 F40           -9.9215    -2.0250     2.2256 F       
  41 F41           -8.4446    -0.7198     3.3808 F       
  42 H42           -1.1988    -1.7817    -0.0139 H       
  43 H43           -3.3386    -0.5775    -0.0406 H       
  44 H44           -1.2341     3.1627    -0.0218 H       
  45 H45            1.1878    -0.9260     2.0975 H       
  46 H46            0.5277    -2.2981     1.1748 H       
  47 H47            0.5943    -2.2348    -1.2714 H       
  48 H48            1.3016    -0.8178    -2.0847 H       
  49 H49            2.8648    -2.7577    -2.0924 H       
  50 H50            3.5249    -1.3856    -1.1697 H       
  51 H51            3.4584    -1.4489     1.2765 H       
  52 H52            2.7511    -2.8659     2.0898 H       
  53 H53           -4.8610     0.4369    -0.0597 H       
  54 H54            1.9917     1.7034    -0.3532 H       
  55 H55            5.2945    -6.8364     0.0324 H       
  56 H56            7.4144    -5.5868     0.0520 H       
  57 H57            7.3980    -3.1256     0.0445 H       
  58 H58            5.2603    -1.9070     0.0117 H       
  59 H59            1.9306     5.9908     1.4744 H       
  60 H60            4.5614     6.5185     1.2862 H       
  61 H61            5.7068     4.4031     0.2437 H       
  62 H62            2.4805    -6.0324    -1.0264 H       
  63 H63            2.9175    -6.7942     0.5218 H       
  64 H64            2.0126    -5.2615     0.5081 H       
  65 H65           -6.2237     2.7531     0.8093 H       
  66 H66           -6.2041     2.7483    -0.9706 H       
  67 H67           -7.4200     1.0383     2.0430 H       
  68 H68          -10.1763    -1.3995    -0.1133 H       
  69 H69           -9.2273    -0.5931    -2.2377 H       
  70 H70           -7.3778     1.0320    -2.2217 H       
@<TRIPOS>BOND
   1    1    2 ar
   2    1   16 1
   3    1    6 ar
   4    2    3 ar
   5    2    7 1
   6    3    4 ar
   7    3   42 1
   8    4    5 ar
   9    4   43 1
  10    5    6 ar
  11    5   13 1
  12    6   44 1
  13    7    8 1
  14    7    9 1
  15    8   12 1
  16    8   45 1
  17    8   46 1
  18    9   10 1
  19    9   47 1
  20    9   48 1
  21   10   11 1
  22   10   49 1
  23   10   50 1
  24   11   12 1
  25   11   17 1
  26   12   51 1
  27   12   52 1
  28   13   14 2
  29   13   15 am
  30   15   31 1
  31   15   53 1
  32   16   18 am
  33   16   54 1
  34   17   20 ar
  35   17   24 ar
  36   18   19 1
  37   18   25 2
  38   19   26 2
  39   19   29 1
  40   20   21 ar
  41   20   30 1
  42   21   22 ar
  43   21   55 1
  44   22   23 ar
  45   22   56 1
  46   23   24 ar
  47   23   57 1
  48   24   58 1
  49   26   27 1
  50   26   59 1
  51   27   28 2
  52   27   60 1
  53   28   29 1
  54   28   61 1
  55   30   62 1
  56   30   63 1
  57   30   64 1
  58   31   32 1
  59   31   65 1
  60   31   66 1
  61   32   33 ar
  62   32   37 ar
  63   33   34 ar
  64   33   67 1
  65   34   35 ar
  66   34   38 1
  67   35   36 ar
  68   35   68 1
  69   36   37 ar
  70   36   69 1
  71   37   70 1
  72   38   39 1
  73   38   40 1
  74   38   41 1

#	End of record

