#	Name: ASD01881381
#	Creating user name:	WinNT
#	Creation time:	15. 06. 2019 19:42

#	Modifying user name:	WinNT
#	Modification time:	15. 06. 2019 19:42

#	Program:	/corina/corina34_cracker 3.40 0067  02.08.2006

@<TRIPOS>MOLECULE
ASD01881381
  59   61    0    0    0
SMALL
NO_CHARGES


@<TRIPOS>ATOM
   1 C1            -0.0167     1.3829     0.0096 C.ar    
   2 C2             0.0021    -0.0041     0.0020 C.ar    
   3 C3             1.1706     2.0945     0.0021 C.ar    
   4 C4             2.3789     1.4290    -0.0134 C.ar    
   5 C5             2.4067     0.0345    -0.0212 C.ar    
   6 C6             1.2116    -0.6814    -0.0135 C.ar    
   7 C7             3.7032    -0.6831    -0.0374 C.2     
   8 C8             4.5747    -0.5888     1.0371 C.2     
   9 C9             4.0696    -1.4798    -1.1457 C.2     
  10 C10            5.2544    -2.1269    -1.1444 C.2     
  11 N11            6.1059    -2.0251    -0.0899 N.am    
  12 C12            5.7941    -1.2819     0.9878 C.2     
  13 C13            7.3830    -2.7421    -0.1246 C.3     
  14 C14            8.4534    -1.8471    -0.7524 C.3     
  15 C15            9.7872    -2.5958    -0.7886 C.3     
  16 C16           10.8576    -1.7009    -1.4165 C.3     
  17 Cl17           4.1636     0.3729     2.4226 Cl      
  18 O18            6.5760    -1.2063     1.9226 O.2     
  19 C19           -1.5238     1.3779     0.0292 C.3     
  20 C20           -2.1691     1.9415    -1.2384 C.3     
  21 C21           -3.6921     1.8854    -1.1035 C.3     
  22 C22           -4.3375     2.4491    -2.3710 C.3     
  23 C23           -3.8959     3.9010    -2.5658 C.3     
  24 O24           -4.3032     4.6781    -1.4379 O.3     
  25 O25           -1.3560    -0.0392     0.0148 O.3     
  26 C26           -1.7275     3.3934    -1.4331 C.3     
  27 C27           -2.3729     3.9571    -2.7007 C.3     
  28 H28            1.1509     3.1743     0.0081 H       
  29 H29            3.3031     1.9877    -0.0200 H       
  30 H30            1.2273    -1.7613    -0.0194 H       
  31 H31            3.4036    -1.5709    -1.9910 H       
  32 H32            5.5295    -2.7347    -1.9937 H       
  33 H33            7.6795    -3.0055     0.8907 H       
  34 H34            7.2742    -3.6496    -0.7183 H       
  35 H35            8.1570    -1.5837    -1.7677 H       
  36 H36            8.5622    -0.9395    -0.1587 H       
  37 H37           10.0837    -2.8592     0.2267 H       
  38 H38            9.6784    -3.5034    -1.3824 H       
  39 H39           11.8078    -2.2343    -1.4423 H       
  40 H40           10.5611    -1.4375    -2.4318 H       
  41 H41           10.9664    -0.7933    -0.8227 H       
  42 H42           -1.9599     1.7728     0.9467 H       
  43 H43           -1.8585     1.3487    -2.0987 H       
  44 H44           -4.0067     0.8511    -0.9647 H       
  45 H45           -4.0028     2.4782    -0.2431 H       
  46 H46           -4.0268     1.8563    -3.2314 H       
  47 H47           -5.4225     2.4091    -2.2749 H       
  48 H48           -4.3557     4.3026    -3.4688 H       
  49 H49           -4.0558     5.6113    -1.4932 H       
  50 H50           -2.0382     3.9862    -0.5728 H       
  51 H51           -0.6425     3.4334    -1.5292 H       
  52 H52           -2.0622     3.3643    -3.5610 H       
  53 H53           -2.0583     4.9914    -2.8394 H       
  54 C54           17.7504    12.4739     7.4417 C.2     
  55 C55           17.7681    11.1640     7.4345 C.2     
  56 H56           18.6782    13.0265     7.4358 H       
  57 H57           16.8078    13.0011     7.4490 H       
  58 H58           16.8403    10.6113     7.4404 H       
  59 H59           18.7106    10.6368     7.4226 H       
@<TRIPOS>BOND
   1    1    2 ar
   2    1    3 ar
   3    1   19 1
   4    2   25 1
   5    2    6 ar
   6    3    4 ar
   7    3   28 1
   8    4    5 ar
   9    4   29 1
  10    5    6 ar
  11    5    7 1
  12    6   30 1
  13    7    8 2
  14    7    9 1
  15    8   17 1
  16    8   12 1
  17    9   10 2
  18    9   31 1
  19   10   11 1
  20   10   32 1
  21   11   12 am
  22   11   13 1
  23   12   18 2
  24   13   14 1
  25   13   33 1
  26   13   34 1
  27   14   15 1
  28   14   35 1
  29   14   36 1
  30   15   16 1
  31   15   37 1
  32   15   38 1
  33   16   39 1
  34   16   40 1
  35   16   41 1
  36   19   20 1
  37   19   25 1
  38   19   42 1
  39   20   21 1
  40   20   26 1
  41   20   43 1
  42   21   22 1
  43   21   44 1
  44   21   45 1
  45   22   23 1
  46   22   46 1
  47   22   47 1
  48   23   24 1
  49   23   27 1
  50   23   48 1
  51   24   49 1
  52   26   27 1
  53   26   50 1
  54   26   51 1
  55   27   52 1
  56   27   53 1
  57   54   55 2
  58   54   56 1
  59   54   57 1
  60   55   58 1
  61   55   59 1

#	End of record

