#	Name: ASD03091469
#	Creating user name:	WinNT
#	Creation time:	15. 06. 2019 20:30

#	Modifying user name:	WinNT
#	Modification time:	15. 06. 2019 20:30

#	Program:	/corina/corina34_cracker 3.40 0067  02.08.2006

@<TRIPOS>MOLECULE
ASD03091469
  39   42    0    0    0
SMALL
NO_CHARGES


@<TRIPOS>ATOM
   1 N1            -0.0091     1.3372    -0.0439 N.pl3   
   2 C2             0.0140    -0.0187    -0.0545 C.2     
   3 C3             1.1494    -0.7208     0.2202 C.2     
   4 C4             2.3843     0.0187     0.5277 C.2     
   5 C5             2.3772     1.4613     0.2504 C.ar    
   6 C6             3.5472     2.2326     0.2621 C.ar    
   7 N7             3.4814     3.5298    -0.0005 N.ar    
   8 C8             2.3381     4.1340    -0.2764 C.ar    
   9 C9             1.1439     3.4482    -0.3053 C.ar    
  10 C10            1.1447     2.0794    -0.0364 C.ar    
  11 N11            4.7662     1.6421     0.5470 N.pl3   
  12 C12            5.9449     2.3858     0.4409 C.ar    
  13 C13            6.9971     2.1514     1.3170 C.ar    
  14 C14            8.1605     2.8877     1.2091 C.ar    
  15 C15            8.2784     3.8578     0.2305 C.ar    
  16 C16            7.2328     4.0936    -0.6433 C.ar    
  17 C17            6.0688     3.3570    -0.5445 C.ar    
  18 O18            3.3655    -0.5390     0.9905 O.2     
  19 C19            1.1409    -2.2035     0.2091 C.ar    
  20 C20            0.9028    -2.8926    -0.9790 C.ar    
  21 C21            0.8964    -4.2725    -0.9840 C.ar    
  22 C22            1.1259    -4.9725     0.1881 C.ar    
  23 C23            1.3629    -4.2929     1.3708 C.ar    
  24 C24            1.3767    -2.9131     1.3856 C.ar    
  25 Cl25           1.1159    -6.7084     0.1751 Cl      
  26 H26           -0.8645     1.7946    -0.0457 H       
  27 H27           -0.8929    -0.5572    -0.2868 H       
  28 H28            2.3406     5.1938    -0.4842 H       
  29 H29            0.2216     3.9620    -0.5330 H       
  30 H30            4.8025     0.7121     0.8203 H       
  31 H31            6.9054     1.3945     2.0819 H       
  32 H32            8.9789     2.7061     1.8899 H       
  33 H33            9.1890     4.4327     0.1488 H       
  34 H34            7.3281     4.8522    -1.4061 H       
  35 H35            5.2542     3.5389    -1.2298 H       
  36 H36            0.7233    -2.3475    -1.8938 H       
  37 H37            0.7116    -4.8073    -1.9039 H       
  38 H38            1.5410    -4.8435     2.2826 H       
  39 H39            1.5660    -2.3839     2.3078 H       
@<TRIPOS>BOND
   1    1    2 1
   2    1   10 1
   3    1   26 1
   4    2    3 2
   5    2   27 1
   6    3    4 1
   7    3   19 1
   8    4    5 1
   9    4   18 2
  10    5    6 ar
  11    5   10 ar
  12    6    7 ar
  13    6   11 1
  14    7    8 ar
  15    8    9 ar
  16    8   28 1
  17    9   10 ar
  18    9   29 1
  19   11   12 1
  20   11   30 1
  21   12   13 ar
  22   12   17 ar
  23   13   14 ar
  24   13   31 1
  25   14   15 ar
  26   14   32 1
  27   15   16 ar
  28   15   33 1
  29   16   17 ar
  30   16   34 1
  31   17   35 1
  32   19   20 ar
  33   19   24 ar
  34   20   21 ar
  35   20   36 1
  36   21   22 ar
  37   21   37 1
  38   22   23 ar
  39   22   25 1
  40   23   24 ar
  41   23   38 1
  42   24   39 1

#	End of record

