#	Name: ASD03331117
#	Creating user name:	WinNT
#	Creation time:	15. 06. 2019 20:38

#	Modifying user name:	WinNT
#	Modification time:	15. 06. 2019 20:38

#	Program:	/corina/corina34_cracker 3.40 0067  02.08.2006

@<TRIPOS>MOLECULE
ASD03331117
  61   64    0    0    0
SMALL
NO_CHARGES


@<TRIPOS>ATOM
   1 N1            -0.0164     1.3554     0.0653 N.pl3   
   2 C2             0.0029    -0.0038     0.0363 C.2     
   3 C3             1.2395    -0.8639     0.0225 C.3     
   4 N4             2.1702    -0.3869     1.0574 N.3     
   5 C5             3.0626     0.6480     0.5317 C.3     
   6 C6             2.3511     1.5031    -0.5130 C.3     
   7 C7             1.1625     2.2238     0.1290 C.3     
   8 C8            -1.3235     1.7462     0.0361 C.2     
   9 N9            -2.0806     0.6745     0.0088 N.2     
  10 C10           -1.2925    -0.4229     0.0109 C.2     
  11 C11           -1.7523    -1.8227    -0.0104 C.2     
  12 O12           -0.9416    -2.7292    -0.0060 O.2     
  13 N13           -3.0714    -2.0983    -0.0348 N.am    
  14 C14            2.9366    -1.5015     1.6303 C.3     
  15 C15           -3.5286    -3.4900    -0.0560 C.3     
  16 C16           -3.5919    -4.0279     1.3750 C.3     
  17 C17           -4.0694    -5.4813     1.3528 C.3     
  18 O18           -5.9309    -2.7495    -0.4251 O.3     
  19 N19           -6.8863    -3.0776    -1.0966 N.2     
  20 C20           -6.5856    -4.1033    -1.8357 C.2     
  21 N21           -5.3055    -4.4248    -1.5768 N.2     
  22 C22           -4.8987    -3.5592    -0.6797 C.2     
  23 C23           -7.5026    -4.8038    -2.8049 C.3     
  24 C24           -2.2009    -3.9576     2.0082 C.3     
  25 C25           -4.5688    -3.1826     2.1948 C.3     
  26 C26           -1.8064     3.1442     0.0359 C.ar    
  27 C27           -2.7905     3.5464    -0.8709 C.ar    
  28 C28           -3.2374     4.8543    -0.8659 C.ar    
  29 C29           -2.7128     5.7639     0.0338 C.ar    
  30 C30           -1.7367     5.3713     0.9355 C.ar    
  31 C31           -1.2855     4.0652     0.9447 C.ar    
  32 F32           -1.2292     6.2660     1.8114 F       
  33 F33           -3.3038     2.6590    -1.7508 F       
  34 H34            0.9659    -1.8988     0.2277 H       
  35 H35            1.7174    -0.7992    -0.9550 H       
  36 H36            3.3934     1.2857     1.3515 H       
  37 H37            3.9312     0.1737     0.0751 H       
  38 H38            3.0477     2.2393    -0.9141 H       
  39 H39            1.9943     0.8651    -1.3215 H       
  40 H40            0.9629     3.1495    -0.4106 H       
  41 H41            1.3926     2.4500     1.1702 H       
  42 H42           -3.7180    -1.3753    -0.0383 H       
  43 H43            3.4549    -2.0339     0.8328 H       
  44 H44            3.6656    -1.1134     2.3417 H       
  45 H45            2.2579    -2.1842     2.1415 H       
  46 H46           -2.8326    -4.0922    -0.6400 H       
  47 H47           -3.3735    -6.0835     0.7688 H       
  48 H48           -4.1145    -5.8645     2.3722 H       
  49 H49           -5.0604    -5.5313     0.9017 H       
  50 H50           -7.4133    -4.3419    -3.7881 H       
  51 H51           -7.2259    -5.8560    -2.8712 H       
  52 H52           -8.5320    -4.7201    -2.4563 H       
  53 H53           -1.8607    -2.9222     2.0240 H       
  54 H54           -2.2460    -4.3408     3.0277 H       
  55 H55           -1.5050    -4.5599     1.4242 H       
  56 H56           -5.5598    -3.2326     1.7436 H       
  57 H57           -4.6139    -3.5658     3.2142 H       
  58 H58           -4.2286    -2.1471     2.2105 H       
  59 H59           -3.9978     5.1666    -1.5665 H       
  60 H60           -3.0650     6.7848     0.0335 H       
  61 H61           -0.5278     3.7593     1.6510 H       
@<TRIPOS>BOND
   1    1    2 1
   2    1    7 1
   3    1    8 1
   4    2    3 1
   5    2   10 2
   6    3    4 1
   7    3   34 1
   8    3   35 1
   9    4    5 1
  10    4   14 1
  11    5    6 1
  12    5   36 1
  13    5   37 1
  14    6    7 1
  15    6   38 1
  16    6   39 1
  17    7   40 1
  18    7   41 1
  19    8    9 2
  20    8   26 1
  21    9   10 1
  22   10   11 1
  23   11   12 2
  24   11   13 am
  25   13   15 1
  26   13   42 1
  27   14   43 1
  28   14   44 1
  29   14   45 1
  30   15   16 1
  31   15   22 1
  32   15   46 1
  33   16   17 1
  34   16   24 1
  35   16   25 1
  36   17   47 1
  37   17   48 1
  38   17   49 1
  39   18   19 1
  40   18   22 1
  41   19   20 2
  42   20   21 1
  43   20   23 1
  44   21   22 2
  45   23   50 1
  46   23   51 1
  47   23   52 1
  48   24   53 1
  49   24   54 1
  50   24   55 1
  51   25   56 1
  52   25   57 1
  53   25   58 1
  54   26   27 ar
  55   26   31 ar
  56   27   28 ar
  57   27   33 1
  58   28   29 ar
  59   28   59 1
  60   29   30 ar
  61   29   60 1
  62   30   31 ar
  63   30   32 1
  64   31   61 1

#	End of record

