#	Name: ASD05143294
#	Creating user name:	WinNT
#	Creation time:	15. 06. 2019 20:57

#	Modifying user name:	WinNT
#	Modification time:	15. 06. 2019 20:57

#	Program:	/corina/corina34_cracker 3.40 0067  02.08.2006

@<TRIPOS>MOLECULE
ASD05143294
  44   46    0    0    0
SMALL
NO_CHARGES


@<TRIPOS>ATOM
   1 C1             0.4113     1.1936     0.2664 C.2     
   2 N2             0.3790    -0.0690    -0.1116 N.2     
   3 S3            -1.2674    -0.4773    -0.2117 S.3     
   4 C4            -1.8298     1.0800     0.2627 C.2     
   5 N5            -0.7450     1.7942     0.4679 N.2     
   6 N6            -3.1427     1.4903     0.4030 N.pl3   
   7 C7            -3.4270     2.7657     0.8993 C.ar    
   8 C8            -4.7378     3.1236     1.1894 C.ar    
   9 C9            -5.0152     4.3843     1.6796 C.ar    
  10 C10           -3.9901     5.2905     1.8815 C.ar    
  11 C11           -2.6845     4.9377     1.5934 C.ar    
  12 C12           -2.3993     3.6760     1.1091 C.ar    
  13 C13            1.4519    -0.8837    -0.3710 C.ar    
  14 C14            2.3823    -0.5276    -1.3481 C.ar    
  15 C15            1.6209    -2.0710     0.3458 C.ar    
  16 C16            2.7028    -2.8858     0.0793 C.ar    
  17 C17            3.6181    -2.5287    -0.8951 C.ar    
  18 C18            3.4592    -1.3516    -1.6042 C.ar    
  19 C19            1.6950     1.9068     0.4628 C.ar    
  20 C20            1.7841     3.2732     0.1986 C.ar    
  21 C21            2.8174     1.2156     0.9180 C.ar    
  22 C22            4.0102     1.8853     1.0989 C.ar    
  23 C23            4.0939     3.2397     0.8297 C.ar    
  24 C24            2.9824     3.9320     0.3833 C.ar    
  25 C25           -5.8555     2.1371     0.9688 C.3     
  26 Cl26           0.4737    -2.5199     1.5689 Cl      
  27 H27           -3.8664     0.8932     0.1569 H       
  28 H28           -6.0339     4.6631     1.9052 H       
  29 H29           -4.2098     6.2760     2.2646 H       
  30 H30           -1.8864     5.6479     1.7519 H       
  31 H31           -1.3793     3.4010     0.8847 H       
  32 H32            2.2597     0.3908    -1.9029 H       
  33 H33            2.8353    -3.8038     0.6327 H       
  34 H34            4.4629    -3.1697    -1.0998 H       
  35 H35            4.1772    -1.0791    -2.3636 H       
  36 H36            0.9172     3.8146    -0.1503 H       
  37 H37            2.7531     0.1583     1.1289 H       
  38 H38            4.8800     1.3512     1.4518 H       
  39 H39            5.0297     3.7596     0.9728 H       
  40 H40            3.0540     4.9892     0.1744 H       
  41 H41           -6.0076     1.5516     1.8755 H       
  42 H42           -6.7720     2.6749     0.7256 H       
  43 H43           -5.5955     1.4715     0.1457 H       
  44 Br44          10.0297    11.2760     7.2646 Br      
@<TRIPOS>BOND
   1    1    2 2
   2    1   19 1
   3    1    5 1
   4    2    3 1
   5    2   13 1
   6    3    4 1
   7    4    5 2
   8    4    6 1
   9    6    7 1
  10    6   27 1
  11    7    8 ar
  12    7   12 ar
  13    8    9 ar
  14    8   25 1
  15    9   10 ar
  16    9   28 1
  17   10   11 ar
  18   10   29 1
  19   11   12 ar
  20   11   30 1
  21   12   31 1
  22   13   14 ar
  23   13   15 ar
  24   14   18 ar
  25   14   32 1
  26   15   16 ar
  27   15   26 1
  28   16   17 ar
  29   16   33 1
  30   17   18 ar
  31   17   34 1
  32   18   35 1
  33   19   20 ar
  34   19   21 ar
  35   20   24 ar
  36   20   36 1
  37   21   22 ar
  38   21   37 1
  39   22   23 ar
  40   22   38 1
  41   23   24 ar
  42   23   39 1
  43   24   40 1
  44   25   41 1
  45   25   42 1
  46   25   43 1

#	End of record

