#	Name: ASD02032028
#	Creating user name:	WinNT
#	Creation time:	15. 06. 2019 20:16

#	Modifying user name:	WinNT
#	Modification time:	15. 06. 2019 20:16

#	Program:	/corina/corina34_cracker 3.40 0067  02.08.2006

@<TRIPOS>MOLECULE
ASD02032028
  51   53    0    0    0
SMALL
NO_CHARGES


@<TRIPOS>ATOM
   1 C1             2.3027     0.9518     0.2832 C.ar    
   2 C2             3.1176     1.3602     1.3228 C.ar    
   3 C3             4.1668     0.5613     1.7345 C.ar    
   4 C4             4.4024    -0.6516     1.1037 C.ar    
   5 C5             3.5833    -1.0591     0.0608 C.ar    
   6 C6             2.5320    -0.2592    -0.3433 C.ar    
   7 O7             5.4342    -1.4391     1.5065 O.3     
   8 C8             1.1589     1.8253    -0.1638 C.3     
   9 C9             1.5691     2.6009    -1.4172 C.3     
  10 O10            0.0235     1.0093    -0.4588 O.3     
  11 N11            0.4118     3.3436    -1.9341 N.3     
  12 C12            2.6892     3.5821    -1.0660 C.3     
  13 C13            0.6959     3.9033    -3.2616 C.3     
  14 C14           -0.0035     4.3920    -0.9935 C.3     
  15 C15           -1.2936     5.0460    -1.4936 C.3     
  16 C16           -1.0512     5.6460    -2.8813 C.3     
  17 C17           -0.5733     4.5426    -3.8294 C.3     
  18 C18           -2.3536     6.2480    -3.4126 C.3     
  19 C19           -2.0873     6.9452    -4.7218 C.ar    
  20 C20           -2.1952     6.2481    -5.9105 C.ar    
  21 C21           -1.7407     8.2834    -4.7343 C.ar    
  22 C22           -1.4968     8.9232    -5.9356 C.ar    
  23 C23           -1.5998     8.2240    -7.1245 C.ar    
  24 C24           -1.9515     6.8875    -7.1118 C.ar    
  25 I25           -0.9722    10.9514    -5.9549 I       
  26 H26            2.9340     2.3048     1.8133 H       
  27 H27            4.8033     0.8810     2.5463 H       
  28 H28            3.7647    -2.0030    -0.4318 H       
  29 H29            1.8940    -0.5760    -1.1551 H       
  30 H30            5.1994    -2.0707     2.2001 H       
  31 H31            0.9054     2.5269     0.6310 H       
  32 H32            1.9220     1.9034    -2.1768 H       
  33 H33            0.1477     0.4217    -1.2167 H       
  34 H34            2.3364     4.2796    -0.3063 H       
  35 H35            3.5479     3.0311    -0.6825 H       
  36 H36            2.9815     4.1347    -1.9589 H       
  37 H37            1.4769     4.6590    -3.1776 H       
  38 H38            1.0307     3.1076    -3.9271 H       
  39 H39           -0.1766     3.9514    -0.0117 H       
  40 H40            0.7808     5.1455    -0.9201 H       
  41 H41           -2.0820     4.2958    -1.5541 H       
  42 H42           -1.5930     5.8347    -0.8034 H       
  43 H43           -0.2902     6.4234    -2.8142 H       
  44 H44           -0.3582     4.9717    -4.8080 H       
  45 H45           -1.3505     3.7846    -3.9266 H       
  46 H46           -3.0848     5.4543    -3.5658 H       
  47 H47           -2.7427     6.9663    -2.6910 H       
  48 H48           -2.4697     5.2036    -5.9008 H       
  49 H49           -1.6607     8.8292    -3.8057 H       
  50 H50           -1.4097     8.7235    -8.0630 H       
  51 H51           -2.0315     6.3414    -8.0402 H       
@<TRIPOS>BOND
   1    1    2 ar
   2    1    8 1
   3    1    6 ar
   4    2    3 ar
   5    2   26 1
   6    3    4 ar
   7    3   27 1
   8    4    5 ar
   9    4    7 1
  10    5    6 ar
  11    5   28 1
  12    6   29 1
  13    7   30 1
  14    8    9 1
  15    8   10 1
  16    8   31 1
  17    9   11 1
  18    9   12 1
  19    9   32 1
  20   10   33 1
  21   11   13 1
  22   11   14 1
  23   12   34 1
  24   12   35 1
  25   12   36 1
  26   13   17 1
  27   13   37 1
  28   13   38 1
  29   14   15 1
  30   14   39 1
  31   14   40 1
  32   15   16 1
  33   15   41 1
  34   15   42 1
  35   16   17 1
  36   16   18 1
  37   16   43 1
  38   17   44 1
  39   17   45 1
  40   18   19 1
  41   18   46 1
  42   18   47 1
  43   19   20 ar
  44   19   21 ar
  45   20   24 ar
  46   20   48 1
  47   21   22 ar
  48   21   49 1
  49   22   23 ar
  50   22   25 1
  51   23   24 ar
  52   23   50 1
  53   24   51 1

#	End of record

