#	Name: ASD01901118
#	Creating user name:	WinNT
#	Creation time:	15. 06. 2019 19:53

#	Modifying user name:	WinNT
#	Modification time:	15. 06. 2019 19:53

#	Program:	/corina/corina34_cracker 3.40 0067  02.08.2006

@<TRIPOS>MOLECULE
ASD01901118
  26   28    0    0    0
SMALL
NO_CHARGES


@<TRIPOS>ATOM
   1 C1            -0.0024     1.4130     0.3113 C.ar    
   2 C2             0.0327     0.0627     0.6241 C.ar    
   3 C3             1.2339    -0.6098     0.6758 C.ar    
   4 C4             2.3815     1.4397     0.0944 C.ar    
   5 C5             1.1648     2.1006     0.0473 C.ar    
   6 O6             3.6631     1.8224    -0.1090 O.3     
   7 C7             2.4217     0.0735     0.4110 C.ar    
   8 N8             3.7316    -0.2952     0.3811 N.2     
   9 C9             4.4549     0.7505     0.0719 C.2     
  10 N10            5.8272     0.7531    -0.0505 N.pl3   
  11 C11            6.5396    -0.4464     0.0420 C.ar    
  12 C12            6.6603    -2.8205    -0.2777 C.ar    
  13 C13            5.9543    -1.6368    -0.3697 C.ar    
  14 C14            7.8361    -0.4492     0.5403 C.ar    
  15 C15            8.5375    -1.6366     0.6299 C.ar    
  16 C16            7.9487    -2.8218     0.2235 C.ar    
  17 Cl17          10.1582    -1.6419     1.2519 Cl      
  18 H18           -0.9501     1.9293     0.2696 H       
  19 H19           -0.8871    -0.4650     0.8288 H       
  20 H20            1.2564    -1.6615     0.9206 H       
  21 H21            1.1297     3.1523    -0.1961 H       
  22 H22            6.2992     1.5871    -0.2008 H       
  23 H23            6.2051    -3.7462    -0.5975 H       
  24 H24            4.9477    -1.6370    -0.7610 H       
  25 H25            8.2956     0.4754     0.8571 H       
  26 H26            8.4985    -3.7486     0.2942 H       
@<TRIPOS>BOND
   1    1    2 ar
   2    1    5 ar
   3    1   18 1
   4    2    3 ar
   5    2   19 1
   6    3    7 ar
   7    3   20 1
   8    4    5 ar
   9    4    6 1
  10    4    7 ar
  11    5   21 1
  12    6    9 1
  13    7    8 1
  14    8    9 2
  15    9   10 1
  16   10   11 1
  17   10   22 1
  18   11   14 ar
  19   11   13 ar
  20   12   13 ar
  21   12   16 ar
  22   12   23 1
  23   13   24 1
  24   14   15 ar
  25   14   25 1
  26   15   16 ar
  27   15   17 1
  28   16   26 1

#	End of record

