#	Name: ASD07930645
#	Creating user name:	WinNT
#	Creation time:	15. 06. 2019 21:12

#	Modifying user name:	WinNT
#	Modification time:	15. 06. 2019 21:12

#	Program:	/corina/corina34_cracker 3.40 0067  02.08.2006

@<TRIPOS>MOLECULE
ASD07930645
  47   49    0    0    0
SMALL
NO_CHARGES


@<TRIPOS>ATOM
   1 C1            -0.5127     1.8669    -0.0947 C.3     
   2 N2             0.3664     0.1703    -2.3881 N.2     
   3 N3            -1.0815    -1.4139    -1.4631 N.pl3   
   4 C4            -0.9095    -2.4824    -0.4734 C.3     
   5 C5            -1.1958    -1.9252     0.9279 C.3     
   6 S6            -0.0979    -0.5009     1.2114 S.o2    
   7 N7            -0.3239     0.4157    -0.1617 N.am    
   8 C8            -0.3248    -0.2636    -1.3717 C.2     
   9 C9             0.5270    -3.0061    -0.5313 C.3     
  10 O10           -0.5889     0.3118     2.2686 O.2     
  11 O11            1.2658    -0.8965     1.1567 O.2     
  12 C12           -1.8681    -3.6057    -0.7738 C.ar    
  13 C13           -2.7984    -3.4671    -1.7849 C.ar    
  14 C14           -3.6817    -4.5027    -2.0614 C.ar    
  15 C15           -3.6271    -5.6755    -1.3200 C.ar    
  16 C16           -2.6949    -5.8099    -0.3094 C.ar    
  17 N17           -4.6248    -4.3644    -3.0843 N.am    
  18 S18           -4.8379    -5.5837    -4.1844 S.o2    
  19 C19           -3.3273    -5.7520    -5.0757 C.ar    
  20 C20           -2.3959    -6.6957    -4.6847 C.ar    
  21 C21           -1.2108    -6.8283    -5.3835 C.ar    
  22 C22           -0.9568    -6.0162    -6.4744 C.ar    
  23 C23           -1.8893    -5.0719    -6.8652 C.ar    
  24 C24           -3.0765    -4.9441    -6.1691 C.ar    
  25 Cl25           0.5318    -6.1817    -7.3522 Cl      
  26 O26           -4.9957    -6.7792    -3.4328 O.2     
  27 O27           -5.8042    -5.1185    -5.1167 O.2     
  28 C28           -1.8117    -4.7785    -0.0394 C.ar    
  29 F29           -0.8969    -4.9143     0.9454 F       
  30 H30            0.4562     2.3626    -0.1547 H       
  31 H31           -1.1386     2.1906    -0.9264 H       
  32 H32           -0.9964     2.1273     0.8468 H       
  33 H33            0.8931     0.9807    -2.3059 H       
  34 H34           -1.7233    -1.5173    -2.1831 H       
  35 H35           -2.2359    -1.6056     0.9908 H       
  36 H36           -1.0011    -2.6938     1.6758 H       
  37 H37            1.2192    -2.1932    -0.3119 H       
  38 H38            0.6542    -3.8001     0.2044 H       
  39 H39            0.7309    -3.3980    -1.5278 H       
  40 H40           -2.8393    -2.5539    -2.3601 H       
  41 H41           -4.3132    -6.4820    -1.5330 H       
  42 H42           -2.6520    -6.7219     0.2675 H       
  43 H43           -5.1541    -3.5542    -3.1496 H       
  44 H44           -2.5942    -7.3294    -3.8329 H       
  45 H45           -0.4830    -7.5653    -5.0777 H       
  46 H46           -1.6916    -4.4377    -7.7168 H       
  47 H47           -3.8046    -4.2070    -6.4741 H       
@<TRIPOS>BOND
   1    1    7 1
   2    1   30 1
   3    1   31 1
   4    1   32 1
   5    2    8 2
   6    2   33 1
   7    3    4 1
   8    3    8 1
   9    3   34 1
  10    4    5 1
  11    4    9 1
  12    4   12 1
  13    5    6 1
  14    5   35 1
  15    5   36 1
  16    6    7 am
  17    6   10 2
  18    6   11 2
  19    7    8 1
  20    9   37 1
  21    9   38 1
  22    9   39 1
  23   12   28 ar
  24   12   13 ar
  25   13   14 ar
  26   13   40 1
  27   14   15 ar
  28   14   17 1
  29   15   16 ar
  30   15   41 1
  31   16   28 ar
  32   16   42 1
  33   17   18 am
  34   17   43 1
  35   18   19 1
  36   18   26 2
  37   18   27 2
  38   19   20 ar
  39   19   24 ar
  40   20   21 ar
  41   20   44 1
  42   21   22 ar
  43   21   45 1
  44   22   23 ar
  45   22   25 1
  46   23   24 ar
  47   23   46 1
  48   24   47 1
  49   28   29 1

#	End of record

