#	Name: ASD01530065
#	Creating user name:	WinNT
#	Creation time:	15. 06. 2019 19:22

#	Modifying user name:	WinNT
#	Modification time:	15. 06. 2019 19:22

#	Program:	/corina/corina34_cracker 3.40 0067  02.08.2006

@<TRIPOS>MOLECULE
ASD01530065
  51   54    0    0    0
SMALL
NO_CHARGES


@<TRIPOS>ATOM
   1 C1            -0.1088     1.8134     0.2438 C.ar    
   2 C2            -0.2472     0.4289     0.3713 C.ar    
   3 C3             0.8888    -0.3827     0.3760 C.ar    
   4 C4             2.1408     0.1858     0.2548 C.ar    
   5 C5             1.1456     2.3674     0.1238 C.ar    
   6 C6             1.6231     3.7932    -0.0262 C.3     
   7 C7             2.2709     1.5549     0.1296 C.ar    
   8 C8             3.4747     2.4570    -0.0175 C.3     
   9 O9             3.0205     3.7808     0.3182 O.3     
  10 C10            4.5816     2.0199     0.9440 C.3     
  11 C11            5.7594     2.9910     0.8411 C.3     
  12 C12            6.8663     2.5539     1.8026 C.3     
  13 N13            7.9972     3.4863     1.7039 N.3     
  14 C14            7.6219     4.8219     2.1870 C.3     
  15 C15            9.1672     2.9736     2.4292 C.3     
  16 C16           -1.5486    -0.1550     0.4971 C.1     
  17 N17           -2.5810    -0.6183     0.5969 N.1     
  18 C18            3.9770     2.4249    -1.4379 C.ar    
  19 C19            4.5246     1.2437    -1.9670 C.ar    
  20 C20            3.8976     3.5381    -2.2168 C.ar    
  21 C21            4.3566     3.5273    -3.5328 C.ar    
  22 C22            4.8974     2.4033    -4.0771 C.ar    
  23 C23            4.9914     1.2327    -3.3051 C.ar    
  24 C24            5.5396     0.0517    -3.8338 C.ar    
  25 C25            5.6148    -1.0628    -3.0563 C.ar    
  26 C26            5.1552    -1.0521    -1.7406 C.ar    
  27 C27            4.6187     0.0732    -1.1948 C.ar    
  28 H28           -0.9836     2.4466     0.2350 H       
  29 H29            0.7882    -1.4535     0.4746 H       
  30 H30            3.0201    -0.4412     0.2583 H       
  31 H31            1.4931     4.1265    -1.0558 H       
  32 H32            1.0748     4.4463     0.6527 H       
  33 H33            4.1980     2.0208     1.9643 H       
  34 H34            4.9148     1.0156     0.6820 H       
  35 H35            6.1430     2.9901    -0.1791 H       
  36 H36            5.4262     3.9952     1.1031 H       
  37 H37            6.4827     2.5548     2.8229 H       
  38 H38            7.1995     1.5497     1.5406 H       
  39 H39            7.3123     4.7573     3.2301 H       
  40 H40            8.4773     5.4923     2.1027 H       
  41 H41            6.7978     5.2072     1.5866 H       
  42 H42            9.4664     2.0152     2.0050 H       
  43 H43            9.9897     3.6832     2.3398 H       
  44 H44            8.9135     2.8420     3.4811 H       
  45 H45            3.4723     4.4433    -1.8092 H       
  46 H46            4.2815     4.4243    -4.1296 H       
  47 H47            5.2486     2.4096    -5.0984 H       
  48 H48            5.8991     0.0285    -4.8520 H       
  49 H49            6.0365    -1.9691    -3.4651 H       
  50 H50            5.2258    -1.9504    -1.1452 H       
  51 H51            4.2666     0.0667    -0.1738 H       
@<TRIPOS>BOND
   1    1    2 ar
   2    1    5 ar
   3    1   28 1
   4    2    3 ar
   5    2   16 1
   6    3    4 ar
   7    3   29 1
   8    4    7 ar
   9    4   30 1
  10    5    7 ar
  11    5    6 1
  12    6    9 1
  13    6   31 1
  14    6   32 1
  15    7    8 1
  16    8    9 1
  17    8   10 1
  18    8   18 1
  19   10   11 1
  20   10   33 1
  21   10   34 1
  22   11   12 1
  23   11   35 1
  24   11   36 1
  25   12   13 1
  26   12   37 1
  27   12   38 1
  28   13   14 1
  29   13   15 1
  30   14   39 1
  31   14   40 1
  32   14   41 1
  33   15   42 1
  34   15   43 1
  35   15   44 1
  36   16   17 3
  37   18   20 ar
  38   18   19 ar
  39   19   23 ar
  40   19   27 ar
  41   20   21 ar
  42   20   45 1
  43   21   22 ar
  44   21   46 1
  45   22   23 ar
  46   22   47 1
  47   23   24 ar
  48   24   25 ar
  49   24   48 1
  50   25   26 ar
  51   25   49 1
  52   26   27 ar
  53   26   50 1
  54   27   51 1

#	End of record

