#	Name: ASD02198382
#	Creating user name:	WinNT
#	Creation time:	15. 06. 2019 20:19

#	Modifying user name:	WinNT
#	Modification time:	15. 06. 2019 20:19

#	Program:	/corina/corina34_cracker 3.40 0067  02.08.2006

@<TRIPOS>MOLECULE
ASD02198382
  32   34    0    0    0
SMALL
NO_CHARGES


@<TRIPOS>ATOM
   1 C1             0.6049    -1.9851    -4.3225 C.2     
   2 C2             1.3584    -3.0106    -3.9176 C.2     
   3 S3             0.9292    -0.5810    -3.3142 S.3     
   4 C4             2.1033    -1.4905    -2.3721 C.2     
   5 C5             2.1853    -2.7365    -2.8407 C.2     
   6 S6             3.0306    -0.8526    -1.0165 S.o2    
   7 N7             4.4920    -0.3530    -1.6141 N.am    
   8 C8             4.5452     0.6676    -2.5626 C.ar    
   9 C9             4.0485     1.9531    -2.2533 C.ar    
  10 C10            4.1159     2.9709    -3.2357 C.ar    
  11 C11            4.6711     2.6889    -4.4942 C.ar    
  12 C12            5.1419     1.4398    -4.7645 C.ar    
  13 C13            5.0879     0.4315    -3.8070 C.ar    
  14 N14            3.5201     2.2177    -1.0556 N.ar    
  15 C15            3.0572     3.4087    -0.7627 C.ar    
  16 C16            3.0922     4.4548    -1.6824 C.ar    
  17 C17            3.6202     4.2519    -2.9254 C.ar    
  18 O18            2.3530     0.3186    -0.5825 O.2     
  19 O19            3.3023    -1.9550    -0.1620 O.2     
  20 Cl20           1.3051    -4.5683    -4.6821 Cl      
  21 C21            5.6183    -0.9394    -4.1394 C.3     
  22 Cl22          -0.5174    -2.0289    -5.6462 Cl      
  23 H23            2.8461    -3.4758    -2.4127 H       
  24 H24            5.3110    -0.7703    -1.3044 H       
  25 H25            4.7245     3.4615    -5.2470 H       
  26 H26            5.5673     1.2299    -5.7348 H       
  27 H27            2.6374     3.5835     0.2169 H       
  28 H28            2.7025     5.4252    -1.4125 H       
  29 H29            3.6557     5.0514    -3.6506 H       
  30 H30            6.6748    -0.9938    -3.8765 H       
  31 H31            5.0644    -1.6899    -3.5754 H       
  32 H32            5.4995    -1.1260    -5.2067 H       
@<TRIPOS>BOND
   1    1    2 2
   2    1    3 1
   3    1   22 1
   4    2   20 1
   5    2    5 1
   6    3    4 1
   7    4    5 2
   8    4    6 1
   9    5   23 1
  10    6    7 am
  11    6   18 2
  12    6   19 2
  13    7    8 1
  14    7   24 1
  15    8    9 ar
  16    8   13 ar
  17    9   10 ar
  18    9   14 ar
  19   10   11 ar
  20   10   17 ar
  21   11   12 ar
  22   11   25 1
  23   12   13 ar
  24   12   26 1
  25   13   21 1
  26   14   15 ar
  27   15   16 ar
  28   15   27 1
  29   16   17 ar
  30   16   28 1
  31   17   29 1
  32   21   30 1
  33   21   31 1
  34   21   32 1

#	End of record

