#	Name: ASD04930009
#	Creating user name:	WinNT
#	Creation time:	15. 06. 2019 20:56

#	Modifying user name:	WinNT
#	Modification time:	15. 06. 2019 20:56

#	Program:	/corina/corina34_cracker 3.40 0067  02.08.2006

@<TRIPOS>MOLECULE
ASD04930009
  60   61    0    0    0
SMALL
NO_CHARGES


@<TRIPOS>ATOM
   1 C1            -1.2162    -0.9364    -2.2200 C.ar    
   2 C2            -0.5455    -1.0625    -1.0104 C.ar    
   3 C3            -1.1015    -0.5808     0.1547 C.ar    
   4 C4            -2.3470     0.0400     0.1281 C.ar    
   5 C5            -3.0271     0.1689    -1.0960 C.ar    
   6 C6            -2.4469    -0.3208    -2.2716 C.ar    
   7 N7            -2.9061     0.5229     1.2942 N.am    
   8 C8            -4.1061     1.1274     1.3053 C.2     
   9 C9            -4.8724     1.2980     0.0717 C.2     
  10 C10           -4.3397     0.8224    -1.1288 C.2     
  11 O11           -5.0156     0.9599    -2.2885 O.3     
  12 O12           -4.5619     1.5387     2.3575 O.2     
  13 C13           -6.1831     1.9591     0.0946 C.2     
  14 N14           -7.3098     1.2247     0.0074 N.am    
  15 O15           -6.2521     3.1699     0.1923 O.2     
  16 N16           -8.5604     1.8424     0.1391 N.am    
  17 C17           -9.6872     1.1080     0.0519 C.2     
  18 C18          -11.0324     1.7724     0.1936 C.3     
  19 O19           -9.6185    -0.0874    -0.1405 O.2     
  20 C20          -12.1368     0.7225     0.0555 C.3     
  21 C21          -13.5025     1.3970     0.1993 C.3     
  22 C22          -14.6069     0.3472     0.0612 C.3     
  23 C23          -15.9726     1.0217     0.2051 C.3     
  24 C24          -17.0770    -0.0282     0.0670 C.3     
  25 C25          -18.4428     0.6463     0.2108 C.3     
  26 C26          -19.5471    -0.4035     0.0727 C.3     
  27 C27          -20.9129     0.2710     0.2165 C.3     
  28 C28          -22.0172    -0.7789     0.0784 C.3     
  29 C29          -23.3830    -0.1044     0.2222 C.3     
  30 Cl30          -0.4963    -1.5515    -3.6750 Cl      
  31 H31            0.4212    -1.5432    -0.9826 H       
  32 H32           -0.5707    -0.6854     1.0893 H       
  33 H33           -2.9658    -0.2239    -3.2138 H       
  34 H34           -2.4201     0.4229     2.1277 H       
  35 H35           -5.9022     1.3320    -2.1853 H       
  36 H36           -7.2549     0.2686    -0.1465 H       
  37 H37           -8.6153     2.7985     0.2931 H       
  38 H38          -11.1022     2.2465     1.1726 H       
  39 H39          -11.1488     2.5267    -0.5845 H       
  40 H40          -12.0670     0.2484    -0.9235 H       
  41 H41          -12.0203    -0.0318     0.8337 H       
  42 H42          -13.5723     1.8712     1.1783 H       
  43 H43          -13.6190     2.1514    -0.5788 H       
  44 H44          -14.5371    -0.1270    -0.9178 H       
  45 H45          -14.4905    -0.4072     0.8394 H       
  46 H46          -16.0424     1.4958     1.1841 H       
  47 H47          -16.0891     1.7760    -0.5731 H       
  48 H48          -17.0072    -0.5023    -0.9120 H       
  49 H49          -16.9606    -0.7825     0.8451 H       
  50 H50          -18.5125     1.1205     1.1898 H       
  51 H51          -18.5592     1.4007    -0.5674 H       
  52 H52          -19.4774    -0.8777    -0.9063 H       
  53 H53          -19.4307    -1.1579     0.8508 H       
  54 H54          -20.9827     0.7451     1.1955 H       
  55 H55          -21.0293     1.0253    -0.5616 H       
  56 H56          -21.9475    -1.2530    -0.9006 H       
  57 H57          -21.9008    -1.5332     0.8566 H       
  58 H58          -23.4528     0.3697     1.2012 H       
  59 H59          -23.4994     0.6499    -0.5559 H       
  60 H60          -24.1698    -0.8523     0.1239 H       
@<TRIPOS>BOND
   1    1    2 ar
   2    1   30 1
   3    1    6 ar
   4    2    3 ar
   5    2   31 1
   6    3    4 ar
   7    3   32 1
   8    4    5 ar
   9    4    7 1
  10    5    6 ar
  11    5   10 1
  12    6   33 1
  13    7    8 am
  14    7   34 1
  15    8    9 1
  16    8   12 2
  17    9   10 2
  18    9   13 1
  19   10   11 1
  20   11   35 1
  21   13   14 am
  22   13   15 2
  23   14   16 1
  24   14   36 1
  25   16   17 am
  26   16   37 1
  27   17   18 1
  28   17   19 2
  29   18   20 1
  30   18   38 1
  31   18   39 1
  32   20   21 1
  33   20   40 1
  34   20   41 1
  35   21   22 1
  36   21   42 1
  37   21   43 1
  38   22   23 1
  39   22   44 1
  40   22   45 1
  41   23   24 1
  42   23   46 1
  43   23   47 1
  44   24   25 1
  45   24   48 1
  46   24   49 1
  47   25   26 1
  48   25   50 1
  49   25   51 1
  50   26   27 1
  51   26   52 1
  52   26   53 1
  53   27   28 1
  54   27   54 1
  55   27   55 1
  56   28   29 1
  57   28   56 1
  58   28   57 1
  59   29   58 1
  60   29   59 1
  61   29   60 1

#	End of record

