#	Name: ASD01816427
#	Creating user name:	WinNT
#	Creation time:	15. 06. 2019 19:35

#	Modifying user name:	WinNT
#	Modification time:	15. 06. 2019 19:35

#	Program:	/corina/corina34_cracker 3.40 0067  02.08.2006

@<TRIPOS>MOLECULE
ASD01816427
  51   56    0    0    0
SMALL
NO_CHARGES


@<TRIPOS>ATOM
   1 C1            -0.0167     1.3813     0.0096 C.ar    
   2 C2             0.0021    -0.0041     0.0020 C.ar    
   3 C3             1.1984    -0.6909    -0.0126 C.ar    
   4 C4             2.4015     0.0059    -0.0203 C.ar    
   5 C5             2.3790     1.4106    -0.0130 C.ar    
   6 C6             1.1663     2.0916     0.0022 C.ar    
   7 N7             3.6053    -0.6772    -0.0345 N.pl3   
   8 C8             4.7970    -0.0586    -0.0425 C.2     
   9 C9             4.9000     1.3103    -0.0366 C.2     
  10 C10            3.6670     2.1302    -0.0215 C.2     
  11 C11            5.9971     2.2730    -0.0424 C.2     
  12 N12            5.4245     3.4961    -0.0316 N.am    
  13 N13            4.0323     3.3799    -0.0192 N.2     
  14 C14            6.1243     4.7046    -0.0322 C.ar    
  15 O15            7.1913     2.0230    -0.0542 O.2     
  16 C16            3.5779    -2.1419    -0.0406 C.3     
  17 C17            3.5553    -2.6380    -1.4634 C.ar    
  18 C18            4.7430    -2.8875    -2.1262 C.ar    
  19 C19            4.7254    -3.3417    -3.4304 C.ar    
  20 C20            3.5137    -3.5483    -4.0758 C.ar    
  21 C21            2.3228    -3.2973    -3.4076 C.ar    
  22 C22            2.3467    -2.8481    -2.1017 C.ar    
  23 N23            3.4927    -4.0089    -5.3997 N.pl3   
  24 C24            2.3877    -4.2503    -6.1408 C.2     
  25 C25            2.7941    -4.6801    -7.3579 C.2     
  26 C26            4.1931    -4.7025    -7.3618 C.2     
  27 N27            4.6127    -4.2947    -6.1911 N.2     
  28 C28            5.4228     5.9100    -0.0203 C.ar    
  29 N29            7.4473     4.6967    -0.0385 N.ar    
  30 C30            8.1471     5.8150    -0.0389 C.ar    
  31 C31            7.5200     7.0456    -0.0327 C.ar    
  32 C32            6.1335     7.1025    -0.0206 C.ar    
  33 O33            4.0632     5.9170    -0.0090 O.3     
  34 H34           -0.9602     1.9068     0.0169 H       
  35 H35           -0.9289    -0.5515     0.0079 H       
  36 H36            1.2004    -1.7709    -0.0177 H       
  37 H37            1.1506     3.1715     0.0077 H       
  38 H38            5.6983    -0.6536    -0.0535 H       
  39 H39            4.4657    -2.5240     0.4633 H       
  40 H40            2.6861    -2.4908     0.4801 H       
  41 H41            5.6853    -2.7266    -1.6236 H       
  42 H42            5.6534    -3.5358    -3.9477 H       
  43 H43            1.3787    -3.4567    -3.9073 H       
  44 H44            1.4207    -2.6527    -1.5814 H       
  45 H45            1.3646    -4.1235    -5.8190 H       
  46 H46            2.1520    -4.9571    -8.1809 H       
  47 H47            4.8191    -5.0005    -8.1899 H       
  48 H48            9.2261     5.7677    -0.0438 H       
  49 H49            8.1030     7.9547    -0.0327 H       
  50 H50            5.6194     8.0523    -0.0156 H       
  51 H51            3.6773     5.9146     0.8776 H       
@<TRIPOS>BOND
   1    1    2 ar
   2    1    6 ar
   3    1   34 1
   4    2    3 ar
   5    2   35 1
   6    3    4 ar
   7    3   36 1
   8    4    5 ar
   9    4    7 1
  10    5    6 ar
  11    5   10 1
  12    6   37 1
  13    7    8 1
  14    7   16 1
  15    8    9 2
  16    8   38 1
  17    9   10 1
  18    9   11 1
  19   10   13 2
  20   11   12 am
  21   11   15 2
  22   12   13 1
  23   12   14 1
  24   14   28 ar
  25   14   29 ar
  26   16   17 1
  27   16   39 1
  28   16   40 1
  29   17   18 ar
  30   17   22 ar
  31   18   19 ar
  32   18   41 1
  33   19   20 ar
  34   19   42 1
  35   20   21 ar
  36   20   23 1
  37   21   22 ar
  38   21   43 1
  39   22   44 1
  40   23   24 1
  41   23   27 1
  42   24   25 2
  43   24   45 1
  44   25   26 1
  45   25   46 1
  46   26   27 2
  47   26   47 1
  48   28   33 1
  49   28   32 ar
  50   29   30 ar
  51   30   31 ar
  52   30   48 1
  53   31   32 ar
  54   31   49 1
  55   32   50 1
  56   33   51 1

#	End of record

