#	Name: ASD09890100
#	Creating user name:	WinNT
#	Creation time:	15. 06. 2019 21:24

#	Modifying user name:	WinNT
#	Modification time:	15. 06. 2019 21:24

#	Program:	/corina/corina34_cracker 3.40 0067  02.08.2006

@<TRIPOS>MOLECULE
ASD09890100
  54   58    0    0    0
SMALL
NO_CHARGES


@<TRIPOS>ATOM
   1 C1             0.0144     1.3503    -0.2064 C.2     
   2 N2             0.0112    -0.0071    -0.0655 N.pl3   
   3 C3            -1.2533    -0.4295    -0.4055 C.2     
   4 N4            -1.9778     0.6847    -0.7420 N.2     
   5 N5            -1.2337     1.7269    -0.6191 N.2     
   6 S6            -1.8171    -2.0460    -0.4084 S.3     
   7 C7            -3.5228    -1.7830    -0.9537 C.3     
   8 C8             1.0843    -0.8120     0.3446 C.ar    
   9 C9             1.6014    -0.6973     1.6317 C.ar    
  10 C10            2.6617    -1.5140     1.9904 C.ar    
  11 C11            3.1673    -2.4087     1.0661 C.ar    
  12 N12            2.6545    -2.4927    -0.1461 N.ar    
  13 C13            1.6424    -1.7386    -0.5256 C.ar    
  14 C14           -4.2254    -3.1366    -1.1584 C.3     
  15 C15           -5.4219    -3.1638    -0.1850 C.3     
  16 C16           -5.7289    -1.6692     0.0813 C.3     
  17 C17           -4.3169    -1.0349     0.1369 C.3     
  18 O18            0.9631     2.0975     0.0041 O.3     
  19 C19            0.7308     3.4277    -0.0916 C.ar    
  20 C20            0.0621     4.0934     0.9345 C.ar    
  21 C21           -0.1744     5.4457     0.8388 C.ar    
  22 C22            0.2560     6.1514    -0.2873 C.ar    
  23 C23            0.9261     5.4829    -1.3147 C.ar    
  24 C24            1.1657     4.1315    -1.2137 C.ar    
  25 C25            0.0018     7.6071    -0.3921 C.ar    
  26 C26            0.4309     8.3140    -1.5160 C.ar    
  27 C27            0.1907     9.6693    -1.6079 C.ar    
  28 C28           -0.4738    10.3279    -0.5882 C.ar    
  29 C29           -0.9014     9.6325     0.5291 C.ar    
  30 C30           -0.6727     8.2758     0.6300 C.ar    
  31 N31           -0.7279    11.7829    -0.6930 N.pl3   
  32 O32           -0.3218    12.4475    -1.7550 O.2     
  33 O33           -1.3600    12.4124     0.2758 O.2     
  34 H34           -3.5339    -1.2124    -1.8823 H       
  35 H35            1.1867     0.0112     2.3335 H       
  36 H36            3.0884    -1.4519     2.9806 H       
  37 H37            3.9940    -3.0474     1.3401 H       
  38 H38            1.2492    -1.8360    -1.5268 H       
  39 H39           -4.5782    -3.2226    -2.1862 H       
  40 H40           -3.5391    -3.9519    -0.9294 H       
  41 H41           -6.2791    -3.6527    -0.6478 H       
  42 H42           -5.1483    -3.6681     0.7418 H       
  43 H43           -6.3119    -1.2431    -0.7352 H       
  44 H44           -6.2461    -1.5446     1.0327 H       
  45 H45           -3.8649    -1.1953     1.1157 H       
  46 H46           -4.3678     0.0299    -0.0909 H       
  47 H47           -0.2709     3.5475     1.8048 H       
  48 H48           -0.6929     5.9611     1.6338 H       
  49 H49            1.2595     6.0271    -2.1860 H       
  50 H50            1.6837     3.6143    -2.0078 H       
  51 H51            0.9502     7.8012    -2.3121 H       
  52 H52            0.5223    10.2176    -2.4773 H       
  53 H53           -1.4191    10.1521     1.3218 H       
  54 H54           -1.0072     7.7340     1.5024 H       
@<TRIPOS>BOND
   1    1    2 1
   2    1   18 1
   3    1    5 2
   4    2    3 1
   5    2    8 1
   6    3    4 2
   7    3    6 1
   8    4    5 1
   9    6    7 1
  10    7   14 1
  11    7   17 1
  12    7   34 1
  13    8    9 ar
  14    8   13 ar
  15    9   10 ar
  16    9   35 1
  17   10   11 ar
  18   10   36 1
  19   11   12 ar
  20   11   37 1
  21   12   13 ar
  22   13   38 1
  23   14   15 1
  24   14   39 1
  25   14   40 1
  26   15   16 1
  27   15   41 1
  28   15   42 1
  29   16   17 1
  30   16   43 1
  31   16   44 1
  32   17   45 1
  33   17   46 1
  34   18   19 1
  35   19   20 ar
  36   19   24 ar
  37   20   21 ar
  38   20   47 1
  39   21   22 ar
  40   21   48 1
  41   22   23 ar
  42   22   25 1
  43   23   24 ar
  44   23   49 1
  45   24   50 1
  46   25   26 ar
  47   25   30 ar
  48   26   27 ar
  49   26   51 1
  50   27   28 ar
  51   27   52 1
  52   28   29 ar
  53   28   31 1
  54   29   30 ar
  55   29   53 1
  56   30   54 1
  57   31   32 2
  58   31   33 2

#	End of record

