#	Name: ASD01882213
#	Creating user name:	WinNT
#	Creation time:	15. 06. 2019 19:44

#	Modifying user name:	WinNT
#	Modification time:	15. 06. 2019 19:44

#	Program:	/corina/corina34_cracker 3.40 0067  02.08.2006

@<TRIPOS>MOLECULE
ASD01882213
  38   40    0    0    0
SMALL
NO_CHARGES


@<TRIPOS>ATOM
   1 N1            -0.0168     1.3864     0.0097 N.pl3   
   2 C2             0.0021    -0.0041     0.0020 C.ar    
   3 C3             1.2206    -0.6777    -0.0132 C.ar    
   4 C4             1.2240    -2.0615    -0.0202 C.ar    
   5 C5             0.0051    -2.7271    -0.0117 C.ar    
   6 C6            -1.1649    -1.9953     0.0034 C.ar    
   7 N7            -1.1385    -0.6757     0.0148 N.ar    
   8 C8             2.5209    -2.8288    -0.0372 C.3     
   9 N9             3.0786    -2.8780     1.3209 N.3     
  10 C10            4.2114    -3.8114     1.3916 C.3     
  11 C11            4.8126    -3.7742     2.7986 C.3     
  12 N12            3.7784    -4.1305     3.7800 N.3     
  13 C13            2.6456    -3.1970     3.7093 C.3     
  14 C14            2.0444    -3.2342     2.3023 C.3     
  15 C15            4.3038    -4.1768     5.0596 C.ar    
  16 N16            3.5091    -4.4839     6.0743 N.ar    
  17 C17            3.9794    -4.5368     7.3095 C.ar    
  18 C18            5.3201    -4.2665     7.5347 C.ar    
  19 C19            6.1231    -3.9487     6.4506 C.ar    
  20 N20            5.5907    -3.9184     5.2401 N.ar    
  21 Cl21           2.7148     0.2061    -0.0239 Cl      
  22 H22            0.8166     1.8828     0.0044 H       
  23 H23           -0.8633     1.8600     0.0163 H       
  24 H24           -0.0269    -3.8066    -0.0172 H       
  25 H25           -2.1147    -2.5093     0.0100 H       
  26 H26            2.3383    -3.8431    -0.3920 H       
  27 H27            3.2278    -2.3329    -0.7025 H       
  28 H28            3.8650    -4.8210     1.1707 H       
  29 H29            4.9692    -3.5194     0.6645 H       
  30 H30            5.6348    -4.4871     2.8617 H       
  31 H31            5.1836    -2.7712     3.0091 H       
  32 H32            1.8878    -3.4890     4.4364 H       
  33 H33            2.9920    -2.1874     3.9302 H       
  34 H34            1.2222    -2.5213     2.2392 H       
  35 H35            1.6734    -4.2373     2.0918 H       
  36 H36            3.3267    -4.7873     8.1326 H       
  37 H37            5.7300    -4.3023     8.5332 H       
  38 H38            7.1718    -3.7324     6.5920 H       
@<TRIPOS>BOND
   1    1    2 1
   2    1   22 1
   3    1   23 1
   4    2    3 ar
   5    2    7 ar
   6    3    4 ar
   7    3   21 1
   8    4    5 ar
   9    4    8 1
  10    5    6 ar
  11    5   24 1
  12    6    7 ar
  13    6   25 1
  14    8    9 1
  15    8   26 1
  16    8   27 1
  17    9   10 1
  18    9   14 1
  19   10   11 1
  20   10   28 1
  21   10   29 1
  22   11   12 1
  23   11   30 1
  24   11   31 1
  25   12   13 1
  26   12   15 1
  27   13   14 1
  28   13   32 1
  29   13   33 1
  30   14   34 1
  31   14   35 1
  32   15   16 ar
  33   15   20 ar
  34   16   17 ar
  35   17   18 ar
  36   17   36 1
  37   18   19 ar
  38   18   37 1
  39   19   20 ar
  40   19   38 1

#	End of record

