#	Name: ASD03930180
#	Creating user name:	WinNT
#	Creation time:	15. 06. 2019 20:47

#	Modifying user name:	WinNT
#	Modification time:	15. 06. 2019 20:47

#	Program:	/corina/corina34_cracker 3.40 0067  02.08.2006

@<TRIPOS>MOLECULE
ASD03930180
  27   27    0    0    0
SMALL
NO_CHARGES


@<TRIPOS>ATOM
   1 C1            -0.0167     1.3833     0.0096 C.ar    
   2 C2             0.0021    -0.0041     0.0020 C.ar    
   3 C3             1.2136    -0.6792    -0.0132 C.ar    
   4 C4             2.3989     0.0306    -0.0207 C.ar    
   5 C5             2.3779     1.4137    -0.0131 C.ar    
   6 C6             1.1704     2.0891     0.0021 C.ar    
   7 S7            -1.5541     2.2440     0.0216 S.o2    
   8 O8            -2.3403     1.6470     1.0437 O.2     
   9 O9            -1.2386     3.6293    -0.0071 O.2     
  10 N10           -2.3152     1.9080    -1.4102 N.am    
  11 O11           -1.1651    -0.7005     0.0099 O.3     
  12 C12           -1.0698    -2.1263     0.0013 C.3     
  13 C13           -2.7453     0.5395    -1.7076 C.3     
  14 C14           -3.7287     0.5573    -2.8796 C.3     
  15 Cl15          -4.2580    -1.1269    -3.2456 Cl      
  16 Br16           4.0018     2.3826    -0.0227 Br      
  17 H17            1.2304    -1.7591    -0.0188 H       
  18 H18            3.3425    -0.4947    -0.0322 H       
  19 H19            1.1562     3.1690     0.0080 H       
  20 H20           -2.4763     2.6173    -2.0520 H       
  21 H21           -0.5417    -2.4498    -0.8957 H       
  22 H22           -0.5241    -2.4593     0.8841 H       
  23 H23           -2.0709    -2.5574     0.0089 H       
  24 H24           -1.8773    -0.0650    -1.9709 H       
  25 H25           -3.2326     0.1131    -0.8308 H       
  26 H26           -4.5967     1.1618    -2.6164 H       
  27 H27           -3.2414     0.9837    -3.7564 H       
@<TRIPOS>BOND
   1    1    2 ar
   2    1    6 ar
   3    1    7 1
   4    2    3 ar
   5    2   11 1
   6    3    4 ar
   7    3   17 1
   8    4    5 ar
   9    4   18 1
  10    5    6 ar
  11    5   16 1
  12    6   19 1
  13    7    8 2
  14    7    9 2
  15    7   10 am
  16   10   13 1
  17   10   20 1
  18   11   12 1
  19   12   21 1
  20   12   22 1
  21   12   23 1
  22   13   14 1
  23   13   24 1
  24   13   25 1
  25   14   15 1
  26   14   26 1
  27   14   27 1

#	End of record

