#	Name: ASD06610037
#	Creating user name:	WinNT
#	Creation time:	15. 06. 2019 21:07

#	Modifying user name:	WinNT
#	Modification time:	15. 06. 2019 21:07

#	Program:	/corina/corina34_cracker 3.40 0067  02.08.2006

@<TRIPOS>MOLECULE
ASD06610037
 291  291    0    0    0
SMALL
NO_CHARGES


@<TRIPOS>ATOM
   1 C1             0.3444     0.8478     2.1665 C.2     
   2 O2             0.3889    -0.3207     2.4884 O.2     
   3 N3             2.7681     0.7553     2.2432 N.am    
   4 C4             1.6206     1.6270     1.9794 C.3     
   5 C5             1.6948     2.1469     0.5424 C.3     
   6 O6             1.5562     1.0537    -0.3674 O.3     
   7 C7            -3.1814     1.3168     1.3225 C.2     
   8 O8            -2.9481     2.3016     0.6541 O.2     
   9 N9            -0.8464     1.4479     1.9705 N.am    
  10 C10           -2.0870     0.6887     2.1465 C.3     
  11 C11           -2.4883     0.7025     3.6228 C.3     
  12 O12           -2.8037     2.0390     4.0183 O.3     
  13 C13           -6.8226     1.0570     1.1301 C.2     
  14 O14           -6.8825     0.3736     2.1302 O.2     
  15 N15           -4.4194     0.7842     1.3284 N.am    
  16 C16           -5.4833     1.3947     0.5274 C.3     
  17 C17           -5.4175     0.8563    -0.9033 C.3     
  18 C18           -4.1095     1.3057    -1.5576 C.3     
  19 C19           -4.0437     0.7673    -2.9883 C.3     
  20 N20           -2.7913     1.1976    -3.6148 N.pl3   
  21 C21           -2.5092     0.8314    -4.9096 C.2     
  22 N22           -1.3950     1.2142    -5.4671 N.2     
  23 N23           -3.4024     0.0615    -5.6164 N.pl3   
  24 C24          -10.3176     1.2504     0.0761 C.2     
  25 O25          -10.0164     1.5417    -1.0620 O.2     
  26 N26           -7.9538     1.5144     0.5577 N.am    
  27 C27           -9.2558     1.1862     1.1436 C.3     
  28 C28           -9.5844     2.1896     2.2508 C.3     
  29 C29           -8.5770     2.0377     3.3923 C.3     
  30 C30           -8.9006     3.0261     4.4828 C.2     
  31 O31           -9.8406     3.7752     4.3598 O.2     
  32 O32           -8.1446     3.0742     5.5910 O.3     
  33 C33          -13.9713     1.3229    -0.0139 C.2     
  34 O34          -14.0540     1.4547     1.1889 O.2     
  35 N35          -11.6019     0.9841     0.3862 N.am    
  36 C36          -12.6341     1.0465    -0.6515 C.3     
  37 C37          -12.6903    -0.2889    -1.3960 C.3     
  38 C38          -11.3752    -0.5105    -2.1459 C.3     
  39 C39          -11.4314    -1.8460    -2.8904 C.3     
  40 C40          -10.1164    -2.0675    -3.6404 C.3     
  41 N41          -10.1703    -3.3498    -4.3551 N.3     
  42 C42          -17.4736     1.1689    -1.0499 C.2     
  43 O43          -17.1977     0.6251    -2.0982 O.2     
  44 N44          -15.0754     1.4236    -0.7803 N.am    
  45 C45          -16.3753     1.6922    -0.1605 C.3     
  46 C46          -16.5479     3.2006     0.0292 C.3     
  47 C47          -15.5091     3.7108     1.0300 C.3     
  48 C48          -15.6817     5.2192     1.2197 C.3     
  49 N49          -14.6871     5.7078     2.1780 N.pl3   
  50 C50          -14.6486     7.0416     2.5089 C.2     
  51 N51          -13.7637     7.4763     3.3614 N.2     
  52 N52          -15.5435     7.9169     1.9405 N.pl3   
  53 C53          -21.1011     1.5605    -1.2761 C.2     
  54 O54          -21.1137     2.4430    -0.4443 O.2     
  55 N55          -18.7625     1.3052    -0.6802 N.am    
  56 C56          -19.8302     0.7965    -1.5448 C.3     
  57 C57          -20.0570    -0.6886    -1.2551 C.3     
  58 C58          -18.8078    -1.4810    -1.6456 C.3     
  59 C59          -19.0345    -2.9661    -1.3559 C.3     
  60 N60          -17.8384    -3.7248    -1.7299 N.pl3   
  61 C61          -17.8080    -5.0886    -1.5588 C.2     
  62 N62          -16.7438    -5.7636    -1.8915 N.2     
  63 N63          -18.9001    -5.7404    -1.0367 N.pl3   
  64 C64          -24.6453     1.1555    -2.0747 C.2     
  65 O65          -24.4754     0.0392    -2.5172 O.2     
  66 N66          -22.2236     1.2630    -1.9601 N.am    
  67 C67          -23.4591     2.0057    -1.6989 C.3     
  68 C68          -23.4679     3.2897    -2.5308 C.3     
  69 O69          -23.5133     2.9570    -3.9198 O.3     
  70 C70          -28.2205     1.6985    -2.6098 C.2     
  71 O71          -28.1042     2.9039    -2.5430 O.2     
  72 N72          -25.8949     1.6358    -1.9191 N.am    
  73 C73          -27.0481     0.8093    -2.2844 C.3     
  74 C74          -27.4114    -0.1055    -1.1131 C.3     
  75 C75          -31.2945     2.1974    -1.8772 C.2     
  76 O76          -30.8767     1.6663    -0.8701 O.2     
  77 N77          -29.3981     1.1542    -2.9749 N.am    
  78 C78          -30.5677     2.0114    -3.1842 C.3     
  79 C79          -31.5051     1.3558    -4.2003 C.3     
  80 C80          -30.8289     1.3023    -5.5460 C.2     
  81 O81          -29.6822     1.6653    -5.6608 O.2     
  82 O82          -31.5006     0.8515    -6.6171 O.3     
  83 C83          -34.5628     3.4548    -0.8283 C.2     
  84 O84          -34.9646     3.5249    -1.9705 O.2     
  85 N85          -32.4088     2.9539    -1.8276 N.am    
  86 C86          -33.1154     3.1347    -0.5570 C.3     
  87 C87          -32.4761     4.2854     0.2228 C.3     
  88 C88          -32.5684     5.5722    -0.5997 C.3     
  89 C89          -32.0427     6.7460     0.2290 C.3     
  90 C90          -31.0066     3.9605     0.4982 C.3     
  91 C91          -37.3903     4.7386     1.1004 C.2     
  92 O92          -36.6918     4.9979     2.0573 O.2     
  93 N93          -35.4108     3.6631     0.1983 N.am    
  94 C94          -36.8179     3.9742    -0.0654 C.3     
  95 C95          -37.6007     2.6736    -0.2563 C.3     
  96 C96          -37.1094     1.9687    -1.4943 C.ar    
  97 C97          -36.0714     1.0600    -1.4064 C.ar    
  98 C98          -35.6207     0.4135    -2.5421 C.ar    
  99 C99          -36.2084     0.6752    -3.7656 C.ar    
 100 C100         -37.2470     1.5832    -3.8534 C.ar    
 101 C101         -37.7005     2.2266    -2.7170 C.ar    
 102 C102         -40.6490     5.6228     2.4092 C.2     
 103 O103         -41.1841     4.7529     1.7551 O.2     
 104 N104         -38.6786     5.1340     1.0796 N.am    
 105 C105         -39.2048     5.9732     2.1590 C.3     
 106 C106         -39.0994     7.4458     1.7577 C.3     
 107 C107         -39.7685     7.6529     0.3975 C.3     
 108 C108         -41.2777     7.4415     0.5340 C.3     
 109 C109         -37.6253     7.8455     1.6671 C.3     
 110 C110         -43.4697     7.0301     4.2602 C.2     
 111 O111         -42.9188     8.1023     4.3943 O.2     
 112 N112         -41.3460     6.2762     3.3599 N.am    
 113 C113         -42.7147     5.8625     3.6792 C.3     
 114 C114         -42.6781     4.7212     4.6975 C.3     
 115 C115         -45.2252     8.1015     6.6765 C.2     
 116 O116         -44.4971     7.2955     7.2058 O.2     
 117 N117         -44.7572     6.8830     4.6307 N.am    
 118 C118         -45.4912     8.0181     5.1955 C.3     
 119 C119         -46.9901     7.8258     4.9566 C.3     
 120 O120         -47.4454     6.6823     5.6826 O.3     
 121 O121         -45.7970     9.0712     7.4075 O.3     
 122 C122           3.9432     1.2876     2.6336 C.2     
 123 O123           4.0506     2.4884     2.7664 O.2     
 124 C124          21.9076    -0.0317     7.8032 C.3     
 125 C125          20.7092     0.8787     7.5277 C.3     
 126 C126          19.5099     0.0287     7.1035 C.3     
 127 C127          18.3115     0.9391     6.8280 C.3     
 128 C128          17.1122     0.0891     6.4037 C.3     
 129 C129          15.9138     0.9995     6.1282 C.3     
 130 C130          14.7145     0.1494     5.7040 C.3     
 131 C131          13.5160     1.0598     5.4285 C.3     
 132 C132          12.3167     0.2098     5.0042 C.3     
 133 C133          11.1183     1.1202     4.7287 C.3     
 134 C134           9.9190     0.2702     4.3044 C.3     
 135 C135           8.7206     1.1806     4.0289 C.3     
 136 C136           7.5213     0.3306     3.6047 C.3     
 137 C137           6.3229     1.2410     3.3292 C.3     
 138 C138           5.1235     0.3909     2.9049 C.3     
 139 H139           2.6822    -0.2051     2.1370 H       
 140 H140           1.6371     2.4688     2.6717 H       
 141 H141           0.8917     2.8642     0.3736 H       
 142 H142           2.6566     2.6338     0.3814 H       
 143 H143           1.5938     1.3101    -1.2990 H       
 144 H144          -0.8821     2.3824     1.7130 H       
 145 H145          -1.9325    -0.3402     1.8215 H       
 146 H146          -3.3606     0.0652     3.7682 H       
 147 H147          -1.6615     0.3302     4.2276 H       
 148 H148          -3.0673     2.1232     4.9448 H       
 149 H149          -4.6060    -0.0034     1.8629 H       
 150 H150          -5.3530     2.4768     0.5147 H       
 151 H151          -5.4586    -0.2327    -0.8838 H       
 152 H152          -6.2613     1.2416    -1.4757 H       
 153 H153          -4.0684     2.3947    -1.5770 H       
 154 H154          -3.2658     0.9204    -0.9852 H       
 155 H155          -4.0849    -0.3218    -2.9689 H       
 156 H156          -4.8875     1.1526    -3.5607 H       
 157 H157          -2.1612     1.7408    -3.1162 H       
 158 H158          -1.1959     0.9559    -6.3807 H       
 159 H159          -4.2316    -0.2234    -5.2015 H       
 160 H160          -3.2034    -0.1969    -6.5299 H       
 161 H161          -7.9059     2.0610    -0.2422 H       
 162 H162          -9.2224     0.1806     1.5628 H       
 163 H163          -9.5306     3.2023     1.8511 H       
 164 H164         -10.5900     2.0002     2.6261 H       
 165 H165          -8.6308     1.0250     3.7920 H       
 166 H166          -7.5713     2.2271     3.0169 H       
 167 H167          -8.3912     3.7246     6.2627 H       
 168 H168         -11.8427     0.7511     1.2965 H       
 169 H169         -12.3948     1.8445    -1.3544 H       
 170 H170         -12.8413    -1.0975    -0.6808 H       
 171 H171         -13.5161    -0.2740    -2.1072 H       
 172 H172         -11.2242     0.2981    -2.8611 H       
 173 H173         -10.5494    -0.5255    -1.4347 H       
 174 H174         -11.5825    -2.6545    -2.1752 H       
 175 H175         -12.2573    -1.8310    -3.6016 H       
 176 H176          -9.9653    -1.2590    -4.3556 H       
 177 H177          -9.2905    -2.0825    -2.9291 H       
 178 H178          -9.3126    -3.5194    -4.8588 H       
 179 H179         -10.3739    -4.1085    -3.7219 H       
 180 H180         -15.0092     1.3181    -1.7423 H       
 181 H181         -16.4252     1.1960     0.8087 H       
 182 H182         -16.4097     3.7052    -0.9270 H       
 183 H183         -17.5490     3.4070     0.4077 H       
 184 H184         -15.6473     3.2062     1.9862 H       
 185 H185         -14.5080     3.5044     0.6515 H       
 186 H186         -15.5435     5.7238     0.2635 H       
 187 H187         -16.6828     5.4256     1.5982 H       
 188 H188         -14.0557     5.0902     2.5790 H       
 189 H189         -13.7365     8.4174     3.5949 H       
 190 H190         -16.2021     7.5934     1.3061 H       
 191 H191         -15.5164     8.8580     2.1740 H       
 192 H192         -18.9832     1.7401     0.1582 H       
 193 H193         -19.5438     0.9234    -2.5888 H       
 194 H194         -20.2562    -0.8252    -0.1922 H       
 195 H195         -20.9092    -1.0456    -1.8333 H       
 196 H196         -18.6085    -1.3445    -2.7085 H       
 197 H197         -17.9555    -1.1240    -1.0674 H       
 198 H198         -19.2338    -3.1026    -0.2930 H       
 199 H199         -19.8868    -3.3231    -1.9341 H       
 200 H200         -17.0679    -3.2649    -2.0983 H       
 201 H201         -16.7224    -6.7259    -1.7708 H       
 202 H202         -19.6921    -5.2381    -0.7891 H       
 203 H203         -18.8787    -6.7026    -0.9160 H       
 204 H204         -22.2135     0.5571    -2.6254 H       
 205 H205         -23.5141     2.2584    -0.6400 H       
 206 H206         -24.3432     3.8850    -2.2710 H       
 207 H207         -22.5641     3.8629    -2.3239 H       
 208 H208         -23.5212     3.7245    -4.5080 H       
 209 H209         -26.0308     2.5287    -1.5652 H       
 210 H210         -26.7992     0.2030    -3.1554 H       
 211 H211         -27.6603     0.5008    -0.2422 H       
 212 H212         -28.2694    -0.7204    -1.3849 H       
 213 H213         -26.5634    -0.7487    -0.8778 H       
 214 H214         -29.4714     0.1950    -3.0991 H       
 215 H215         -30.2443     2.9815    -3.5614 H       
 216 H216         -31.7446     0.3439    -3.8735 H       
 217 H217         -32.4224     1.9394    -4.2775 H       
 218 H218         -31.0249     0.8358    -7.4589 H       
 219 H219         -32.7429     3.3787    -2.6331 H       
 220 H220         -33.0496     2.2180     0.0290 H       
 221 H221         -33.0018     4.4200     1.1681 H       
 222 H222         -31.9692     5.4690    -1.5044 H       
 223 H223         -33.6079     5.7560    -0.8715 H       
 224 H224         -32.1085     7.6628    -0.3570 H       
 225 H225         -32.6420     6.8493     1.1336 H       
 226 H226         -31.0033     6.5623     0.5007 H       
 227 H227         -30.4809     3.8260    -0.4471 H       
 228 H228         -30.5511     4.7803     1.0538 H       
 229 H229         -30.9408     3.0438     1.0842 H       
 230 H230         -35.0894     3.6070     1.1119 H       
 231 H231         -36.8930     4.5794    -0.9688 H       
 232 H232         -37.4530     2.0300     0.6110 H       
 233 H233         -38.6614     2.9004    -0.3640 H       
 234 H234         -35.6123     0.8555    -0.4505 H       
 235 H235         -34.8093    -0.2959    -2.4735 H       
 236 H236         -35.8558     0.1706    -4.6530 H       
 237 H237         -37.7059     1.7880    -4.8094 H       
 238 H238         -38.5144     2.9332    -2.7850 H       
 239 H239         -39.2574     4.8630     0.3499 H       
 240 H240         -38.6268     5.8018     3.0671 H       
 241 H241         -39.5978     8.0627     2.5055 H       
 242 H242         -39.5738     8.6666     0.0473 H       
 243 H243         -39.3647     6.9373    -0.3187 H       
 244 H244         -41.4888     6.3759     0.6227 H       
 245 H245         -41.6379     7.9585     1.4234 H       
 246 H246         -41.7815     7.8397    -0.3467 H       
 247 H247         -37.1142     7.1911     0.9609 H       
 248 H248         -37.5491     8.8780     1.3263 H       
 249 H249         -37.1624     7.7520     2.6495 H       
 250 H250         -40.9415     7.0203     3.8327 H       
 251 H251         -43.2129     5.5233     2.7710 H       
 252 H252         -42.1798     5.0605     5.6057 H       
 253 H253         -43.6964     4.4135     4.9351 H       
 254 H254         -42.1319     3.8767     4.2773 H       
 255 H255         -45.1978     6.0255     4.5234 H       
 256 H256         -45.1618     8.9392     4.7147 H       
 257 H257         -47.5287     8.7103     5.2969 H       
 258 H258         -47.1723     7.6767     3.8923 H       
 259 H259         -48.3892     6.4998     5.5775 H       
 260 H260         -45.5965     9.0841     8.3534 H       
 261 H261          22.7621     0.5739     8.1055 H       
 262 H262          21.6571    -0.7305     8.6013 H       
 263 H263          22.1575    -0.5870     6.8992 H       
 264 H264          20.4594     1.4340     8.4318 H       
 265 H265          20.9597     1.5776     6.7296 H       
 266 H266          19.7598    -0.5266     6.1994 H       
 267 H267          19.2594    -0.6701     7.9016 H       
 268 H268          18.0616     1.4944     7.7320 H       
 269 H269          18.5620     1.6380     6.0299 H       
 270 H270          17.3620    -0.4662     5.4997 H       
 271 H271          16.8617    -0.6098     7.2018 H       
 272 H272          15.6639     1.5548     7.0323 H       
 273 H273          16.1643     1.6983     5.3301 H       
 274 H274          14.9643    -0.4059     4.7999 H       
 275 H275          14.4639    -0.5494     6.5021 H       
 276 H276          13.2662     1.6151     6.3325 H       
 277 H277          13.7666     1.7587     4.6304 H       
 278 H278          12.5666    -0.3455     4.1002 H       
 279 H279          12.0662    -0.4890     5.8023 H       
 280 H280          10.8685     1.6755     5.6327 H       
 281 H281          11.3688     1.8191     3.9306 H       
 282 H282          10.1689    -0.2851     3.4004 H       
 283 H283           9.6685    -0.4287     5.1025 H       
 284 H284           8.4707     1.7359     4.9330 H       
 285 H285           8.9711     1.8794     3.2308 H       
 286 H286           7.7711    -0.2247     2.7006 H       
 287 H287           7.2708    -0.3683     4.4028 H       
 288 H288           6.0730     1.7963     4.2332 H       
 289 H289           6.5734     1.9398     2.5311 H       
 290 H290           4.8730    -0.3079     3.7030 H       
 291 H291           5.3734    -0.1644     2.0009 H       
@<TRIPOS>BOND
   1    1    2 2
   2    1    4 1
   3    1    9 am
   4    3  122 am
   5    3    4 1
   6    3  139 1
   7    4    5 1
   8    4  140 1
   9    5    6 1
  10    5  141 1
  11    5  142 1
  12    6  143 1
  13    7    8 2
  14    7   10 1
  15    7   15 am
  16    9   10 1
  17    9  144 1
  18   10   11 1
  19   10  145 1
  20   11   12 1
  21   11  146 1
  22   11  147 1
  23   12  148 1
  24   13   14 2
  25   13   16 1
  26   13   26 am
  27   15   16 1
  28   15  149 1
  29   16   17 1
  30   16  150 1
  31   17   18 1
  32   17  151 1
  33   17  152 1
  34   18   19 1
  35   18  153 1
  36   18  154 1
  37   19   20 1
  38   19  155 1
  39   19  156 1
  40   20   21 1
  41   20  157 1
  42   21   22 2
  43   21   23 1
  44   22  158 1
  45   23  159 1
  46   23  160 1
  47   24   25 2
  48   24   27 1
  49   24   35 am
  50   26   27 1
  51   26  161 1
  52   27   28 1
  53   27  162 1
  54   28   29 1
  55   28  163 1
  56   28  164 1
  57   29   30 1
  58   29  165 1
  59   29  166 1
  60   30   31 2
  61   30   32 1
  62   32  167 1
  63   33   34 2
  64   33   36 1
  65   33   44 am
  66   35   36 1
  67   35  168 1
  68   36   37 1
  69   36  169 1
  70   37   38 1
  71   37  170 1
  72   37  171 1
  73   38   39 1
  74   38  172 1
  75   38  173 1
  76   39   40 1
  77   39  174 1
  78   39  175 1
  79   40   41 1
  80   40  176 1
  81   40  177 1
  82   41  178 1
  83   41  179 1
  84   42   43 2
  85   42   45 1
  86   42   55 am
  87   44   45 1
  88   44  180 1
  89   45   46 1
  90   45  181 1
  91   46   47 1
  92   46  182 1
  93   46  183 1
  94   47   48 1
  95   47  184 1
  96   47  185 1
  97   48   49 1
  98   48  186 1
  99   48  187 1
 100   49   50 1
 101   49  188 1
 102   50   51 2
 103   50   52 1
 104   51  189 1
 105   52  190 1
 106   52  191 1
 107   53   54 2
 108   53   56 1
 109   53   66 am
 110   55   56 1
 111   55  192 1
 112   56   57 1
 113   56  193 1
 114   57   58 1
 115   57  194 1
 116   57  195 1
 117   58   59 1
 118   58  196 1
 119   58  197 1
 120   59   60 1
 121   59  198 1
 122   59  199 1
 123   60   61 1
 124   60  200 1
 125   61   62 2
 126   61   63 1
 127   62  201 1
 128   63  202 1
 129   63  203 1
 130   64   65 2
 131   64   67 1
 132   64   72 am
 133   66   67 1
 134   66  204 1
 135   67   68 1
 136   67  205 1
 137   68   69 1
 138   68  206 1
 139   68  207 1
 140   69  208 1
 141   70   71 2
 142   70   73 1
 143   70   77 am
 144   72   73 1
 145   72  209 1
 146   73   74 1
 147   73  210 1
 148   74  211 1
 149   74  212 1
 150   74  213 1
 151   75   76 2
 152   75   78 1
 153   75   85 am
 154   77   78 1
 155   77  214 1
 156   78   79 1
 157   78  215 1
 158   79   80 1
 159   79  216 1
 160   79  217 1
 161   80   81 2
 162   80   82 1
 163   82  218 1
 164   83   84 2
 165   83   86 1
 166   83   93 am
 167   85   86 1
 168   85  219 1
 169   86   87 1
 170   86  220 1
 171   87   88 1
 172   87   90 1
 173   87  221 1
 174   88   89 1
 175   88  222 1
 176   88  223 1
 177   89  224 1
 178   89  225 1
 179   89  226 1
 180   90  227 1
 181   90  228 1
 182   90  229 1
 183   91   92 2
 184   91   94 1
 185   91  104 am
 186   93   94 1
 187   93  230 1
 188   94   95 1
 189   94  231 1
 190   95   96 1
 191   95  232 1
 192   95  233 1
 193   96   97 ar
 194   96  101 ar
 195   97   98 ar
 196   97  234 1
 197   98   99 ar
 198   98  235 1
 199   99  100 ar
 200   99  236 1
 201  100  101 ar
 202  100  237 1
 203  101  238 1
 204  102  103 2
 205  102  105 1
 206  102  112 am
 207  104  105 1
 208  104  239 1
 209  105  106 1
 210  105  240 1
 211  106  107 1
 212  106  109 1
 213  106  241 1
 214  107  108 1
 215  107  242 1
 216  107  243 1
 217  108  244 1
 218  108  245 1
 219  108  246 1
 220  109  247 1
 221  109  248 1
 222  109  249 1
 223  110  111 2
 224  110  113 1
 225  110  117 am
 226  112  113 1
 227  112  250 1
 228  113  114 1
 229  113  251 1
 230  114  252 1
 231  114  253 1
 232  114  254 1
 233  115  116 2
 234  115  118 1
 235  115  121 1
 236  117  118 1
 237  117  255 1
 238  118  119 1
 239  118  256 1
 240  119  120 1
 241  119  257 1
 242  119  258 1
 243  120  259 1
 244  121  260 1
 245  122  123 2
 246  122  138 1
 247  124  125 1
 248  124  261 1
 249  124  262 1
 250  124  263 1
 251  125  126 1
 252  125  264 1
 253  125  265 1
 254  126  127 1
 255  126  266 1
 256  126  267 1
 257  127  128 1
 258  127  268 1
 259  127  269 1
 260  128  129 1
 261  128  270 1
 262  128  271 1
 263  129  130 1
 264  129  272 1
 265  129  273 1
 266  130  131 1
 267  130  274 1
 268  130  275 1
 269  131  132 1
 270  131  276 1
 271  131  277 1
 272  132  133 1
 273  132  278 1
 274  132  279 1
 275  133  134 1
 276  133  280 1
 277  133  281 1
 278  134  135 1
 279  134  282 1
 280  134  283 1
 281  135  136 1
 282  135  284 1
 283  135  285 1
 284  136  137 1
 285  136  286 1
 286  136  287 1
 287  137  138 1
 288  137  288 1
 289  137  289 1
 290  138  290 1
 291  138  291 1

#	End of record

