#	Name: ASD01141108
#	Creating user name:	WinNT
#	Creation time:	15. 06. 2019 19:01

#	Modifying user name:	WinNT
#	Modification time:	15. 06. 2019 19:01

#	Program:	/corina/corina34_cracker 3.40 0067  02.08.2006

@<TRIPOS>MOLECULE
ASD01141108
  51   54    0    0    0
SMALL
NO_CHARGES


@<TRIPOS>ATOM
   1 C1            -0.0121     1.5079    -0.0012 C.3     
   2 C2             0.0097    -0.0220    -0.0174 C.3     
   3 C3            -0.7273     1.9938     1.2612 C.3     
   4 C4            -0.7540     2.0186    -1.2372 C.3     
   5 C5             0.7255    -0.5098    -1.2782 C.3     
   6 C6             0.7485    -0.5357     1.2199 C.3     
   7 H7            -1.0128    -0.3997    -0.0113 H       
   8 C8             0.0128     1.4801     2.4977 C.3     
   9 C9            -0.8521     3.5398    -1.1948 C.3     
  10 C10           -0.0253     1.5348    -2.5004 C.3     
  11 H11           -1.7647     1.6105    -1.2351 H       
  12 C12           -0.0109     0.0056    -2.5164 C.3     
  13 C13            0.0304    -0.0497     2.4805 C.3     
  14 C14           -1.5109     4.0941    -2.4693 C.3     
  15 C15           -0.7942     2.0673    -3.6955 C.3     
  16 H16            0.9915     1.9272    -2.5121 H       
  17 H17            0.4991    -0.3436    -3.4142 H       
  18 O18           -1.3104    -0.5441     2.4856 O.3     
  19 C19           -0.6873     3.6158    -3.6480 C.3     
  20 C20           -0.1781     1.7697    -5.0684 C.3     
  21 H21           -1.8366     1.7518    -3.6507 H       
  22 C22            0.7743     4.0237    -3.4530 C.3     
  23 C23           -1.1412     4.0422    -5.0125 C.2     
  24 C24           -0.7664     2.9020    -5.9540 C.3     
  25 O25           -1.6912     5.0765    -5.3057 O.2     
  26 H26           -1.8261    -0.2745     3.2579 H       
  27 C27            1.4228     2.0389    -0.0114 C.3     
  28 H28           -1.4453     3.8350    -0.3293 H       
  29 H29           -0.7422     3.0836     1.2735 H       
  30 H30           -1.7499     1.6167     1.2672 H       
  31 H31            1.7492    -0.1355    -1.2825 H       
  32 H32            0.7376    -1.5997    -1.2904 H       
  33 H33            0.7637    -1.6255     1.2077 H       
  34 H34            1.7709    -0.1579     1.2156 H       
  35 H35            1.0354     1.8573     2.4919 H       
  36 H36           -0.4973     1.8267     3.3965 H       
  37 H37            0.1493     3.9593    -1.0995 H       
  38 H38           -1.0350    -0.3676    -2.5118 H       
  39 H39            0.5561    -0.4160     3.3623 H       
  40 H40           -2.5307     3.7186    -2.5529 H       
  41 H41           -1.5173     5.1837    -2.4394 H       
  42 H42            0.9091     1.8358    -5.0273 H       
  43 H43           -0.4941     0.7914    -5.4306 H       
  44 H44            1.1300     3.6528    -2.4917 H       
  45 H45            1.3801     3.5985    -4.2532 H       
  46 H46            0.8543     5.1106    -3.4752 H       
  47 H47           -0.0194     3.2409    -6.6717 H       
  48 H48           -1.6527     2.5439    -6.4779 H       
  49 H49            1.9320     1.6925    -0.9106 H       
  50 H50            1.4069     3.1288     0.0002 H       
  51 H51            1.9515     1.6739     0.8691 H       
@<TRIPOS>BOND
   1    1    2 1
   2    1   27 1
   3    1    3 1
   4    1    4 1
   5    2    5 1
   6    2    6 1
   7    2    7 1
   8    3    8 1
   9    3   29 1
  10    3   30 1
  11    4   10 1
  12    4    9 1
  13    4   11 1
  14    5   12 1
  15    5   31 1
  16    5   32 1
  17    6   13 1
  18    6   33 1
  19    6   34 1
  20    8   13 1
  21    8   35 1
  22    8   36 1
  23    9   14 1
  24    9   28 1
  25    9   37 1
  26   10   15 1
  27   10   16 1
  28   10   12 1
  29   12   17 1
  30   12   38 1
  31   13   18 1
  32   13   39 1
  33   14   19 1
  34   14   40 1
  35   14   41 1
  36   15   19 1
  37   15   20 1
  38   15   21 1
  39   18   26 1
  40   19   22 1
  41   19   23 1
  42   20   24 1
  43   20   42 1
  44   20   43 1
  45   22   44 1
  46   22   45 1
  47   22   46 1
  48   23   24 1
  49   23   25 2
  50   24   47 1
  51   24   48 1
  52   27   49 1
  53   27   50 1
  54   27   51 1

#	End of record

