#	Name: ASD01885719
#	Creating user name:	WinNT
#	Creation time:	15. 06. 2019 19:50

#	Modifying user name:	WinNT
#	Modification time:	15. 06. 2019 19:50

#	Program:	/corina/corina34_cracker 3.40 0067  02.08.2006

@<TRIPOS>MOLECULE
ASD01885719
  62   65    0    0    0
SMALL
NO_CHARGES


@<TRIPOS>ATOM
   1 C1            -0.0160     1.3294     0.0094 C.ar    
   2 C2             1.2007     2.0574     0.0016 C.ar    
   3 C3             2.4279     1.3473    -0.0140 C.ar    
   4 C4             2.3760    -0.0401    -0.0210 C.ar    
   5 C5             1.1338    -0.6832    -0.0126 C.ar    
   6 N6             0.0021    -0.0041     0.0020 N.ar    
   7 C7            -1.2250     3.3964     0.0263 C.ar    
   8 C8            -0.0268     4.1073     0.0236 C.ar    
   9 C9             1.1712     3.4577     0.0091 C.ar    
  10 C10            3.7242     2.0631    -0.0230 C.2     
  11 C11            1.0872    -2.1654    -0.0201 C.2     
  12 C12           -2.5321     4.1463     0.0420 C.3     
  13 C13           -1.2337     2.0357     0.0189 C.ar    
  14 N14           -0.1005    -2.8023    -0.0120 N.am    
  15 O15            2.1198    -2.8056    -0.0335 O.2     
  16 N16           -2.9668     4.4015    -1.3378 N.3     
  17 C17           -4.3382     4.9147    -1.3696 C.3     
  18 C18           -4.6141     5.5793    -2.7226 C.3     
  19 S19           -4.4504     4.3223    -4.0273 S.3     
  20 C20           -2.8225     3.6023    -3.6528 C.3     
  21 C21           -2.7932     3.2099    -2.1717 C.3     
  22 C22           -6.0333     6.1508    -2.7347 C.3     
  23 C23           -6.4990     6.8587    -4.0087 C.3     
  24 C24           -7.0574     5.4796    -3.6521 C.3     
  25 C25            4.0925     3.1109    -0.8921 C.2     
  26 N26            5.3082     3.4798    -0.5891 N.2     
  27 N27            5.7620     2.6911     0.4749 N.pl3   
  28 C28            4.7807     1.8331     0.8134 C.2     
  29 C29            7.0770     2.7861     1.1136 C.3     
  30 H30            3.2879    -0.6185    -0.0333 H       
  31 H31           -0.0477     5.1870     0.0332 H       
  32 H32            2.0933     4.0199     0.0037 H       
  33 H33           -3.2864     3.5508     0.5564 H       
  34 H34           -2.4006     5.0947     0.5629 H       
  35 H35           -2.1713     1.4996     0.0207 H       
  36 H36           -0.9249    -2.2912    -0.0013 H       
  37 H37           -0.1310    -3.7718    -0.0169 H       
  38 H38           -5.0367     4.0911    -1.2214 H       
  39 H39           -4.4694     5.6470    -0.5730 H       
  40 H40           -3.8929     6.3788    -2.8918 H       
  41 H41           -2.6628     2.7176    -4.2692 H       
  42 H42           -2.0424     4.3369    -3.8525 H       
  43 H43           -1.8366     2.7418    -1.9398 H       
  44 H44           -3.5990     2.5047    -1.9678 H       
  45 H45           -6.3907     6.5421    -1.7822 H       
  46 H46           -7.1630     7.7155    -3.8943 H       
  47 H47           -5.7943     6.9172    -4.8382 H       
  48 H48           -6.7201     4.6308    -4.2470 H       
  49 H49           -8.0888     5.4291    -3.3031 H       
  50 H50            3.4770     3.5341    -1.6721 H       
  51 H51            4.8232     1.0931     1.5989 H       
  52 H52            7.0291     3.4951     1.9400 H       
  53 H53            7.3688     1.8064     1.4918 H       
  54 H54            7.8114     3.1274     0.3841 H       
  55 C55           13.8133    14.6226     7.8453 C.3     
  56 C56           13.8340    13.0927     7.8368 C.3     
  57 H57           14.8359    14.9999     7.8375 H       
  58 H58           13.2861    14.9837     6.9622 H       
  59 H59           13.3031    14.9741     8.7420 H       
  60 H60           14.3612    12.7317     8.7199 H       
  61 H61           12.8114    12.7155     7.8446 H       
  62 H62           14.3442    12.7412     6.9400 H       
@<TRIPOS>BOND
   1    1    6 ar
   2    1    2 ar
   3    1   13 ar
   4    2    3 ar
   5    2    9 ar
   6    3   10 1
   7    3    4 ar
   8    4    5 ar
   9    4   30 1
  10    5   11 1
  11    5    6 ar
  12    7   12 1
  13    7    8 ar
  14    7   13 ar
  15    8    9 ar
  16    8   31 1
  17    9   32 1
  18   10   25 1
  19   10   28 2
  20   11   14 am
  21   11   15 2
  22   12   16 1
  23   12   33 1
  24   12   34 1
  25   13   35 1
  26   14   36 1
  27   14   37 1
  28   16   17 1
  29   16   21 1
  30   17   18 1
  31   17   38 1
  32   17   39 1
  33   18   19 1
  34   18   22 1
  35   18   40 1
  36   19   20 1
  37   20   21 1
  38   20   41 1
  39   20   42 1
  40   21   43 1
  41   21   44 1
  42   22   23 1
  43   22   24 1
  44   22   45 1
  45   23   24 1
  46   23   46 1
  47   23   47 1
  48   24   48 1
  49   24   49 1
  50   25   26 2
  51   25   50 1
  52   26   27 1
  53   27   28 1
  54   27   29 1
  55   28   51 1
  56   29   52 1
  57   29   53 1
  58   29   54 1
  59   55   56 1
  60   55   57 1
  61   55   58 1
  62   55   59 1
  63   56   60 1
  64   56   61 1
  65   56   62 1

#	End of record

