#	Name: ASD00740019
#	Creating user name:	WinNT
#	Creation time:	15. 06. 2019 18:37

#	Modifying user name:	WinNT
#	Modification time:	15. 06. 2019 18:37

#	Program:	/corina/corina34_cracker 3.40 0067  02.08.2006

@<TRIPOS>MOLECULE
ASD00740019
  68   72    0    0    0
SMALL
NO_CHARGES


@<TRIPOS>ATOM
   1 C1            -0.9109     1.9232    -3.5446 C.ar    
   2 C2             0.3477     2.5175    -3.4134 C.ar    
   3 C3             0.5514     3.5411    -2.5383 C.ar    
   4 C4            -0.5116     4.0104    -1.7549 C.ar    
   5 C5            -1.7895     3.4129    -1.8828 C.ar    
   6 C6            -1.9791     2.3668    -2.7912 C.ar    
   7 N7            -0.3559     5.0161    -0.8798 N.ar    
   8 C8            -1.3690     5.4341    -0.1596 C.ar    
   9 N9            -2.5802     4.9065    -0.2445 N.ar    
  10 C10           -2.8440     3.9089    -1.0771 C.ar    
  11 N11           -4.1112     3.3673    -1.1558 N.pl3   
  12 C12           -5.1640     3.9457    -0.4409 C.ar    
  13 C13           -5.1955     5.3183    -0.2395 C.ar    
  14 C14           -6.2426     5.8884     0.4702 C.ar    
  15 C15           -7.2556     5.0842     0.9768 C.ar    
  16 C16           -7.2215     3.7177     0.7746 C.ar    
  17 C17           -6.1834     3.1473     0.0640 C.ar    
  18 C18           -9.9408     9.3720     0.6936 C.2     
  19 C19           -8.7072     9.9403     0.7839 C.2     
  20 N20           -8.8842    11.2863     0.8792 N.pl3   
  21 N21          -10.2614    11.5400     0.8458 N.2     
  22 C22          -10.8898    10.3974     0.7351 C.2     
  23 N23           -1.0905     0.8745    -4.4507 N.pl3   
  24 N24           -6.2778     7.2721     0.6759 N.am    
  25 C25           -7.4579     7.9230     0.6795 C.2     
  26 N26           -7.4861     9.2667     0.7801 N.am    
  27 O27           -8.4972     7.2980     0.5920 O.2     
  28 C28           -7.8697    12.2468     0.9913 C.ar    
  29 C29           -6.7148    11.9586     1.7056 C.ar    
  30 C30           -5.7167    12.9075     1.8143 C.ar    
  31 C31           -5.8672    14.1431     1.2126 C.ar    
  32 C32           -7.0169    14.4334     0.5007 C.ar    
  33 C33           -8.0154    13.4868     0.3833 C.ar    
  34 C34           -7.1771    15.7817    -0.1532 C.3     
  35 C35          -12.3843    10.2176     0.6639 C.3     
  36 C36          -12.8978     9.6815     2.0018 C.3     
  37 C37          -13.0464    11.5644     0.3663 C.3     
  38 C38          -12.7260     9.2244    -0.4485 C.3     
  39 H39            1.1706     2.1595    -4.0144 H       
  40 H40            1.5297     3.9897    -2.4481 H       
  41 H41           -2.9496     1.9048    -2.8960 H       
  42 H42           -1.2077     6.2455     0.5347 H       
  43 H43           -4.2712     2.5854    -1.7071 H       
  44 H44           -4.4065     5.9414    -0.6340 H       
  45 H45           -8.0706     5.5275     1.5296 H       
  46 H46           -8.0104     3.0947     1.1695 H       
  47 H47           -6.1596     2.0789    -0.0923 H       
  48 H48          -10.1491     8.3163     0.6015 H       
  49 H49           -0.3437     0.5620    -4.9852 H       
  50 H50           -1.9619     0.4590    -4.5452 H       
  51 H51           -5.4528     7.7628     0.8159 H       
  52 H52           -6.6570     9.7653     0.8499 H       
  53 H53           -6.5968    10.9937     2.1761 H       
  54 H54           -4.8181    12.6840     2.3702 H       
  55 H55           -5.0855    14.8834     1.2990 H       
  56 H56           -8.9130    13.7140    -0.1727 H       
  57 H57           -6.7774    15.7438    -1.1666 H       
  58 H58           -8.2342    16.0447    -0.1891 H       
  59 H59           -6.6354    16.5317     0.4232 H       
  60 H60          -12.6543    10.3891     2.7943 H       
  61 H61          -13.9788     9.5514     1.9503 H       
  62 H62          -12.4261     8.7220     2.2138 H       
  63 H63          -12.6806    11.9464    -0.5868 H       
  64 H64          -14.1274    11.4344     0.3148 H       
  65 H65          -12.8029    12.2720     1.1588 H       
  66 H66          -12.2543     8.2649    -0.2365 H       
  67 H67          -13.8070     9.0943    -0.5000 H       
  68 H68          -12.3602     9.6063    -1.4016 H       
@<TRIPOS>BOND
   1    1    2 ar
   2    1   23 1
   3    1    6 ar
   4    2    3 ar
   5    2   39 1
   6    3    4 ar
   7    3   40 1
   8    4    5 ar
   9    4    7 ar
  10    5    6 ar
  11    5   10 ar
  12    6   41 1
  13    7    8 ar
  14    8    9 ar
  15    8   42 1
  16    9   10 ar
  17   10   11 1
  18   11   12 1
  19   11   43 1
  20   12   13 ar
  21   12   17 ar
  22   13   14 ar
  23   13   44 1
  24   14   15 ar
  25   14   24 1
  26   15   16 ar
  27   15   45 1
  28   16   17 ar
  29   16   46 1
  30   17   47 1
  31   18   19 2
  32   18   22 1
  33   18   48 1
  34   19   20 1
  35   19   26 1
  36   20   21 1
  37   20   28 1
  38   21   22 2
  39   22   35 1
  40   23   49 1
  41   23   50 1
  42   24   25 am
  43   24   51 1
  44   25   26 am
  45   25   27 2
  46   26   52 1
  47   28   29 ar
  48   28   33 ar
  49   29   30 ar
  50   29   53 1
  51   30   31 ar
  52   30   54 1
  53   31   32 ar
  54   31   55 1
  55   32   33 ar
  56   32   34 1
  57   33   56 1
  58   34   57 1
  59   34   58 1
  60   34   59 1
  61   35   36 1
  62   35   37 1
  63   35   38 1
  64   36   60 1
  65   36   61 1
  66   36   62 1
  67   37   63 1
  68   37   64 1
  69   37   65 1
  70   38   66 1
  71   38   67 1
  72   38   68 1

#	End of record

