#	Name: ASD01914698
#	Creating user name:	WinNT
#	Creation time:	15. 06. 2019 20:04

#	Modifying user name:	WinNT
#	Modification time:	15. 06. 2019 20:04

#	Program:	/corina/corina34_cracker 3.40 0067  02.08.2006

@<TRIPOS>MOLECULE
ASD01914698
  58   63    0    0    0
SMALL
NO_CHARGES


@<TRIPOS>ATOM
   1 O1            -0.0161     1.3382     0.0094 O.3     
   2 C2             0.0021    -0.0041     0.0020 C.2     
   3 N3             1.2257    -0.4389    -0.0120 N.2     
   4 C4             2.0700     0.6290    -0.0143 C.ar    
   5 C5             1.2607     1.7778    -0.0004 C.ar    
   6 C6             3.4559     0.7611    -0.0269 C.ar    
   7 C7             4.0228     2.0327    -0.0255 C.ar    
   8 C8             3.2023     3.1671    -0.0111 C.ar    
   9 C9             1.8428     3.0385     0.0008 C.ar    
  10 C10            5.4920     2.1853    -0.0387 C.2     
  11 O11            6.2053     1.2009    -0.0508 O.2     
  12 N12            6.0418     3.4159    -0.0373 N.am    
  13 C13            7.4989     3.5672    -0.0504 C.3     
  14 C14            7.8572     5.0546    -0.0459 C.3     
  15 C15            9.3790     5.2126    -0.0596 C.3     
  16 C16            9.9487     4.5546    -1.3179 C.3     
  17 C17            9.5904     3.0672    -1.3224 C.3     
  18 C18           10.1840     2.3958    -0.0824 C.3     
  19 C19            9.6143     3.0538     1.1759 C.3     
  20 C20            8.0925     2.8957     1.1896 C.3     
  21 C21            9.9726     4.5412     1.1805 C.3     
  22 C22            8.0686     2.9092    -1.3087 C.3     
  23 N23            9.7221     6.6369    -0.0552 N.am    
  24 C24           11.0146     7.0187    -0.0655 C.2     
  25 O25           11.8953     6.1816    -0.0784 O.2     
  26 C26           11.3616     8.4592    -0.0611 C.ar    
  27 C27           12.6995     8.8474    -0.0718 C.ar    
  28 C28           13.0084    10.1984    -0.0679 C.ar    
  29 C29           11.9682    11.1145    -0.0535 C.ar    
  30 C30           10.6603    10.6570    -0.0434 C.ar    
  31 N31           10.3953     9.3688    -0.0525 N.ar    
  32 C32            9.5260    11.6491    -0.0278 C.3     
  33 H33           -0.8760    -0.6329     0.0074 H       
  34 H34            4.0862    -0.1159    -0.0373 H       
  35 H35            3.6477     4.1510    -0.0093 H       
  36 H36            1.2186     3.9198     0.0115 H       
  37 H37            5.4727     4.2013    -0.0277 H       
  38 H38            7.4343     5.5329    -0.9293 H       
  39 H39            7.4513     5.5234     0.8506 H       
  40 H40            9.5258     5.0330    -2.2013 H       
  41 H41           11.0329     4.6672    -1.3276 H       
  42 H42            9.9963     2.5984    -2.2189 H       
  43 H43            9.9287     1.3361    -0.0857 H       
  44 H44           11.2682     2.5084    -0.0922 H       
  45 H45           10.0372     2.5754     2.0593 H       
  46 H46            7.6866     3.3645     2.0860 H       
  47 H47            7.8372     1.8361     1.1863 H       
  48 H48           11.0567     4.6538     1.1707 H       
  49 H49            9.5667     5.0100     2.0769 H       
  50 H50            7.8133     1.8495    -1.3120 H       
  51 H51            7.6457     3.3875    -2.1922 H       
  52 H52            9.0190     7.3051    -0.0449 H       
  53 H53           13.4848     8.1060    -0.0826 H       
  54 H54           14.0363    10.5299    -0.0756 H       
  55 H55           12.1751    12.1745    -0.0498 H       
  56 H56            9.2428    11.8934    -1.0516 H       
  57 H57            8.6715    11.2158     0.4920 H       
  58 H58            9.8433    12.5556     0.4876 H       
@<TRIPOS>BOND
   1    1    2 1
   2    1    5 1
   3    2    3 2
   4    2   33 1
   5    3    4 1
   6    4    5 ar
   7    4    6 ar
   8    5    9 ar
   9    6    7 ar
  10    6   34 1
  11    7    8 ar
  12    7   10 1
  13    8    9 ar
  14    8   35 1
  15    9   36 1
  16   10   11 2
  17   10   12 am
  18   12   13 1
  19   12   37 1
  20   13   14 1
  21   13   20 1
  22   13   22 1
  23   14   15 1
  24   14   38 1
  25   14   39 1
  26   15   16 1
  27   15   21 1
  28   15   23 1
  29   16   17 1
  30   16   40 1
  31   16   41 1
  32   17   18 1
  33   17   22 1
  34   17   42 1
  35   18   19 1
  36   18   43 1
  37   18   44 1
  38   19   20 1
  39   19   21 1
  40   19   45 1
  41   20   46 1
  42   20   47 1
  43   21   48 1
  44   21   49 1
  45   22   50 1
  46   22   51 1
  47   23   24 am
  48   23   52 1
  49   24   25 2
  50   24   26 1
  51   26   27 ar
  52   26   31 ar
  53   27   28 ar
  54   27   53 1
  55   28   29 ar
  56   28   54 1
  57   29   30 ar
  58   29   55 1
  59   30   31 ar
  60   30   32 1
  61   32   56 1
  62   32   57 1
  63   32   58 1

#	End of record

