#	Name: ASD01028675
#	Creating user name:	WinNT
#	Creation time:	15. 06. 2019 18:57

#	Modifying user name:	WinNT
#	Modification time:	15. 06. 2019 18:57

#	Program:	/corina/corina34_cracker 3.40 0067  02.08.2006

@<TRIPOS>MOLECULE
ASD01028675
  43   47    0    0    0
SMALL
NO_CHARGES


@<TRIPOS>ATOM
   1 N1            -0.0157     1.3060     0.0092 N.ar    
   2 C2             0.0021    -0.0041     0.0020 C.ar    
   3 C3             1.2021    -0.7221    -0.0133 C.ar    
   4 C4             2.3969    -0.0518    -0.0211 C.ar    
   5 C5             2.3684     1.3549    -0.0132 C.ar    
   6 C6             3.5529     2.1090    -0.0204 C.ar    
   7 C7             3.4849     3.4690    -0.0125 C.ar    
   8 C8             2.2549     4.1229     0.0031 C.ar    
   9 C9             1.0873     3.4233     0.0109 C.ar    
  10 C10            1.1159     2.0180     0.0022 C.ar    
  11 O11            1.1831    -2.0810    -0.0200 O.3     
  12 C12            4.7568     4.2772    -0.0202 C.3     
  13 C13            5.4049     5.4622    -3.4128 C.2     
  14 C14            5.2161     6.4236    -4.4282 C.2     
  15 C15            4.4315     7.5070    -4.1829 C.2     
  16 C16            3.8178     7.6540    -2.9172 C.2     
  17 C17            4.0114     6.7165    -1.9515 C.2     
  18 N18            4.7981     5.6281    -2.1929 N.pl3   
  19 N19            5.9423     3.8048    -2.1850 N.2     
  20 N20            6.0872     4.3299    -3.3507 N.2     
  21 C21            5.1673     4.5542    -1.4435 C.2     
  22 N22            1.3192    10.2827    -2.7189 N.pl3   
  23 N23            2.2392    10.7139    -1.7556 N.2     
  24 C24            3.2214     9.8533    -1.7052 C.2     
  25 C25            2.9599     8.8352    -2.6421 C.2     
  26 C26            1.7762     9.1308    -3.2518 C.2     
  27 C27            0.0725    10.9617    -3.0809 C.3     
  28 F28            5.8094     6.2696    -5.6321 F       
  29 H29           -0.9337    -0.5432     0.0084 H       
  30 H30            3.3343    -0.5880    -0.0325 H       
  31 H31            4.5124     1.6133    -0.0318 H       
  32 H32            2.2273     5.2025     0.0094 H       
  33 H33            0.1424     3.9461     0.0237 H       
  34 H34            1.1690    -2.4698    -0.9053 H       
  35 H35            4.5911     5.2205     0.5002 H       
  36 H36            5.5456     3.7182     0.4832 H       
  37 H37            4.2782     8.2512    -4.9503 H       
  38 H38            3.5400     6.8344    -0.9870 H       
  39 H39            4.0839     9.9128    -1.0579 H       
  40 H40            1.2924     8.5482    -4.0218 H       
  41 H41            0.2644    11.6665    -3.8899 H       
  42 H42           -0.6610    10.2246    -3.4076 H       
  43 H43           -0.3133    11.4991    -2.2147 H       
@<TRIPOS>BOND
   1    1    2 ar
   2    1   10 ar
   3    2    3 ar
   4    2   29 1
   5    3    4 ar
   6    3   11 1
   7    4    5 ar
   8    4   30 1
   9    5    6 ar
  10    5   10 ar
  11    6    7 ar
  12    6   31 1
  13    7    8 ar
  14    7   12 1
  15    8    9 ar
  16    8   32 1
  17    9   10 ar
  18    9   33 1
  19   11   34 1
  20   12   21 1
  21   12   35 1
  22   12   36 1
  23   13   14 1
  24   13   18 1
  25   13   20 2
  26   14   15 2
  27   14   28 1
  28   15   16 1
  29   15   37 1
  30   16   17 2
  31   16   25 1
  32   17   18 1
  33   17   38 1
  34   18   21 1
  35   19   20 1
  36   19   21 2
  37   22   23 1
  38   22   26 1
  39   22   27 1
  40   23   24 2
  41   24   25 1
  42   24   39 1
  43   25   26 2
  44   26   40 1
  45   27   41 1
  46   27   42 1
  47   27   43 1

#	End of record

