#	Name: ASD01910054
#	Creating user name:	WinNT
#	Creation time:	15. 06. 2019 19:55

#	Modifying user name:	WinNT
#	Modification time:	15. 06. 2019 19:55

#	Program:	/corina/corina34_cracker 3.40 0067  02.08.2006

@<TRIPOS>MOLECULE
ASD01910054
  44   47    0    0    0
SMALL
NO_CHARGES


@<TRIPOS>ATOM
   1 C1             0.3085     1.3956     0.8950 C.ar    
   2 C2             0.3236     0.0148     0.9145 C.ar    
   3 C3             1.1983    -0.6806     0.0995 C.ar    
   4 C4             2.0603     0.0036    -0.7374 C.ar    
   5 C5             2.0503     1.3855    -0.7617 C.ar    
   6 C6             1.1727     2.0864     0.0559 C.ar    
   7 N7             1.1593     3.4872     0.0336 N.pl3   
   8 C8             0.0539     4.2758    -0.0720 C.2     
   9 C9             0.4675     5.5703    -0.0566 C.2     
  10 C10            1.8701     5.5727     0.0623 C.2     
  11 N11            2.2799     4.3228     0.1220 N.2     
  12 N12           -1.2639     3.8347    -0.1775 N.am    
  13 C13           -2.2764     4.7237    -0.1487 C.2     
  14 C14           -3.6742     4.2559    -0.2605 C.ar    
  15 C15           -4.7220     5.1735    -0.2309 C.ar    
  16 C16           -6.0371     4.7237    -0.3370 C.ar    
  17 C17           -6.2958     3.3574    -0.4720 C.ar    
  18 C18           -5.2522     2.4535    -0.5001 C.ar    
  19 C19           -3.9471     2.8929    -0.4018 C.ar    
  20 C20            2.7366     6.7761     0.1175 C.ar    
  21 C21            4.1180     6.6381     0.2367 C.ar    
  22 C22            4.9192     7.7608     0.2871 C.ar    
  23 C23            4.3532     9.0211     0.2196 C.ar    
  24 C24            2.9825     9.1639     0.1012 C.ar    
  25 C25            2.1722     8.0480     0.0446 C.ar    
  26 O26           -2.0402     5.9104    -0.0308 O.2     
  27 Br27           3.2299     2.3208    -1.9061 Br      
  28 C28           -7.1204     5.6598    -0.3070 C.1     
  29 N29           -7.9798     6.4024    -0.2833 N.1     
  30 H30           -0.3780     1.9376     1.5286 H       
  31 H31           -0.3482    -0.5228     1.5673 H       
  32 H32            1.2082    -1.7604     0.1171 H       
  33 H33            2.7424    -0.5423    -1.3724 H       
  34 H34           -0.1668     6.4418    -0.1239 H       
  35 H35           -1.4524     2.8878    -0.2716 H       
  36 H36           -4.5163     6.2285    -0.1260 H       
  37 H37           -7.3142     3.0073    -0.5543 H       
  38 H38           -5.4577     1.3984    -0.6044 H       
  39 H39           -3.1357     2.1806    -0.4249 H       
  40 H40            4.5609     5.6546     0.2898 H       
  41 H41            5.9900     7.6551     0.3798 H       
  42 H42            4.9838     9.8970     0.2598 H       
  43 H43            2.5457    10.1503     0.0493 H       
  44 H44            1.1021     8.1606    -0.0482 H       
@<TRIPOS>BOND
   1    1    2 ar
   2    1    6 ar
   3    1   30 1
   4    2    3 ar
   5    2   31 1
   6    3    4 ar
   7    3   32 1
   8    4    5 ar
   9    4   33 1
  10    5    6 ar
  11    5   27 1
  12    6    7 1
  13    7    8 1
  14    7   11 1
  15    8    9 2
  16    8   12 1
  17    9   10 1
  18    9   34 1
  19   10   11 2
  20   10   20 1
  21   12   13 am
  22   12   35 1
  23   13   14 1
  24   13   26 2
  25   14   15 ar
  26   14   19 ar
  27   15   16 ar
  28   15   36 1
  29   16   17 ar
  30   16   28 1
  31   17   18 ar
  32   17   37 1
  33   18   19 ar
  34   18   38 1
  35   19   39 1
  36   20   21 ar
  37   20   25 ar
  38   21   22 ar
  39   21   40 1
  40   22   23 ar
  41   22   41 1
  42   23   24 ar
  43   23   42 1
  44   24   25 ar
  45   24   43 1
  46   25   44 1
  47   28   29 3

#	End of record

