#	Name: ASD08150201
#	Creating user name:	WinNT
#	Creation time:	15. 06. 2019 21:15

#	Modifying user name:	WinNT
#	Modification time:	15. 06. 2019 21:15

#	Program:	/corina/corina34_cracker 3.40 0067  02.08.2006

@<TRIPOS>MOLECULE
ASD08150201
  53   57    0    0    0
SMALL
NO_CHARGES


@<TRIPOS>ATOM
   1 N1            -0.0157     1.2951    -0.0515 N.2     
   2 C2             0.0018    -0.0026    -0.0874 C.2     
   3 N3             1.1464    -0.7343    -0.1048 N.am    
   4 C4             2.3544    -0.1243    -0.0848 C.2     
   5 C5             2.3698     1.3455    -0.0439 C.ar    
   6 C6             3.5600     2.0697    -0.0212 C.ar    
   7 C7             3.5164     3.4462     0.0164 C.ar    
   8 C8             2.2988     4.1141     0.0322 C.ar    
   9 C9             1.1117     3.4172     0.0107 C.ar    
  10 C10            1.1297     2.0215    -0.0284 C.ar    
  11 O11            3.3878    -0.7674    -0.0995 O.2     
  12 C12            4.8853     1.3525    -0.0372 C.3     
  13 C13            1.0724    -2.1968    -0.1451 C.3     
  14 C14            1.7699    -2.7082    -1.4072 C.3     
  15 C15            1.6926    -4.2357    -1.4493 C.3     
  16 C16            2.3842    -4.8155    -0.2139 C.3     
  17 C17            1.6867    -4.3042     1.0482 C.3     
  18 C18            1.7640    -2.7767     1.0903 C.3     
  19 C19           -1.3151    -0.7349    -0.1106 C.3     
  20 S20           -2.6720     0.4626    -0.0804 S.3     
  21 N21           -5.9128     1.1017    -0.0703 N.2     
  22 C22           -7.2100     1.0022    -0.0764 C.2     
  23 N23           -7.5759    -0.3117    -0.1138 N.pl3   
  24 C24           -6.4252    -1.0585    -0.1316 C.ar    
  25 N25           -6.1529    -2.3593    -0.1675 N.ar    
  26 C26           -4.9000    -2.7852    -0.1765 C.ar    
  27 N27           -3.8684    -1.9516    -0.1499 N.ar    
  28 C28           -4.0498    -0.6352    -0.1138 C.ar    
  29 C29           -5.3650    -0.1378    -0.1033 C.ar    
  30 N30           -4.6574    -4.1485    -0.2136 N.pl3   
  31 H31            4.4369     4.0107     0.0341 H       
  32 H32            2.2830     5.1935     0.0621 H       
  33 H33            0.1710     3.9475     0.0234 H       
  34 H34            5.1525     1.1056    -1.0647 H       
  35 H35            5.6522     1.9967     0.3929 H       
  36 H36            4.8098     0.4365     0.5487 H       
  37 H37            0.0277    -2.5076    -0.1561 H       
  38 H38            1.2772    -2.2951    -2.2874 H       
  39 H39            2.8146    -2.3974    -1.3962 H       
  40 H40            0.6479    -4.5464    -1.4603 H       
  41 H41            2.1895    -4.6000    -2.3484 H       
  42 H42            2.3292    -5.9037    -0.2438 H       
  43 H43            3.4289    -4.5048    -0.2029 H       
  44 H44            0.6420    -4.6150     1.0372 H       
  45 H45            2.1794    -4.7173     1.9284 H       
  46 H46            2.8087    -2.4660     1.1013 H       
  47 H47            1.2670    -2.4124     1.9895 H       
  48 H48           -1.3809    -1.3357    -1.0178 H       
  49 H49           -1.3848    -1.3850     0.7615 H       
  50 H50           -7.8957     1.8363    -0.0550 H       
  51 H51           -8.4832    -0.6548    -0.1257 H       
  52 H52           -5.3995    -4.7729    -0.2326 H       
  53 H53           -3.7454    -4.4788    -0.2208 H       
@<TRIPOS>BOND
   1    1    2 2
   2    1   10 1
   3    2    3 1
   4    2   19 1
   5    3    4 am
   6    3   13 1
   7    4    5 1
   8    4   11 2
   9    5    6 ar
  10    5   10 ar
  11    6    7 ar
  12    6   12 1
  13    7    8 ar
  14    7   31 1
  15    8    9 ar
  16    8   32 1
  17    9   10 ar
  18    9   33 1
  19   12   34 1
  20   12   35 1
  21   12   36 1
  22   13   14 1
  23   13   18 1
  24   13   37 1
  25   14   15 1
  26   14   38 1
  27   14   39 1
  28   15   16 1
  29   15   40 1
  30   15   41 1
  31   16   17 1
  32   16   42 1
  33   16   43 1
  34   17   18 1
  35   17   44 1
  36   17   45 1
  37   18   46 1
  38   18   47 1
  39   19   20 1
  40   19   48 1
  41   19   49 1
  42   20   28 1
  43   21   22 2
  44   21   29 1
  45   22   23 1
  46   22   50 1
  47   23   24 1
  48   23   51 1
  49   24   25 ar
  50   24   29 ar
  51   25   26 ar
  52   26   27 ar
  53   26   30 1
  54   27   28 ar
  55   28   29 ar
  56   30   52 1
  57   30   53 1

#	End of record

