#	Name: ASD04590800
#	Creating user name:	WinNT
#	Creation time:	15. 06. 2019 20:51

#	Modifying user name:	WinNT
#	Modification time:	15. 06. 2019 20:51

#	Program:	/corina/corina34_cracker 3.40 0067  02.08.2006

@<TRIPOS>MOLECULE
ASD04590800
  39   41    0    0    0
SMALL
NO_CHARGES


@<TRIPOS>ATOM
   1 O1            -0.0173     1.4256     0.0099 O.3     
   2 C2             0.0021    -0.0041     0.0020 C.3     
   3 C3             0.9389    -0.5068     1.0650 C.2     
   4 N4             1.8486     0.2818     1.6503 N.am    
   5 C5             1.9767     1.7025     1.3336 C.3     
   6 C6             1.2919     2.0032     0.0005 C.3     
   7 C7             2.1079     1.4018    -1.1454 C.3     
   8 C8             1.4426     1.7532    -2.4783 C.3     
   9 N9             1.3652     3.2131    -2.6177 N.3     
  10 C10            0.5438     3.8062    -1.5548 C.3     
  11 C11            1.1819     3.5166    -0.1939 C.3     
  12 O12            0.8676    -1.6689     1.4048 O.2     
  13 C13            0.8603     3.5891    -3.9450 C.3     
  14 C14            0.5624     5.0661    -3.9692 C.ar    
  15 C15            1.5450     5.9634    -4.3437 C.ar    
  16 C16            1.2717     7.3183    -4.3659 C.ar    
  17 C17            0.0157     7.7759    -4.0139 C.ar    
  18 C18           -0.9672     6.8785    -3.6402 C.ar    
  19 C19           -0.6952     5.5233    -3.6222 C.ar    
  20 H20           -1.0020    -0.3811     0.1962 H       
  21 H21            0.3380    -0.3565    -0.9732 H       
  22 H22            2.4458    -0.1047     2.3097 H       
  23 H23            1.5089     2.2926     2.1217 H       
  24 H24            3.0326     1.9644     1.2655 H       
  25 H25            3.1189     1.8087    -1.1248 H       
  26 H26            2.1487     0.3183    -1.0335 H       
  27 H27            2.0310     1.3407    -3.2979 H       
  28 H28            0.4376     1.3320    -2.5048 H       
  29 H29            0.4799     4.8841    -1.7040 H       
  30 H30           -0.4569     3.3753    -1.5859 H       
  31 H31            0.5624     3.9410     0.5961 H       
  32 H32            2.1762     3.9616    -0.1561 H       
  33 H33            1.6129     3.3578    -4.6989 H       
  34 H34           -0.0513     3.0310    -4.1585 H       
  35 H35            2.5263     5.6059    -4.6187 H       
  36 H36            2.0396     8.0194    -4.6578 H       
  37 H37           -0.1976     8.8345    -4.0305 H       
  38 H38           -1.9484     7.2361    -3.3649 H       
  39 H39           -1.4642     4.8220    -3.3338 H       
@<TRIPOS>BOND
   1    1    2 1
   2    1    6 1
   3    2    3 1
   4    2   20 1
   5    2   21 1
   6    3    4 am
   7    3   12 2
   8    4    5 1
   9    4   22 1
  10    5    6 1
  11    5   23 1
  12    5   24 1
  13    6    7 1
  14    6   11 1
  15    7    8 1
  16    7   25 1
  17    7   26 1
  18    8    9 1
  19    8   27 1
  20    8   28 1
  21    9   10 1
  22    9   13 1
  23   10   11 1
  24   10   29 1
  25   10   30 1
  26   11   31 1
  27   11   32 1
  28   13   14 1
  29   13   33 1
  30   13   34 1
  31   14   15 ar
  32   14   19 ar
  33   15   16 ar
  34   15   35 1
  35   16   17 ar
  36   16   36 1
  37   17   18 ar
  38   17   37 1
  39   18   19 ar
  40   18   38 1
  41   19   39 1

#	End of record

