#	Name: ASD00111014
#	Creating user name:	WinNT
#	Creation time:	15. 06. 2019 18:30

#	Modifying user name:	WinNT
#	Modification time:	15. 06. 2019 18:30

#	Program:	/corina/corina34_cracker 3.40 0067  02.08.2006

@<TRIPOS>MOLECULE
ASD00111014
  35   36    0    0    0
SMALL
NO_CHARGES


@<TRIPOS>ATOM
   1 C1            -0.0167     1.3839     0.0097 C.ar    
   2 C2             0.0021    -0.0041     0.0020 C.ar    
   3 C3            -1.1910    -0.7133     0.0091 C.ar    
   4 C4            -2.3916    -0.0291     0.0236 C.ar    
   5 C5            -2.4082     1.3447     0.0320 C.ar    
   6 C6            -1.2241     2.0591     0.0306 C.ar    
   7 C7            -3.6958    -0.7995     0.0298 C.3     
   8 C8            -4.3579    -0.6131     1.3986 C.3     
   9 N9            -5.1354     0.6148     1.4345 N.3     
  10 C10           -4.3877     1.8614     1.4148 C.3     
  11 C11           -3.7312     2.0824     0.0489 C.3     
  12 C12           -3.4911     3.5771    -0.1722 C.3     
  13 Cl13           1.4746     2.2724     0.0002 Cl      
  14 O14            1.1880    -0.6681    -0.0128 O.3     
  15 C15            1.1319    -2.0960    -0.0199 C.3     
  16 C16            2.5319    -2.6536    -0.0362 C.2     
  17 C17            2.8511    -3.6455     0.7577 C.2     
  18 H18           -1.1812    -1.7932     0.0029 H       
  19 H19           -1.2419     3.1389     0.0370 H       
  20 H20           -4.3525    -0.4164    -0.7512 H       
  21 H21           -3.4983    -1.8576    -0.1417 H       
  22 H22           -5.0154    -1.4596     1.5971 H       
  23 H23           -3.5864    -0.5715     2.1674 H       
  24 H24           -5.8506     0.6108     0.7228 H       
  25 H25           -5.0651     2.6890     1.6251 H       
  26 H26           -3.6148     1.8279     2.1827 H       
  27 H27           -4.3786     1.6935    -0.7371 H       
  28 H28           -2.8352     3.9593     0.6100 H       
  29 H29           -3.0240     3.7301    -1.1450 H       
  30 H30           -4.4432     4.1069    -0.1389 H       
  31 H31            0.6127    -2.4437     0.8732 H       
  32 H32            0.5958    -2.4341    -0.9067 H       
  33 H33            3.2720    -2.2355    -0.7024 H       
  34 H34            2.1110    -4.0637     1.4239 H       
  35 H35            3.8544    -4.0452     0.7460 H       
@<TRIPOS>BOND
   1    1    2 ar
   2    1   13 1
   3    1    6 ar
   4    2    3 ar
   5    2   14 1
   6    3    4 ar
   7    3   18 1
   8    4    5 ar
   9    4    7 1
  10    5    6 ar
  11    5   11 1
  12    6   19 1
  13    7    8 1
  14    7   20 1
  15    7   21 1
  16    8    9 1
  17    8   22 1
  18    8   23 1
  19    9   10 1
  20    9   24 1
  21   10   11 1
  22   10   25 1
  23   10   26 1
  24   11   12 1
  25   11   27 1
  26   12   28 1
  27   12   29 1
  28   12   30 1
  29   14   15 1
  30   15   16 1
  31   15   31 1
  32   15   32 1
  33   16   17 2
  34   16   33 1
  35   17   34 1
  36   17   35 1

#	End of record

