#	Name: ASD01912622
#	Creating user name:	WinNT
#	Creation time:	15. 06. 2019 20:00

#	Modifying user name:	WinNT
#	Modification time:	15. 06. 2019 20:00

#	Program:	/corina/corina34_cracker 3.40 0067  02.08.2006

@<TRIPOS>MOLECULE
ASD01912622
  59   63    0    0    0
SMALL
NO_CHARGES


@<TRIPOS>ATOM
   1 C1             0.0004     1.4166    -0.3878 C.ar    
   2 C2            -1.2144     1.9576     0.0336 C.ar    
   3 C3             1.2604     2.1625    -0.1729 C.2     
   4 N4             1.3790     3.5090     0.0077 N.pl3   
   5 C5             2.5136     1.6274    -0.1135 C.2     
   6 C6             3.4196     2.6796     0.1035 C.2     
   7 N7             2.7378     3.8040     0.1755 N.2     
   8 C8             4.8915     2.5461     0.2330 C.ar    
   9 N9             5.4523     1.3475     0.1435 N.ar    
  10 C10            5.6714     3.6820     0.4417 C.ar    
  11 C11            7.0423     3.5448     0.5604 C.ar    
  12 C12            7.5924     2.2690     0.4660 C.ar    
  13 C13            6.7549     1.1835     0.2522 C.ar    
  14 C14            0.2789     4.4765     0.0230 C.3     
  15 C15           -0.1670     4.7077     1.4438 C.2     
  16 N16           -1.1739     5.5653     1.7030 N.am    
  17 O17            0.3801     4.1220     2.3541 O.2     
  18 C18           -1.6247     5.8055     3.0823 C.3     
  19 C19           -1.6541     7.3177     3.3284 C.3     
  20 N20           -2.4653     7.9642     2.2882 N.3     
  21 C21           -1.8715     7.7790     0.9574 C.3     
  22 C22           -1.8469     6.2903     0.6147 C.3     
  23 C23           -2.6499     9.3074     2.5665 C.ar    
  24 N24           -3.3609    10.0494     1.7302 N.ar    
  25 C25           -3.5562    11.3361     1.9667 C.ar    
  26 C26           -3.0068    11.9054     3.1047 C.ar    
  27 C27           -2.2686    11.1004     3.9580 C.ar    
  28 N28           -2.1158     9.8195     3.6656 N.ar    
  29 C29           -2.3857     1.2573    -0.1698 C.ar    
  30 C30           -2.3571     0.0210    -0.7901 C.ar    
  31 C31           -1.1556    -0.5211    -1.2098 C.ar    
  32 C32            0.0232     0.1670    -1.0075 C.ar    
  33 O33            8.9351     2.0897     0.5765 O.3     
  34 C34            9.4218     0.7505     0.4686 C.3     
  35 F35            8.8534    -0.0350     1.4772 F       
  36 F36            9.0743     0.2273    -0.7815 F       
  37 H37           -1.2379     2.9224     0.5183 H       
  38 H38            2.7647     0.5819    -0.2145 H       
  39 H39            5.2112     4.6566     0.5095 H       
  40 H40            7.6719     4.4073     0.7221 H       
  41 H41            7.1757     0.1916     0.1781 H       
  42 H42            0.6172     5.4181    -0.4094 H       
  43 H43           -0.5552     4.0874    -0.5609 H       
  44 H44           -2.6245     5.3930     3.2178 H       
  45 H45           -0.9333     5.3342     3.7808 H       
  46 H46           -2.0901     7.5186     4.3069 H       
  47 H47           -0.6383     7.7115     3.2946 H       
  48 H48           -2.4652     8.3145     0.2165 H       
  49 H49           -0.8526     8.1664     0.9566 H       
  50 H50           -1.3049     6.1384    -0.3187 H       
  51 H51           -2.8674     5.9211     0.5130 H       
  52 H52           -4.1365    11.9358     1.2811 H       
  53 H53           -3.1505    12.9536     3.3217 H       
  54 H54           -1.8268    11.5132     4.8530 H       
  55 H55           -3.3268     1.6749     0.1563 H       
  56 H56           -3.2767    -0.5233    -0.9470 H       
  57 H57           -1.1396    -1.4869    -1.6929 H       
  58 H58            0.9606    -0.2571    -1.3359 H       
  59 H59           10.5066     0.7485     0.5745 H       
@<TRIPOS>BOND
   1    1    2 ar
   2    1    3 1
   3    1   32 ar
   4    2   29 ar
   5    2   37 1
   6    3    4 1
   7    3    5 2
   8    4   14 1
   9    4    7 1
  10    5    6 1
  11    5   38 1
  12    6    7 2
  13    6    8 1
  14    8    9 ar
  15    8   10 ar
  16    9   13 ar
  17   10   11 ar
  18   10   39 1
  19   11   12 ar
  20   11   40 1
  21   12   13 ar
  22   12   33 1
  23   13   41 1
  24   14   15 1
  25   14   42 1
  26   14   43 1
  27   15   16 am
  28   15   17 2
  29   16   18 1
  30   16   22 1
  31   18   19 1
  32   18   44 1
  33   18   45 1
  34   19   20 1
  35   19   46 1
  36   19   47 1
  37   20   21 1
  38   20   23 1
  39   21   22 1
  40   21   48 1
  41   21   49 1
  42   22   50 1
  43   22   51 1
  44   23   24 ar
  45   23   28 ar
  46   24   25 ar
  47   25   26 ar
  48   25   52 1
  49   26   27 ar
  50   26   53 1
  51   27   28 ar
  52   27   54 1
  53   29   30 ar
  54   29   55 1
  55   30   31 ar
  56   30   56 1
  57   31   32 ar
  58   31   57 1
  59   32   58 1
  60   33   34 1
  61   34   35 1
  62   34   36 1
  63   34   59 1

#	End of record

