#	Name: ASD02030800
#	Creating user name:	WinNT
#	Creation time:	15. 06. 2019 20:16

#	Modifying user name:	WinNT
#	Modification time:	15. 06. 2019 20:16

#	Program:	/corina/corina34_cracker 3.40 0067  02.08.2006

@<TRIPOS>MOLECULE
ASD02030800
  81   84    0    0    0
SMALL
NO_CHARGES


@<TRIPOS>ATOM
   1 H1             0.0297    -0.3007     0.1524 H       
   2 C2             0.0351     0.7889     0.1797 C.3     
   3 C3            -0.5583     1.3614    -1.1317 C.3     
   4 C4             0.5945     2.1276    -1.8363 C.3     
   5 C5             1.8498     1.4620    -1.2616 C.3     
   6 H6             2.0021     0.4835    -1.7171 H       
   7 C7             3.1213     2.2893    -1.3200 C.3     
   8 H8             2.9734     3.2440    -0.8153 H       
   9 C9             3.5291     2.4989    -2.7826 C.3     
  10 C10            4.8716     3.1684    -2.8301 C.2     
  11 C11            5.7510     3.0615    -1.8776 C.2     
  12 C12            7.0808     3.7778    -2.0429 C.3     
  13 C13            8.2070     2.7702    -1.7944 C.3     
  14 O14            9.4664     3.4442    -1.8332 O.3     
  15 C15            8.0176     2.1222    -0.4217 C.3     
  16 C16            6.7141     1.3212    -0.4059 C.3     
  17 C17            5.5320     2.2700    -0.6226 C.3     
  18 C18            5.4837     3.2461     0.5546 C.3     
  19 C19            4.2297     1.4869    -0.6246 C.3     
  20 H20            4.3859     0.5627    -1.1810 H       
  21 C21            3.8493     1.1151     0.8057 C.3     
  22 C22            2.4963     0.3891     0.8653 C.3     
  23 C23            1.4680     1.3091     0.2351 C.3     
  24 C24            1.4977     2.6764     0.9210 C.3     
  25 C25            8.1731     1.6899    -2.8774 C.3     
  26 F26            8.4942     2.2594    -4.1142 F       
  27 F27            9.1023     0.6907    -2.5687 F       
  28 F28            6.8916     1.1320    -2.9395 F       
  29 C29           -0.7586     1.2921     1.3870 C.3     
  30 H30           -0.7059     2.3801     1.4286 H       
  31 C31           -0.1655     0.7034     2.6686 C.3     
  32 C32           -2.2194     0.8570     1.2543 C.3     
  33 C33           -3.0381     1.4643     2.3954 C.3     
  34 C34           -4.4989     1.0291     2.2627 C.3     
  35 O35           -4.5926    -0.3855     2.4414 O.3     
  36 C36           -5.3400     1.7347     3.3284 C.3     
  37 C37           -5.2396     3.2493     3.1371 C.3     
  38 C38           -6.8008     1.2995     3.1958 C.3     
  39 C39           -4.8206     1.3606     4.7181 C.3     
  40 H40           -0.9119     0.5501    -1.7678 H       
  41 H41           -1.3774     2.0439    -0.9050 H       
  42 H42            0.5452     1.9903    -2.9164 H       
  43 H43            0.5674     3.1865    -1.5793 H       
  44 H44            3.5854     1.5341    -3.2868 H       
  45 H45            2.7908     3.1279    -3.2799 H       
  46 H46            5.1190     3.7661    -3.6950 H       
  47 H47            7.1604     4.1750    -3.0549 H       
  48 H48            7.1511     4.5922    -1.3219 H       
  49 H49            9.6538     3.8794    -2.6762 H       
  50 H50            8.8554     1.4558    -0.2165 H       
  51 H51            7.9760     2.8978     0.3429 H       
  52 H52            6.7345     0.5777    -1.2028 H       
  53 H53            6.6068     0.8204     0.5563 H       
  54 H54            4.5781     3.8492     0.4895 H       
  55 H55            5.4814     2.6870     1.4903 H       
  56 H56            6.3571     3.8974     0.5226 H       
  57 H57            4.6197     0.4652     1.2206 H       
  58 H58            3.7918     2.0234     1.4055 H       
  59 H59            2.5511    -0.5452     0.3064 H       
  60 H60            2.2283     0.1874     1.9025 H       
  61 H61            1.2139     2.5642     1.9674 H       
  62 H62            2.5036     3.0917     0.8599 H       
  63 H63            0.7968     3.3474     0.4243 H       
  64 H64           -0.1430    -0.3837     2.5926 H       
  65 H65            0.8485     1.0790     2.8056 H       
  66 H66           -0.7794     0.9954     3.5206 H       
  67 H67           -2.6159     1.2017     0.2993 H       
  68 H68           -2.2804    -0.2302     1.3020 H       
  69 H69           -2.6416     1.1196     3.3504 H       
  70 H70           -2.9770     2.5515     2.3477 H       
  71 H71           -4.8689     1.2956     1.2727 H       
  72 H72           -4.2799    -0.6948     3.3026 H       
  73 H73           -5.6096     3.5158     2.1470 H       
  74 H74           -5.8388     3.7519     3.8963 H       
  75 H75           -4.1989     3.5593     3.2316 H       
  76 H76           -6.8723     0.2205     3.3321 H       
  77 H77           -7.4000     1.8022     3.9550 H       
  78 H78           -7.1708     1.5660     2.2057 H       
  79 H79           -3.7799     1.6706     4.8126 H       
  80 H80           -5.4198     1.8632     5.4774 H       
  81 H81           -4.8921     0.2815     4.8544 H       
@<TRIPOS>BOND
   1    1    2 1
   2    2   23 1
   3    2    3 1
   4    2   29 1
   5    3    4 1
   6    3   40 1
   7    3   41 1
   8    4    5 1
   9    4   42 1
  10    4   43 1
  11    5   23 1
  12    5    6 1
  13    5    7 1
  14    7   19 1
  15    7    8 1
  16    7    9 1
  17    9   10 1
  18    9   44 1
  19    9   45 1
  20   10   11 2
  21   10   46 1
  22   11   17 1
  23   11   12 1
  24   12   13 1
  25   12   47 1
  26   12   48 1
  27   13   14 1
  28   13   15 1
  29   13   25 1
  30   14   49 1
  31   15   16 1
  32   15   50 1
  33   15   51 1
  34   16   17 1
  35   16   52 1
  36   16   53 1
  37   17   18 1
  38   17   19 1
  39   18   54 1
  40   18   55 1
  41   18   56 1
  42   19   20 1
  43   19   21 1
  44   21   22 1
  45   21   57 1
  46   21   58 1
  47   22   23 1
  48   22   59 1
  49   22   60 1
  50   23   24 1
  51   24   61 1
  52   24   62 1
  53   24   63 1
  54   25   26 1
  55   25   27 1
  56   25   28 1
  57   29   30 1
  58   29   31 1
  59   29   32 1
  60   31   64 1
  61   31   65 1
  62   31   66 1
  63   32   33 1
  64   32   67 1
  65   32   68 1
  66   33   34 1
  67   33   69 1
  68   33   70 1
  69   34   35 1
  70   34   36 1
  71   34   71 1
  72   35   72 1
  73   36   37 1
  74   36   38 1
  75   36   39 1
  76   37   73 1
  77   37   74 1
  78   37   75 1
  79   38   76 1
  80   38   77 1
  81   38   78 1
  82   39   79 1
  83   39   80 1
  84   39   81 1

#	End of record

