#	Name: ASD01913133
#	Creating user name:	WinNT
#	Creation time:	15. 06. 2019 20:01

#	Modifying user name:	WinNT
#	Modification time:	15. 06. 2019 20:01

#	Program:	/corina/corina34_cracker 3.40 0067  02.08.2006

@<TRIPOS>MOLECULE
ASD01913133
  46   48    0    0    0
SMALL
NO_CHARGES


@<TRIPOS>ATOM
   1 C1             0.0404     1.1749     0.0603 C.ar    
   2 C2             0.0301    -0.2094     0.0829 C.ar    
   3 C3            -1.1711    -0.8918     0.0926 C.ar    
   4 C4            -2.3671    -0.1894     0.0797 C.ar    
   5 C5            -2.3553     1.1974     0.0571 C.ar    
   6 C6            -1.1527     1.8773     0.0528 C.ar    
   7 F7             1.2158     1.8410     0.0513 F       
   8 O8            -3.5498    -0.8597     0.0888 O.3     
   9 C9            -4.7420    -0.0719     0.0746 C.3     
  10 C10           -5.9628    -0.9941     0.0877 C.3     
  11 C11           -7.2201    -0.1634     0.0727 C.2     
  12 N12           -8.4258    -0.7656     0.0806 N.am    
  13 C13           -9.6652     0.0261     0.0663 C.3     
  14 C14          -10.5643    -0.4973    -1.0589 C.3     
  15 N15          -10.7538    -1.9450    -0.8964 N.3     
  16 C16           -9.4805    -2.6666    -1.0226 C.3     
  17 C17           -8.5371    -2.2321     0.0978 C.3     
  18 O18           -7.1469     1.0470     0.0534 O.2     
  19 C19          -11.6930    -2.4293    -1.8009 C.ar    
  20 C20          -13.0378    -2.0407    -1.6967 C.ar    
  21 C21          -13.9721    -2.5350    -2.6125 C.ar    
  22 C22          -13.5667    -3.3992    -3.6099 C.ar    
  23 C23          -12.2375    -3.7795    -3.7081 C.ar    
  24 C24          -11.3037    -3.2947    -2.8143 C.ar    
  25 Cl25         -14.7271    -4.0127    -4.7459 Cl      
  26 Cl26         -15.6387    -2.0632    -2.4951 Cl      
  27 C27          -13.4506    -1.1443    -0.6591 C.1     
  28 N28          -13.7780    -0.4332     0.1641 N.1     
  29 H29            0.9615    -0.7561     0.0926 H       
  30 H30           -1.1789    -1.9716     0.1099 H       
  31 H31           -3.2858     1.7455     0.0467 H       
  32 H32           -1.1432     2.9571     0.0355 H       
  33 H33           -4.7631     0.5712     0.9544 H       
  34 H34           -4.7607     0.5427    -0.8253 H       
  35 H35           -5.9418    -1.6373    -0.7921 H       
  36 H36           -5.9442    -1.6088     0.9876 H       
  37 H37          -10.1774    -0.0781     1.0228 H       
  38 H38           -9.4277     1.0748    -0.1127 H       
  39 H39          -11.5314     0.0034    -1.0144 H       
  40 H40          -10.0948    -0.2978    -2.0222 H       
  41 H41           -9.6618    -3.7391    -0.9519 H       
  42 H42           -9.0262    -2.4369    -1.9864 H       
  43 H43           -7.5544    -2.6773    -0.0578 H       
  44 H44           -8.9389    -2.5517     1.0593 H       
  45 H45          -11.9296    -4.4563    -4.4914 H       
  46 H46          -10.2700    -3.5961    -2.8983 H       
@<TRIPOS>BOND
   1    1    2 ar
   2    1    7 1
   3    1    6 ar
   4    2    3 ar
   5    2   29 1
   6    3    4 ar
   7    3   30 1
   8    4    5 ar
   9    4    8 1
  10    5    6 ar
  11    5   31 1
  12    6   32 1
  13    8    9 1
  14    9   10 1
  15    9   33 1
  16    9   34 1
  17   10   11 1
  18   10   35 1
  19   10   36 1
  20   11   12 am
  21   11   18 2
  22   12   13 1
  23   12   17 1
  24   13   14 1
  25   13   37 1
  26   13   38 1
  27   14   15 1
  28   14   39 1
  29   14   40 1
  30   15   16 1
  31   15   19 1
  32   16   17 1
  33   16   41 1
  34   16   42 1
  35   17   43 1
  36   17   44 1
  37   19   20 ar
  38   19   24 ar
  39   20   21 ar
  40   20   27 1
  41   21   22 ar
  42   21   26 1
  43   22   23 ar
  44   22   25 1
  45   23   24 ar
  46   23   45 1
  47   24   46 1
  48   27   28 3

#	End of record

