#	Name: ASD02590046
#	Creating user name:	WinNT
#	Creation time:	15. 06. 2019 20:25

#	Modifying user name:	WinNT
#	Modification time:	15. 06. 2019 20:25

#	Program:	/corina/corina34_cracker 3.40 0067  02.08.2006

@<TRIPOS>MOLECULE
ASD02590046
  32   34    0    0    0
SMALL
NO_CHARGES


@<TRIPOS>ATOM
   1 C1            -0.0167     1.3830     0.0096 C.ar    
   2 C2             0.0021    -0.0041     0.0020 C.ar    
   3 C3             1.1990    -0.6883    -0.0127 C.ar    
   4 C4             2.3982     0.0120    -0.0204 C.ar    
   5 C5             2.3902     1.4176    -0.0133 C.ar    
   6 C6             1.1636     2.0995     0.0022 C.ar    
   7 N7             3.7259    -0.3652    -0.0352 N.pl3   
   8 C8             4.4729     0.7830    -0.0367 C.2     
   9 N9             3.6812     1.8261    -0.0238 N.2     
  10 C10            5.9515     0.8366    -0.0504 C.ar    
  11 C11            6.5974     2.0706    -0.0505 C.ar    
  12 C12            7.9830     2.1082    -0.0630 C.ar    
  13 C13            8.6782     0.9108    -0.0749 C.ar    
  14 C14            7.9717    -0.2874    -0.0740 C.ar    
  15 N15            6.6514    -0.2931    -0.0569 N.ar    
  16 O16            1.1377     3.4581     0.0089 O.3     
  17 C17           -0.1476     4.0824     0.0247 C.3     
  18 O18            8.6471    -1.4639    -0.0861 O.3     
  19 C19            7.8659    -2.6605    -0.0845 C.3     
  20 H20           -0.9615     1.9063     0.0170 H       
  21 H21           -0.9284    -0.5524     0.0080 H       
  22 H22            1.2039    -1.7683    -0.0178 H       
  23 H23            4.0663    -1.2735    -0.0431 H       
  24 H24            6.0257     2.9868    -0.0414 H       
  25 H25            8.5092     3.0514    -0.0637 H       
  26 H26            9.7581     0.9071    -0.0850 H       
  27 H27           -0.7078     3.7831    -0.8611 H       
  28 H28           -0.6900     3.7747     0.9187 H       
  29 H29           -0.0254     5.1655     0.0286 H       
  30 H30            7.2454    -2.6881     0.8112 H       
  31 H31            7.2286    -2.6795    -0.9686 H       
  32 H32            8.5277    -3.5265    -0.0949 H       
@<TRIPOS>BOND
   1    1    2 ar
   2    1    6 ar
   3    1   20 1
   4    2    3 ar
   5    2   21 1
   6    3    4 ar
   7    3   22 1
   8    4    5 ar
   9    4    7 1
  10    5    6 ar
  11    5    9 1
  12    6   16 1
  13    7    8 1
  14    7   23 1
  15    8    9 2
  16    8   10 1
  17   10   11 ar
  18   10   15 ar
  19   11   12 ar
  20   11   24 1
  21   12   13 ar
  22   12   25 1
  23   13   14 ar
  24   13   26 1
  25   14   15 ar
  26   14   18 1
  27   16   17 1
  28   17   27 1
  29   17   28 1
  30   17   29 1
  31   18   19 1
  32   19   30 1
  33   19   31 1
  34   19   32 1

#	End of record

