#	Name: ASD01810212
#	Creating user name:	WinNT
#	Creation time:	15. 06. 2019 19:24

#	Modifying user name:	WinNT
#	Modification time:	15. 06. 2019 19:24

#	Program:	/corina/corina34_cracker 3.40 0067  02.08.2006

@<TRIPOS>MOLECULE
ASD01810212
  51   54    0    0    0
SMALL
NO_CHARGES


@<TRIPOS>ATOM
   1 C1             0.1038     1.4771     0.3905 C.ar    
   2 C2             0.0849     0.0899     0.3824 C.ar    
   3 C3             1.2535    -0.6295     0.2404 C.ar    
   4 C4             2.4697     0.0388     0.1031 C.ar    
   5 C5             2.4840     1.4435     0.1118 C.ar    
   6 C6             1.2941     2.1570     0.2563 C.ar    
   7 N7             3.6451    -0.6678    -0.0386 N.pl3   
   8 C8             4.8373    -0.0734    -0.1722 C.2     
   9 C9             4.9779     1.2999    -0.1780 C.2     
  10 C10            3.7768     2.1382    -0.0343 C.2     
  11 O11            3.8478     3.3547    -0.0335 O.2     
  12 C12            6.3048     1.9145    -0.3260 C.2     
  13 O13            6.4292     3.2568    -0.3301 O.3     
  14 O14            7.2900     1.2124    -0.4448 O.2     
  15 C15            3.5871    -2.1316    -0.0427 C.3     
  16 C16            3.4445    -2.6248    -1.4595 C.ar    
  17 C17            4.5665    -2.7659    -2.2562 C.ar    
  18 C18            4.4418    -3.2172    -3.5545 C.ar    
  19 C19            3.1827    -3.5307    -4.0624 C.ar    
  20 C20            2.0559    -3.3867    -3.2555 C.ar    
  21 C21            2.1929    -2.9400    -1.9568 C.ar    
  22 C22            3.0423    -4.0159    -5.4577 C.ar    
  23 C23            4.1632    -4.1659    -6.2817 C.ar    
  24 C24            3.9930    -4.6192    -7.5723 C.ar    
  25 N25            2.7926    -4.9110    -8.0371 N.ar    
  26 C26            1.7040    -4.7842    -7.2930 C.ar    
  27 C27            1.7902    -4.3397    -5.9801 C.ar    
  28 F28            1.2196    -1.9801     0.2348 F       
  29 N29            0.4624    -5.1051    -7.8304 N.pl3   
  30 C30           -0.7562    -4.8647    -7.0536 C.3     
  31 C31            0.3728    -5.6837    -9.1733 C.3     
  32 H32           -0.8198     2.0265     0.4980 H       
  33 H33           -0.8544    -0.4323     0.4888 H       
  34 H34            1.3061     3.2369     0.2626 H       
  35 H35            5.7183    -0.6888    -0.2787 H       
  36 H36            7.3219     3.6147    -0.4302 H       
  37 H37            4.5030    -2.5327     0.3912 H       
  38 H38            2.7311    -2.4629     0.5452 H       
  39 H39            5.5419    -2.5223    -1.8616 H       
  40 H40            5.3184    -3.3267    -4.1758 H       
  41 H41            1.0776    -3.6282    -3.6442 H       
  42 H42            1.3202    -2.8279    -1.3305 H       
  43 H43            5.1497    -3.9291    -5.9112 H       
  44 H44            4.8545    -4.7369    -8.2129 H       
  45 H45            0.9008    -4.2373    -5.3760 H       
  46 H46           -1.1284    -3.8618    -7.2627 H       
  47 H47           -1.5137    -5.5983    -7.3297 H       
  48 H48           -0.5332    -4.9552    -5.9905 H       
  49 H49            1.3740    -5.7876    -9.5917 H       
  50 H50           -0.1005    -6.6639    -9.1158 H       
  51 H51           -0.2216    -5.0301    -9.8116 H       
@<TRIPOS>BOND
   1    1    2 ar
   2    1    6 ar
   3    1   32 1
   4    2    3 ar
   5    2   33 1
   6    3    4 ar
   7    3   28 1
   8    4    5 ar
   9    4    7 1
  10    5    6 ar
  11    5   10 1
  12    6   34 1
  13    7    8 1
  14    7   15 1
  15    8    9 2
  16    8   35 1
  17    9   10 1
  18    9   12 1
  19   10   11 2
  20   12   13 1
  21   12   14 2
  22   13   36 1
  23   15   16 1
  24   15   37 1
  25   15   38 1
  26   16   17 ar
  27   16   21 ar
  28   17   18 ar
  29   17   39 1
  30   18   19 ar
  31   18   40 1
  32   19   20 ar
  33   19   22 1
  34   20   21 ar
  35   20   41 1
  36   21   42 1
  37   22   23 ar
  38   22   27 ar
  39   23   24 ar
  40   23   43 1
  41   24   25 ar
  42   24   44 1
  43   25   26 ar
  44   26   27 ar
  45   26   29 1
  46   27   45 1
  47   29   30 1
  48   29   31 1
  49   30   46 1
  50   30   47 1
  51   30   48 1
  52   31   49 1
  53   31   50 1
  54   31   51 1

#	End of record

