#	Name: ASD02198788
#	Creating user name:	WinNT
#	Creation time:	15. 06. 2019 20:20

#	Modifying user name:	WinNT
#	Modification time:	15. 06. 2019 20:20

#	Program:	/corina/corina34_cracker 3.40 0067  02.08.2006

@<TRIPOS>MOLECULE
ASD02198788
  50   54    0    0    0
SMALL
NO_CHARGES


@<TRIPOS>ATOM
   1 C1            -0.0432     1.5014    -0.1152 C.2     
   2 C2            -0.0729     0.1618     0.0973 C.2     
   3 N3             1.0717    -0.5399     0.2601 N.pl3   
   4 N4             2.2362    -0.0051     0.2261 N.2     
   5 C5             2.4077     1.2842     0.0276 C.2     
   6 C6             1.2217     2.1355    -0.1606 C.2     
   7 C7             0.9803    -1.9173     0.4768 C.ar    
   8 C8             1.5827    -2.4879     1.5982 C.ar    
   9 C9             1.4915    -3.8515     1.8123 C.ar    
  10 C10            0.7975    -4.6520     0.9064 C.ar    
  11 C11            0.1969    -4.0766    -0.2134 C.ar    
  12 C12            0.2846    -2.7169    -0.4219 C.ar    
  13 C13            3.7646     1.8664    -0.0050 C.2     
  14 N14            4.3067     2.6063    -1.0182 N.pl3   
  15 N15            5.6084     2.9583    -0.6402 N.2     
  16 C16            5.8520     2.4592     0.5454 C.2     
  17 C17            4.7203     1.7711     0.9828 C.2     
  18 C18            3.6740     2.9504    -2.2195 C.ar    
  19 C19            3.8076     4.2334    -2.7337 C.ar    
  20 C20            3.1828     4.5694    -3.9187 C.ar    
  21 C21            2.4245     3.6299    -4.5928 C.ar    
  22 C22            2.2894     2.3514    -4.0834 C.ar    
  23 C23            2.9164     2.0075    -2.9018 C.ar    
  24 O24            1.3247     3.3384    -0.3488 O.2     
  25 C25            0.6982    -6.1136     1.1327 C.ar    
  26 N26            0.0341    -6.8602     0.2606 N.ar    
  27 N27            1.2803    -6.6447     2.1996 N.ar    
  28 C28            1.2111    -7.9444     2.4302 C.ar    
  29 C29            0.5198    -8.7536     1.5409 C.ar    
  30 C30           -0.0727    -8.1664     0.4328 C.ar    
  31 O31            2.2591    -1.7048     2.4795 O.3     
  32 C32            2.8508    -2.3566     3.6051 C.3     
  33 H33           -0.9547     2.0650    -0.2498 H       
  34 H34           -1.0227    -0.3508     0.1372 H       
  35 H35            1.9574    -4.2952     2.6797 H       
  36 H36           -0.3409    -4.6965    -0.9155 H       
  37 H37           -0.1814    -2.2733    -1.2893 H       
  38 H38            6.7752     2.5659     1.0955 H       
  39 H39            4.6143     1.2518     1.9239 H       
  40 H40            4.3992     4.9678    -2.2073 H       
  41 H41            3.2864     5.5671    -4.3191 H       
  42 H42            1.9363     3.8953    -5.5189 H       
  43 H43            1.6965     1.6199    -4.6122 H       
  44 H44            2.8108     1.0088    -2.5046 H       
  45 H45            1.6874    -8.3712     3.3005 H       
  46 H46            0.4480    -9.8186     1.7053 H       
  47 H47           -0.6182    -8.7687    -0.2787 H       
  48 H48            3.5713    -3.0974     3.2587 H       
  49 H49            3.3584    -1.6189     4.2267 H       
  50 H50            2.0739    -2.8506     4.1887 H       
@<TRIPOS>BOND
   1    1    2 2
   2    1    6 1
   3    1   33 1
   4    2    3 1
   5    2   34 1
   6    3    4 1
   7    3    7 1
   8    4    5 2
   9    5    6 1
  10    5   13 1
  11    6   24 2
  12    7    8 ar
  13    7   12 ar
  14    8    9 ar
  15    8   31 1
  16    9   10 ar
  17    9   35 1
  18   10   11 ar
  19   10   25 1
  20   11   12 ar
  21   11   36 1
  22   12   37 1
  23   13   14 1
  24   13   17 2
  25   14   15 1
  26   14   18 1
  27   15   16 2
  28   16   17 1
  29   16   38 1
  30   17   39 1
  31   18   19 ar
  32   18   23 ar
  33   19   20 ar
  34   19   40 1
  35   20   21 ar
  36   20   41 1
  37   21   22 ar
  38   21   42 1
  39   22   23 ar
  40   22   43 1
  41   23   44 1
  42   25   26 ar
  43   25   27 ar
  44   26   30 ar
  45   27   28 ar
  46   28   29 ar
  47   28   45 1
  48   29   30 ar
  49   29   46 1
  50   30   47 1
  51   31   32 1
  52   32   48 1
  53   32   49 1
  54   32   50 1

#	End of record

