#	Name: ASD03090201
#	Creating user name:	WinNT
#	Creation time:	15. 06. 2019 20:28

#	Modifying user name:	WinNT
#	Modification time:	15. 06. 2019 20:28

#	Program:	/corina/corina34_cracker 3.40 0067  02.08.2006

@<TRIPOS>MOLECULE
ASD03090201
  53   55    0    0    0
SMALL
NO_CHARGES


@<TRIPOS>ATOM
   1 N1             0.4488     1.5145     1.4699 N.ar    
   2 C2             0.4106     0.1962     1.4355 C.ar    
   3 C3             1.5369    -0.5373     1.1242 C.ar    
   4 C4             2.7298     0.1378     0.8429 C.ar    
   5 C5             2.7244     1.5358     0.8911 C.ar    
   6 C6             1.5521     2.1897     1.2115 C.ar    
   7 C7             3.9633    -0.6068     0.5044 C.2     
   8 N8             5.7411    -3.4558    -0.5330 N.pl3   
   9 C9             4.8141    -4.4453    -0.8766 C.ar    
  10 C10            3.5972    -4.0911    -1.4442 C.ar    
  11 C11            2.6832    -5.0699    -1.7827 C.ar    
  12 C12            2.9793    -6.4032    -1.5559 C.ar    
  13 C13            4.1922    -6.7588    -0.9899 C.ar    
  14 C14            5.1116    -5.7841    -0.6557 C.ar    
  15 N15            4.0272    -1.8628     0.1105 N.2     
  16 C16            5.2984    -2.2021    -0.1070 C.2     
  17 N17            6.0671    -1.1671     0.1449 N.2     
  18 N18            5.2225    -0.1167     0.5390 N.pl3   
  19 C19            5.6267     1.2390     0.9198 C.3     
  20 C20            5.7310     2.1110    -0.3330 C.3     
  21 C21            6.1468     3.5055     0.0587 C.2     
  22 F22            2.0835    -7.3588    -1.8869 F       
  23 N23            6.3032     4.4528    -0.8871 N.am    
  24 O24            6.3406     3.7753     1.2251 O.2     
  25 C25            6.7074     5.8084    -0.5063 C.3     
  26 C26            6.0691     4.1268    -2.2961 C.3     
  27 C27           -0.8806    -0.5182     1.7410 C.3     
  28 N28           -1.0140    -0.6888     3.1940 N.3     
  29 C29            4.5114    -8.2109    -0.7439 C.3     
  30 F30            5.7826    -8.3182    -0.1697 F       
  31 F31            3.5600    -8.7569     0.1243 F       
  32 F32            4.4880    -8.9057    -1.9580 F       
  33 H33            1.4984    -1.6163     1.0982 H       
  34 H34            3.6241     2.0950     0.6810 H       
  35 H35            1.5377     3.2688     1.2509 H       
  36 H36            6.6916    -3.6407    -0.5907 H       
  37 H37            3.3655    -3.0511    -1.6206 H       
  38 H38            1.7367    -4.7948    -2.2242 H       
  39 H39            6.0575    -6.0618    -0.2147 H       
  40 H40            4.8848     1.6627     1.5967 H       
  41 H41            6.5951     1.2027     1.4189 H       
  42 H42            6.4729     1.6873    -1.0099 H       
  43 H43            4.7626     2.1472    -0.8321 H       
  44 H44            7.7951     5.8791    -0.5145 H       
  45 H45            6.2915     6.5243    -1.2153 H       
  46 H46            6.3364     6.0306     0.4942 H       
  47 H47            5.0396     3.7929    -2.4255 H       
  48 H48            6.2436     5.0120    -2.9077 H       
  49 H49            6.7499     3.3329    -2.6033 H       
  50 H50           -1.7185     0.0694     1.3658 H       
  51 H51           -0.8778    -1.4958     1.2591 H       
  52 H52           -0.9546     0.1993     3.6693 H       
  53 H53           -1.8727    -1.1657     3.4247 H       
@<TRIPOS>BOND
   1    1    2 ar
   2    1    6 ar
   3    2    3 ar
   4    2   27 1
   5    3    4 ar
   6    3   33 1
   7    4    5 ar
   8    4    7 1
   9    5    6 ar
  10    5   34 1
  11    6   35 1
  12    7   15 2
  13    7   18 1
  14    8    9 1
  15    8   16 1
  16    8   36 1
  17    9   10 ar
  18    9   14 ar
  19   10   11 ar
  20   10   37 1
  21   11   12 ar
  22   11   38 1
  23   12   13 ar
  24   12   22 1
  25   13   14 ar
  26   13   29 1
  27   14   39 1
  28   15   16 1
  29   16   17 2
  30   17   18 1
  31   18   19 1
  32   19   20 1
  33   19   40 1
  34   19   41 1
  35   20   21 1
  36   20   42 1
  37   20   43 1
  38   21   23 am
  39   21   24 2
  40   23   25 1
  41   23   26 1
  42   25   44 1
  43   25   45 1
  44   25   46 1
  45   26   47 1
  46   26   48 1
  47   26   49 1
  48   27   28 1
  49   27   50 1
  50   27   51 1
  51   28   52 1
  52   28   53 1
  53   29   30 1
  54   29   31 1
  55   29   32 1

#	End of record

