#	Name: ASD01152232
#	Creating user name:	WinNT
#	Creation time:	15. 06. 2019 19:05

#	Modifying user name:	WinNT
#	Modification time:	15. 06. 2019 19:05

#	Program:	/corina/corina34_cracker 3.40 0067  02.08.2006

@<TRIPOS>MOLECULE
ASD01152232
  44   46    0    0    0
SMALL
NO_CHARGES


@<TRIPOS>ATOM
   1 C1             1.5898     4.3576     2.2180 C.2     
   2 C2             2.6673     4.6106     3.2407 C.3     
   3 O3             1.5058     3.2733     1.6811 O.2     
   4 N4             0.7159     5.3345     1.9041 N.am    
   5 C5            -0.2103     5.1400     0.8735 C.ar    
   6 C6            -1.4658     5.7261     0.9483 C.ar    
   7 C7            -2.3815     5.5308    -0.0758 C.ar    
   8 C8            -2.0388     4.7493    -1.1725 C.ar    
   9 C9            -0.7883     4.1669    -1.2436 C.ar    
  10 C10            0.1280     4.3646    -0.2282 C.ar    
  11 N11           -4.7882     5.3369    -0.2258 N.2     
  12 N12           -3.6491     6.1199    -0.0040 N.am    
  13 C13           -3.7568     7.4305     0.2776 C.2     
  14 N14           -4.9615     8.0266     0.3542 N.am    
  15 C15           -6.0846     7.3084     0.1473 C.2     
  16 C16           -5.9727     5.8799    -0.1599 C.2     
  17 O17           -7.1774     7.8402     0.2152 O.2     
  18 O18           -2.7509     8.0870     0.4662 O.2     
  19 C19           -5.0528     9.4557     0.6629 C.3     
  20 C20           -5.0222    10.2493    -0.6179 C.ar    
  21 C21           -6.2020    10.5512    -1.2720 C.ar    
  22 C22           -6.1746    11.2790    -2.4467 C.ar    
  23 C23           -4.9659    11.7053    -2.9679 C.ar    
  24 C24           -3.7855    11.4028    -2.3128 C.ar    
  25 C25           -3.8147    10.6798    -1.1352 C.ar    
  26 Cl26          -4.9306    12.6189    -4.4437 Cl      
  27 C27           -7.2081     5.0500    -0.3967 C.3     
  28 Br28          -6.6869     3.1934    -0.7798 Br      
  29 H29            3.5589     4.9914     2.7425 H       
  30 H30            2.3150     5.3441     3.9659 H       
  31 H31            2.9075     3.6791     3.7534 H       
  32 H32            0.7291     6.1724     2.3926 H       
  33 H33           -1.7299     6.3328     1.8019 H       
  34 H34           -2.7510     4.5968    -1.9700 H       
  35 H35           -0.5244     3.5596    -2.0968 H       
  36 H36            1.1068     3.9121    -0.2893 H       
  37 H37           -5.9853     9.6545     1.1912 H       
  38 H38           -4.2105     9.7464     1.2907 H       
  39 H39           -7.1454    10.2181    -0.8653 H       
  40 H40           -7.0963    11.5145    -2.9579 H       
  41 H41           -2.8417    11.7353    -2.7192 H       
  42 H42           -2.8936    10.4474    -0.6214 H       
  43 H43           -7.8381     5.0744     0.4924 H       
  44 H44           -7.7605     5.4546    -1.2448 H       
@<TRIPOS>BOND
   1    1    2 1
   2    1    3 2
   3    1    4 am
   4    2   29 1
   5    2   30 1
   6    2   31 1
   7    4    5 1
   8    4   32 1
   9    5    6 ar
  10    5   10 ar
  11    6    7 ar
  12    6   33 1
  13    7    8 ar
  14    7   12 1
  15    8    9 ar
  16    8   34 1
  17    9   10 ar
  18    9   35 1
  19   10   36 1
  20   11   12 1
  21   11   16 2
  22   12   13 am
  23   13   14 am
  24   13   18 2
  25   14   15 am
  26   14   19 1
  27   15   16 1
  28   15   17 2
  29   16   27 1
  30   19   20 1
  31   19   37 1
  32   19   38 1
  33   20   21 ar
  34   20   25 ar
  35   21   22 ar
  36   21   39 1
  37   22   23 ar
  38   22   40 1
  39   23   24 ar
  40   23   26 1
  41   24   25 ar
  42   24   41 1
  43   25   42 1
  44   27   28 1
  45   27   43 1
  46   27   44 1

#	End of record

