#	Name: ASD01817051
#	Creating user name:	WinNT
#	Creation time:	15. 06. 2019 19:36

#	Modifying user name:	WinNT
#	Modification time:	15. 06. 2019 19:36

#	Program:	/corina/corina34_cracker 3.40 0067  02.08.2006

@<TRIPOS>MOLECULE
ASD01817051
  49   51    0    0    0
SMALL
NO_CHARGES


@<TRIPOS>ATOM
   1 N1            -0.0209     1.4647    -0.0011 N.3     
   2 C2             0.0021    -0.0041     0.0020 C.3     
   3 C3            -1.3806    -0.5350     0.3857 C.3     
   4 C4            -2.5161    -2.6846     0.5507 C.2     
   5 C5            -2.5303    -4.1577     0.4260 C.ar    
   6 C6            -3.6902    -4.8751     0.7240 C.ar    
   7 C7            -3.6976    -6.2494     0.6059 C.ar    
   8 C8            -2.5586    -6.9178     0.1930 C.ar    
   9 C9            -1.4047    -6.2129    -0.1043 C.ar    
  10 C10           -1.3862    -4.8363     0.0044 C.ar    
  11 O11           -3.5156    -2.0956     0.9133 O.2     
  12 N12           -1.3947    -1.9947     0.2622 N.am    
  13 C13            1.3328     2.0185    -0.2710 C.3     
  14 C14           -0.3565     1.9954     1.3472 C.3     
  15 C15            0.9614     1.8727     2.1451 C.3     
  16 C16            2.0752     1.8879     1.0781 C.3     
  17 C17            1.1591     3.5182    -0.5694 C.3     
  18 C18           -0.6686     3.4932     1.1813 C.3     
  19 N19            0.5150     4.1433     0.5966 N.am    
  20 C20            0.9994     5.2876     1.1186 C.2     
  21 O21            1.9777     5.8137     0.6261 O.2     
  22 Cl22           0.0195    -7.0604    -0.6211 Cl      
  23 O23            0.3992     5.8478     2.1857 O.3     
  24 C24            0.1643     7.5623     3.8990 C.3     
  25 C25            0.9753     7.0796     2.6947 C.3     
  26 H26            0.2671    -0.3654    -0.9916 H       
  27 H27            0.7392    -0.3544     0.7246 H       
  28 H28           -1.6043    -0.2553     1.4152 H       
  29 H29           -2.1314    -0.1068    -0.2785 H       
  30 H30           -4.5800    -4.3551     1.0468 H       
  31 H31           -4.5944    -6.8052     0.8367 H       
  32 H32           -2.5697    -7.9939     0.1025 H       
  33 H33           -0.4872    -4.2866    -0.2323 H       
  34 H34           -0.5971    -2.4647    -0.0272 H       
  35 H35            1.8384     1.4944    -1.0821 H       
  36 H36           -1.1738     1.4463     1.8148 H       
  37 H37            1.0742     2.7189     2.8228 H       
  38 H38            0.9819     0.9354     2.7011 H       
  39 H39            2.6431     0.9580     1.1097 H       
  40 H40            2.7355     2.7415     1.2315 H       
  41 H41            2.1338     3.9749    -0.7407 H       
  42 H42            0.5309     3.6480    -1.4508 H       
  43 H43           -1.5239     3.6199     0.5176 H       
  44 H44           -0.8879     3.9337     2.1539 H       
  45 H45           -0.8667     7.7420     3.5944 H       
  46 H46            0.1852     6.8017     4.6795 H       
  47 H47            0.5968     8.4870     4.2812 H       
  48 H48            2.0063     6.8998     2.9994 H       
  49 H49            0.9544     7.8402     1.9142 H       
@<TRIPOS>BOND
   1    1    2 1
   2    1   13 1
   3    1   14 1
   4    2    3 1
   5    2   26 1
   6    2   27 1
   7    3   12 1
   8    3   28 1
   9    3   29 1
  10    4    5 1
  11    4   11 2
  12    4   12 am
  13    5    6 ar
  14    5   10 ar
  15    6    7 ar
  16    6   30 1
  17    7    8 ar
  18    7   31 1
  19    8    9 ar
  20    8   32 1
  21    9   10 ar
  22    9   22 1
  23   10   33 1
  24   12   34 1
  25   13   17 1
  26   13   16 1
  27   13   35 1
  28   14   15 1
  29   14   18 1
  30   14   36 1
  31   15   16 1
  32   15   37 1
  33   15   38 1
  34   16   39 1
  35   16   40 1
  36   17   19 1
  37   17   41 1
  38   17   42 1
  39   18   19 1
  40   18   43 1
  41   18   44 1
  42   19   20 am
  43   20   21 2
  44   20   23 1
  45   23   25 1
  46   24   25 1
  47   24   45 1
  48   24   46 1
  49   24   47 1
  50   25   48 1
  51   25   49 1

#	End of record

