#	Name: ASD04590098
#	Creating user name:	WinNT
#	Creation time:	15. 06. 2019 20:50

#	Modifying user name:	WinNT
#	Modification time:	15. 06. 2019 20:50

#	Program:	/corina/corina34_cracker 3.40 0067  02.08.2006

@<TRIPOS>MOLECULE
ASD04590098
  36   38    0    0    0
SMALL
NO_CHARGES


@<TRIPOS>ATOM
   1 C1            -0.0152     1.4142     0.0331 C.2     
   2 C2             0.0033    -0.0047     0.0174 C.2     
   3 C3             1.2907     1.7926     0.0285 C.2     
   4 N4             2.0345     0.6567     0.0110 N.pl3   
   5 N5             1.2693    -0.3749     0.0048 N.2     
   6 N6            -1.1422     2.2495     0.0448 N.am    
   7 C7            -0.9884     3.5884     0.0593 C.2     
   8 C8            -1.1711    -0.8968     0.0162 C.2     
   9 N9            -1.0017    -2.2338     0.0003 N.am    
  10 C10           -2.1098    -3.0809     0.1126 C.ar    
  11 C11           -3.1959    -2.7218     0.9079 C.ar    
  12 C12           -4.2696    -3.5923     0.9874 C.ar    
  13 C13           -4.2293    -4.7815     0.2799 C.ar    
  14 N14           -3.1852    -5.0917    -0.4645 N.ar    
  15 C15           -2.1452    -4.2883    -0.5713 C.ar    
  16 O16            0.1270     4.0723     0.0622 O.2     
  17 C17           -2.1748     4.4677     0.0715 C.ar    
  18 C18           -2.7416     4.8992    -1.1308 C.ar    
  19 C19           -2.7398     4.8679     1.2855 C.ar    
  20 C20           -3.8491     5.6903     1.2888 C.ar    
  21 C21           -4.4010     6.1179     0.0946 C.ar    
  22 C22           -3.8509     5.7214    -1.1111 C.ar    
  23 O23           -2.2923    -0.4261     0.0296 O.2     
  24 Cl24          -5.5706    -5.8796     0.3739 Cl      
  25 Cl25          -2.0492     4.3320     2.7854 Cl      
  26 Cl26          -2.0526     4.4034    -2.6451 Cl      
  27 H27            1.6657     2.8054     0.0371 H       
  28 H28            3.0041     0.6284     0.0042 H       
  29 H29           -2.0320     1.8635     0.0424 H       
  30 H30           -0.1116    -2.6088    -0.0891 H       
  31 H31           -3.2000    -1.7874     1.4494 H       
  32 H32           -5.1283    -3.3467     1.5946 H       
  33 H33           -1.3085    -4.5765    -1.1904 H       
  34 H34           -4.2871     6.0001     2.2261 H       
  35 H35           -5.2688     6.7607     0.1036 H       
  36 H36           -4.2871     6.0597    -2.0394 H       
@<TRIPOS>BOND
   1    1    2 1
   2    1    3 2
   3    1    6 1
   4    2    8 1
   5    2    5 2
   6    3    4 1
   7    3   27 1
   8    4    5 1
   9    4   28 1
  10    6    7 am
  11    6   29 1
  12    7   16 2
  13    7   17 1
  14    8    9 am
  15    8   23 2
  16    9   10 1
  17    9   30 1
  18   10   11 ar
  19   10   15 ar
  20   11   12 ar
  21   11   31 1
  22   12   13 ar
  23   12   32 1
  24   13   14 ar
  25   13   24 1
  26   14   15 ar
  27   15   33 1
  28   17   18 ar
  29   17   19 ar
  30   18   26 1
  31   18   22 ar
  32   19   20 ar
  33   19   25 1
  34   20   21 ar
  35   20   34 1
  36   21   22 ar
  37   21   35 1
  38   22   36 1

#	End of record

