#	Name: ASD08178410
#	Creating user name:	WinNT
#	Creation time:	15. 06. 2019 21:18

#	Modifying user name:	WinNT
#	Modification time:	15. 06. 2019 21:18

#	Program:	/corina/corina34_cracker 3.40 0067  02.08.2006

@<TRIPOS>MOLECULE
ASD08178410
  79   82    0    0    0
SMALL
NO_CHARGES


@<TRIPOS>ATOM
   1 N1            -0.0168     1.3902     0.0097 N.am    
   2 C2            -0.2173     0.0103     0.0231 C.ar    
   3 C3             0.8683    -0.8557    -0.0926 C.ar    
   4 N4            -1.4399    -0.4832     0.1513 N.ar    
   5 N5            -1.6667    -1.7463     0.1686 N.ar    
   6 C6            -0.7002    -2.6368     0.0602 C.ar    
   7 C7             0.6159    -2.2190    -0.0733 C.ar    
   8 C8            -1.0247    -4.1082     0.0874 C.3     
   9 C9            -1.8115    -4.4335     1.3586 C.3     
  10 C10           -2.1410    -5.9273     1.3862 C.3     
  11 C11           -2.9278    -6.2527     2.6574 C.3     
  12 C12           -3.2523    -7.7241     2.6845 C.2     
  13 N13           -2.5213    -8.6581     3.2049 N.2     
  14 N14           -2.9690    -9.8359     3.1257 N.2     
  15 C15           -4.1130   -10.0077     2.5350 C.2     
  16 S16           -4.6995    -8.4828     2.0200 S.3     
  17 N17           -4.7575   -11.2270     2.3553 N.am    
  18 C18           -4.1929   -12.3617     2.8139 C.2     
  19 C19           -4.8913   -13.6828     2.6192 C.3     
  20 O20           -3.1229   -12.3195     3.3832 O.2     
  21 C21           -4.9700   -13.9973     1.1475 C.ar    
  22 C22           -1.0750     2.2250     0.0167 C.2     
  23 C23           -0.8601     3.7130     0.1198 C.3     
  24 O24           -2.2000     1.7786    -0.0599 O.2     
  25 C25           -2.1935     4.4152     0.1067 C.ar    
  26 C26           -2.8566     4.6619     1.2945 C.ar    
  27 C27           -2.7508     4.8175    -1.0924 C.ar    
  28 C28           -3.9741     5.4616    -1.1045 C.ar    
  29 C29           -4.6398     5.7029     0.0824 C.ar    
  30 C30           -4.0795     5.3059     1.2824 C.ar    
  31 C31           -6.1043   -13.6670     0.4297 C.ar    
  32 C32           -6.1764   -13.9555    -0.9202 C.ar    
  33 C33           -5.1141   -14.5741    -1.5526 C.ar    
  34 C34           -3.9795   -14.9036    -0.8350 C.ar    
  35 C35           -3.9056   -14.6111     0.5140 C.ar    
  36 C36           -4.5813     5.9012    -2.4119 C.3     
  37 N37           -5.4187     4.8251    -2.9477 N.am    
  38 C38           -6.0668     4.9942    -4.1172 C.2     
  39 O39           -5.9566     6.0394    -4.7272 O.2     
  40 O40           -6.8363     4.0053    -4.6096 O.3     
  41 C41           -7.5046     4.2573    -5.8738 C.3     
  42 C42           -8.3264     3.0290    -6.2700 C.3     
  43 O43           -4.1590   -14.7118     3.2877 O.3     
  44 C44           -4.9700   -15.7895     3.7598 C.3     
  45 H45            0.8842     1.7494    -0.0006 H       
  46 H46            1.8745    -0.4770    -0.1944 H       
  47 H47            1.4199    -2.9345    -0.1636 H       
  48 H48           -1.6240    -4.3643    -0.7864 H       
  49 H49           -0.0997    -4.6845     0.0751 H       
  50 H50           -1.2123    -4.1774     2.2323 H       
  51 H51           -2.7366    -3.8571     1.3708 H       
  52 H52           -2.7402    -6.1835     0.5124 H       
  53 H53           -1.2159    -6.5037     1.3739 H       
  54 H54           -2.3286    -5.9966     3.5311 H       
  55 H55           -3.8529    -5.6763     2.6696 H       
  56 H56           -5.6133   -11.2607     1.9000 H       
  57 H57           -5.8981   -13.6260     3.0329 H       
  58 H58           -0.3385     3.9413     1.0493 H       
  59 H59           -0.2620     4.0532    -0.7255 H       
  60 H60           -2.4192     4.3512     2.2317 H       
  61 H61           -2.2306     4.6289    -2.0199 H       
  62 H62           -5.5952     6.2064     0.0730 H       
  63 H63           -4.5997     5.4944     2.2098 H       
  64 H64           -6.9342   -13.1837     0.9238 H       
  65 H65           -7.0629   -13.6981    -1.4808 H       
  66 H66           -5.1708   -14.8002    -2.6071 H       
  67 H67           -3.1497   -15.3872    -1.3290 H       
  68 H68           -3.0191   -14.8686     1.0746 H       
  69 H69           -5.1916     6.7894    -2.2486 H       
  70 H70           -3.7872     6.1315    -3.1221 H       
  71 H71           -5.5066     3.9908    -2.4607 H       
  72 H72           -8.1649     5.1183    -5.7704 H       
  73 H73           -6.7605     4.4604    -6.6439 H       
  74 H74           -8.8280     3.2182    -7.2190 H       
  75 H75           -7.6661     2.1680    -6.3733 H       
  76 H76           -9.0705     2.8259    -5.4998 H       
  77 H77           -5.4824   -16.2546     2.9176 H       
  78 H78           -4.3401   -16.5284     4.2549 H       
  79 H79           -5.7063   -15.4074     4.4669 H       
@<TRIPOS>BOND
   1    1    2 1
   2    1   22 am
   3    1   45 1
   4    2    3 ar
   5    2    4 ar
   6    3    7 ar
   7    3   46 1
   8    4    5 ar
   9    5    6 ar
  10    6    7 ar
  11    6    8 1
  12    7   47 1
  13    8    9 1
  14    8   48 1
  15    8   49 1
  16    9   10 1
  17    9   50 1
  18    9   51 1
  19   10   11 1
  20   10   52 1
  21   10   53 1
  22   11   12 1
  23   11   54 1
  24   11   55 1
  25   12   13 2
  26   12   16 1
  27   13   14 1
  28   14   15 2
  29   15   16 1
  30   15   17 1
  31   17   18 am
  32   17   56 1
  33   18   19 1
  34   18   20 2
  35   19   21 1
  36   19   43 1
  37   19   57 1
  38   21   31 ar
  39   21   35 ar
  40   22   23 1
  41   22   24 2
  42   23   25 1
  43   23   58 1
  44   23   59 1
  45   25   26 ar
  46   25   27 ar
  47   26   30 ar
  48   26   60 1
  49   27   28 ar
  50   27   61 1
  51   28   29 ar
  52   28   36 1
  53   29   30 ar
  54   29   62 1
  55   30   63 1
  56   31   32 ar
  57   31   64 1
  58   32   33 ar
  59   32   65 1
  60   33   34 ar
  61   33   66 1
  62   34   35 ar
  63   34   67 1
  64   35   68 1
  65   36   37 1
  66   36   69 1
  67   36   70 1
  68   37   38 am
  69   37   71 1
  70   38   39 2
  71   38   40 1
  72   40   41 1
  73   41   42 1
  74   41   72 1
  75   41   73 1
  76   42   74 1
  77   42   75 1
  78   42   76 1
  79   43   44 1
  80   44   77 1
  81   44   78 1
  82   44   79 1

#	End of record

