#	Name: ASD03430985
#	Creating user name:	WinNT
#	Creation time:	15. 06. 2019 20:41

#	Modifying user name:	WinNT
#	Modification time:	15. 06. 2019 20:41

#	Program:	/corina/corina34_cracker 3.40 0067  02.08.2006

@<TRIPOS>MOLECULE
ASD03430985
  53   58    0    0    0
SMALL
NO_CHARGES


@<TRIPOS>ATOM
   1 O1             0.6746     1.7604     0.1018 O.3     
   2 C2             0.8856     0.3444     0.1287 C.3     
   3 C3             1.9571     0.0390     1.1841 C.3     
   4 O4             3.1576     0.7270     0.8172 O.3     
   5 C5             3.0277     2.0302     0.4448 C.ar    
   6 C6             1.7879     2.5440     0.0824 C.ar    
   7 C7             4.1460     2.8468     0.4314 C.ar    
   8 C8             4.0414     4.1805     0.0495 C.ar    
   9 C9             2.7984     4.6789    -0.3287 C.ar    
  10 C10            1.6816     3.8704    -0.3068 C.ar    
  11 O11            5.0007     5.1480    -0.0113 O.3     
  12 C12            3.0128     6.1170    -0.7181 C.3     
  13 C13            4.5382     6.2232    -0.8510 C.3     
  14 N14            1.4897     7.4945    -1.7223 N.am    
  15 C15            2.3165     6.4675    -2.0021 C.2     
  16 C16            2.4708     7.0736     0.3018 C.ar    
  17 C17            2.7043     7.2656     1.6453 C.ar    
  18 C18            2.0296     8.2598     2.3310 C.ar    
  19 C19            1.1199     9.0602     1.6643 C.ar    
  20 C20            0.8822     8.8719     0.3189 C.ar    
  21 C21            1.5569     7.8735    -0.3795 C.ar    
  22 O22            2.4684     5.9313    -3.0794 O.2     
  23 C23            0.6217     8.1383    -2.7113 C.3     
  24 C24           -0.6787     7.3827    -2.8060 C.ar    
  25 C25           -1.0792     6.8619    -4.0222 C.ar    
  26 C26           -2.2769     6.1680    -4.0984 C.ar    
  27 C27           -3.0305     6.0233    -2.9433 C.ar    
  28 C28           -2.5658     6.5715    -1.7631 C.ar    
  29 N29           -1.4187     7.2213    -1.7267 N.ar    
  30 C30           -0.2249     7.0464    -5.2498 C.3     
  31 F31           -0.8768     6.4963    -6.3587 F       
  32 F32           -0.0081     8.4115    -5.4662 F       
  33 F33            1.0034     6.4029    -5.0643 F       
  34 C34            2.2849     8.4697     3.8013 C.3     
  35 H35           -0.0438    -0.1609     0.3914 H       
  36 H36            1.2257     0.0047    -0.8495 H       
  37 H37            1.6195     0.3845     2.1612 H       
  38 H38            2.1443    -1.0343     1.2178 H       
  39 H39            5.1063     2.4455     0.7199 H       
  40 H40            0.7209     4.2717    -0.5939 H       
  41 H41            4.8931     7.1845    -0.4795 H       
  42 H42            4.8484     6.0680    -1.8844 H       
  43 H43            3.4147     6.6391     2.1642 H       
  44 H44            0.5930     9.8361     2.1998 H       
  45 H45            0.1703     9.5009    -0.1950 H       
  46 H46            0.4235     9.1659    -2.4066 H       
  47 H47            1.1147     8.1363    -3.6835 H       
  48 H48           -2.6153     5.7504    -5.0351 H       
  49 H49           -3.9688     5.4891    -2.9659 H       
  50 H50           -3.1467     6.4632    -0.8591 H       
  51 H51            3.0970     9.1851     3.9305 H       
  52 H52            1.3822     8.8552     4.2754 H       
  53 H53            2.5600     7.5207     4.2615 H       
@<TRIPOS>BOND
   1    1    2 1
   2    1    6 1
   3    2    3 1
   4    2   35 1
   5    2   36 1
   6    3    4 1
   7    3   37 1
   8    3   38 1
   9    4    5 1
  10    5    6 ar
  11    5    7 ar
  12    6   10 ar
  13    7    8 ar
  14    7   39 1
  15    8    9 ar
  16    8   11 1
  17    9   10 ar
  18    9   12 1
  19   10   40 1
  20   11   13 1
  21   12   13 1
  22   12   15 1
  23   12   16 1
  24   13   41 1
  25   13   42 1
  26   14   15 am
  27   14   21 1
  28   14   23 1
  29   15   22 2
  30   16   17 ar
  31   16   21 ar
  32   17   18 ar
  33   17   43 1
  34   18   19 ar
  35   18   34 1
  36   19   20 ar
  37   19   44 1
  38   20   21 ar
  39   20   45 1
  40   23   24 1
  41   23   46 1
  42   23   47 1
  43   24   25 ar
  44   24   29 ar
  45   25   26 ar
  46   25   30 1
  47   26   27 ar
  48   26   48 1
  49   27   28 ar
  50   27   49 1
  51   28   29 ar
  52   28   50 1
  53   30   31 1
  54   30   32 1
  55   30   33 1
  56   34   51 1
  57   34   52 1
  58   34   53 1

#	End of record

