#	Name: ASD05430009
#	Creating user name:	WinNT
#	Creation time:	15. 06. 2019 20:59

#	Modifying user name:	WinNT
#	Modification time:	15. 06. 2019 20:59

#	Program:	/corina/corina34_cracker 3.40 0067  02.08.2006

@<TRIPOS>MOLECULE
ASD05430009
  63   69    0    0    0
SMALL
NO_CHARGES


@<TRIPOS>ATOM
   1 C1             0.3769     1.2012    -1.4335 C.ar    
   2 C2             0.2207     0.0015    -0.7431 C.ar    
   3 C3             1.2306    -0.4561     0.0893 C.ar    
   4 C4             2.3936     0.2774     0.2358 C.ar    
   5 C5             2.5721     1.4764    -0.4422 C.ar    
   6 C6             1.5473     1.9693    -1.3059 C.ar    
   7 C7             5.1321     0.0875    -0.3403 C.3     
   8 C8             4.9907     1.5897    -0.1412 C.2     
   9 C9             3.8152     2.2379    -0.2704 C.2     
  10 C10            6.3309    -0.1791    -1.2450 C.3     
  11 C11            7.6361     0.3519    -0.6684 C.3     
  12 N12            7.4779     1.7024    -0.1506 N.pl3   
  13 C13            6.2536     2.2777     0.2074 C.2     
  14 C14            8.4920     2.7316     0.0950 C.3     
  15 O15            7.8249     3.6454     0.9909 O.3     
  16 N16            6.4353     3.3856     0.8394 N.2     
  17 N17           -0.9562    -0.7420    -0.8894 N.pl3   
  18 C18           -1.0449    -2.0803    -1.1744 C.2     
  19 C19           -2.3562    -2.3823    -1.2245 C.2     
  20 N20           -3.0536    -1.2634    -0.9776 N.2     
  21 C21           -2.2266    -0.2752    -0.7700 C.2     
  22 C22            9.7081     2.1334     0.7539 C.ar    
  23 C23           10.3291     1.0345     0.1899 C.ar    
  24 C24           10.2054     2.6874     1.9188 C.ar    
  25 C25           11.3211     2.1403     2.5234 C.ar    
  26 C26           11.9407     1.0365     1.9623 C.ar    
  27 C27           11.4447     0.4854     0.7930 C.ar    
  28 F28           13.0315     0.5007     2.5525 F       
  29 C29            8.8736     3.4356    -1.2087 C.3     
  30 C30           -2.9395    -3.7424    -1.5091 C.3     
  31 C31            6.4570    -1.6978    -1.4976 C.3     
  32 C32            5.6623    -1.8646    -2.8121 C.3     
  33 N33            5.7219    -0.5565    -3.4749 N.am    
  34 C34            6.0880     0.4104    -2.6149 C.2     
  35 O35            6.2056     1.5839    -2.8975 O.2     
  36 C36            1.5019     3.1355    -2.0826 C.2     
  37 N37            0.4519     3.3704    -2.7938 N.2     
  38 S38           -0.6439     2.0967    -2.5634 S.3     
  39 H39            1.1087    -1.3864     0.6242 H       
  40 H40            3.1743    -0.0871     0.8871 H       
  41 H41            5.2879    -0.3957     0.6242 H       
  42 H42            4.2285    -0.3057    -0.8061 H       
  43 H43            3.7885     3.3173    -0.2475 H       
  44 H44            7.9619    -0.3036     0.1392 H       
  45 H45            8.3955     0.3567    -1.4504 H       
  46 H46           -0.2212    -2.7613    -1.3296 H       
  47 H47           -2.5054     0.7441    -0.5472 H       
  48 H48            9.9420     0.6048    -0.7222 H       
  49 H49            9.7219     3.5484     2.3563 H       
  50 H50           11.7099     2.5737     3.4331 H       
  51 H51           11.9270    -0.3758     0.3546 H       
  52 H52            7.9901     3.9069    -1.6392 H       
  53 H53            9.6276     4.1957    -1.0039 H       
  54 H54            9.2751     2.7057    -1.9117 H       
  55 H55           -3.0690    -4.2854    -0.5729 H       
  56 H56           -3.9063    -3.6278    -1.9993 H       
  57 H57           -2.2652    -4.2977    -2.1610 H       
  58 H58            7.4996    -1.9857    -1.6328 H       
  59 H59            5.9982    -2.2673    -0.6893 H       
  60 H60            6.1257    -2.6265    -3.4390 H       
  61 H61            4.6277    -2.1312    -2.5961 H       
  62 H62            5.5230    -0.4084    -4.4127 H       
  63 H63            2.3323     3.8260    -2.0850 H       
@<TRIPOS>BOND
   1    1    2 ar
   2    1    6 ar
   3    1   38 1
   4    2    3 ar
   5    2   17 1
   6    3    4 ar
   7    3   39 1
   8    4    5 ar
   9    4   40 1
  10    5    6 ar
  11    5    9 1
  12    6   36 1
  13    7    8 1
  14    7   10 1
  15    7   41 1
  16    7   42 1
  17    8    9 2
  18    8   13 1
  19    9   43 1
  20   10   11 1
  21   10   31 1
  22   10   34 1
  23   11   12 1
  24   11   44 1
  25   11   45 1
  26   12   13 1
  27   12   14 1
  28   13   16 2
  29   14   15 1
  30   14   22 1
  31   14   29 1
  32   15   16 1
  33   17   18 1
  34   17   21 1
  35   18   19 2
  36   18   46 1
  37   19   20 1
  38   19   30 1
  39   20   21 2
  40   21   47 1
  41   22   23 ar
  42   22   24 ar
  43   23   27 ar
  44   23   48 1
  45   24   25 ar
  46   24   49 1
  47   25   26 ar
  48   25   50 1
  49   26   27 ar
  50   26   28 1
  51   27   51 1
  52   29   52 1
  53   29   53 1
  54   29   54 1
  55   30   55 1
  56   30   56 1
  57   30   57 1
  58   31   32 1
  59   31   58 1
  60   31   59 1
  61   32   33 1
  62   32   60 1
  63   32   61 1
  64   33   34 am
  65   33   62 1
  66   34   35 2
  67   36   37 2
  68   36   63 1
  69   37   38 1

#	End of record

