#	Name: ASD03740152
#	Creating user name:	WinNT
#	Creation time:	15. 06. 2019 20:46

#	Modifying user name:	WinNT
#	Modification time:	15. 06. 2019 20:46

#	Program:	/corina/corina34_cracker 3.40 0067  02.08.2006

@<TRIPOS>MOLECULE
ASD03740152
  65   69    0    0    0
SMALL
NO_CHARGES


@<TRIPOS>ATOM
   1 C1             0.4410     1.3487     0.9924 C.ar    
   2 C2             0.5337     0.0300     1.4195 C.ar    
   3 C3             1.7494    -0.5391     1.6743 C.ar    
   4 C4             2.9131     0.2070     1.5051 C.ar    
   5 C5             2.8206     1.5438     1.0718 C.ar    
   6 C6             1.5650     2.1038     0.8180 C.ar    
   7 N7             4.2462    -0.0638     1.6716 N.pl3   
   8 N8             4.9900     1.0764     1.3511 N.2     
   9 C9             4.1923     2.0455     0.9933 C.2     
  10 O10            4.5685     3.2958     0.6153 O.3     
  11 C11            4.8035    -1.3439     2.1153 C.3     
  12 C12            5.0752    -2.2160     0.9167 C.ar    
  13 C13            6.3050    -2.1623     0.2877 C.ar    
  14 C14            6.5548    -2.9619    -0.8116 C.ar    
  15 C15            5.5737    -3.8162    -1.2825 C.ar    
  16 C16            4.3431    -3.8696    -0.6525 C.ar    
  17 C17            4.0964    -3.0736     0.4501 C.ar    
  18 C18            5.9694     3.5777     0.6089 C.3     
  19 C19            6.1970     5.0224     0.1597 C.3     
  20 C20            7.6969     5.3242     0.1529 C.3     
  21 N21            7.9086     6.7481    -0.1397 N.3     
  22 Cl22           5.8865    -4.8205    -2.6636 Cl      
  23 C23            7.4702     7.5928     0.9925 C.3     
  24 C24            6.9053     8.8939     0.3931 C.3     
  25 C25            7.0228     8.7174    -1.1382 C.3     
  26 C26            7.0946     7.1787    -1.3051 C.3     
  27 C27            7.7914     6.8097    -2.6163 C.3     
  28 N28            7.0142     7.3327    -3.7479 N.3     
  29 C29            7.7680     7.2085    -5.0090 C.3     
  30 C30            6.8973     6.3872    -5.9830 C.3     
  31 C31            5.4655     6.5768    -5.4168 C.3     
  32 C32            5.7338     6.6077    -3.8914 C.3     
  33 H33           -0.5291     1.7791     0.7922 H       
  34 H34           -0.3662    -0.5523     1.5520 H       
  35 H35            1.8078    -1.5650     2.0065 H       
  36 H36            1.4846     3.1281     0.4851 H       
  37 H37            5.7341    -1.1676     2.6548 H       
  38 H38            4.0910    -1.8419     2.7730 H       
  39 H39            7.0707    -1.4951     0.6552 H       
  40 H40            7.5155    -2.9196    -1.3032 H       
  41 H41            3.5768    -4.5363    -1.0197 H       
  42 H42            3.1358    -3.1151     0.9420 H       
  43 H43            6.3719     3.4416     1.6127 H       
  44 H44            6.4734     2.8994    -0.0796 H       
  45 H45            5.7945     5.1585    -0.8441 H       
  46 H46            5.6930     5.7007     0.8482 H       
  47 H47            8.1196     5.0872     1.1293 H       
  48 H48            8.1857     4.7196    -0.6111 H       
  49 H49            6.6952     7.0787     1.5610 H       
  50 H50            8.3193     7.8190     1.6375 H       
  51 H51            5.8616     9.0208     0.6803 H       
  52 H52            7.4956     9.7493     0.7217 H       
  53 H53            6.1435     9.1194    -1.6414 H       
  54 H54            7.9317     9.1888    -1.5122 H       
  55 H55            6.0978     6.7401    -1.2613 H       
  56 H56            8.7913     7.2433    -2.6310 H       
  57 H57            7.8645     5.7251    -2.6962 H       
  58 H58            7.9587     8.1974    -5.4259 H       
  59 H59            8.7105     6.6918    -4.8282 H       
  60 H60            6.9680     6.7875    -6.9944 H       
  61 H61            7.1836     5.3356    -5.9628 H       
  62 H62            5.0328     7.5179    -5.7562 H       
  63 H63            4.8255     5.7358    -5.6837 H       
  64 H64            5.8260     5.5939    -3.5017 H       
  65 H65            4.9353     7.1419    -3.3764 H       
@<TRIPOS>BOND
   1    1    2 ar
   2    1    6 ar
   3    1   33 1
   4    2    3 ar
   5    2   34 1
   6    3    4 ar
   7    3   35 1
   8    4    5 ar
   9    4    7 1
  10    5    6 ar
  11    5    9 1
  12    6   36 1
  13    7    8 1
  14    7   11 1
  15    8    9 2
  16    9   10 1
  17   10   18 1
  18   11   12 1
  19   11   37 1
  20   11   38 1
  21   12   13 ar
  22   12   17 ar
  23   13   14 ar
  24   13   39 1
  25   14   15 ar
  26   14   40 1
  27   15   16 ar
  28   15   22 1
  29   16   17 ar
  30   16   41 1
  31   17   42 1
  32   18   19 1
  33   18   43 1
  34   18   44 1
  35   19   20 1
  36   19   45 1
  37   19   46 1
  38   20   21 1
  39   20   47 1
  40   20   48 1
  41   21   23 1
  42   21   26 1
  43   23   24 1
  44   23   49 1
  45   23   50 1
  46   24   25 1
  47   24   51 1
  48   24   52 1
  49   25   26 1
  50   25   53 1
  51   25   54 1
  52   26   27 1
  53   26   55 1
  54   27   28 1
  55   27   56 1
  56   27   57 1
  57   28   29 1
  58   28   32 1
  59   29   30 1
  60   29   58 1
  61   29   59 1
  62   30   31 1
  63   30   60 1
  64   30   61 1
  65   31   32 1
  66   31   62 1
  67   31   63 1
  68   32   64 1
  69   32   65 1

#	End of record

