#	Name: ASD01151025
#	Creating user name:	WinNT
#	Creation time:	15. 06. 2019 19:05

#	Modifying user name:	WinNT
#	Modification time:	15. 06. 2019 19:05

#	Program:	/corina/corina34_cracker 3.40 0067  02.08.2006

@<TRIPOS>MOLECULE
ASD01151025
  66   69    0    0    0
SMALL
NO_CHARGES


@<TRIPOS>ATOM
   1 C1            -0.0167     1.3830     0.0096 C.2     
   2 C2             0.0021    -0.0041     0.0020 C.2     
   3 N3            -1.2690    -0.4211     0.0127 N.2     
   4 C4            -2.0743     0.6088     0.0264 C.2     
   5 N5            -1.3559     1.7454     0.0305 N.pl3   
   6 C6            -3.5793     0.5335     0.0414 C.3     
   7 C7            -1.8875     3.1105     0.0454 C.3     
   8 C8             1.1019     2.2512     0.0036 C.2     
   9 O9             0.9184     3.5883     0.0131 O.3     
  10 O10            2.2287     1.7917    -0.0101 O.2     
  11 C11            2.0915     4.4042     0.0062 C.3     
  12 C12            2.9097     4.1104    -1.2528 C.3     
  13 N13            1.1344    -0.8127    -0.0138 N.am    
  14 C14           -4.0654    -0.2062    -1.2066 C.3     
  15 C15            1.0045    -2.1541    -0.0197 C.2     
  16 C16            2.2308    -3.0299    -0.0369 C.3     
  17 O17           -0.0993    -2.6565    -0.0112 O.2     
  18 C18            1.6867     5.8796     0.0186 C.3     
  19 C19            2.9342     4.0961     1.2455 C.3     
  20 C20           -2.0595     3.5670     1.4713 C.ar    
  21 C21           -1.0228     4.2109     2.1207 C.ar    
  22 C22           -1.1806     4.6296     3.4286 C.ar    
  23 C23           -2.3752     4.4049     4.0869 C.ar    
  24 C24           -3.4121     3.7619     3.4372 C.ar    
  25 C25           -3.2559     3.3470     2.1279 C.ar    
  26 C26           -4.0400    -0.2185     1.2917 C.3     
  27 O27            1.8446    -4.4039     0.0771 O.3     
  28 C28            2.7949    -5.3327    -0.2172 C.ar    
  29 C29            3.9331    -4.9834    -0.9341 C.ar    
  30 O30            4.1264    -3.7031    -1.3537 O.3     
  31 C31            2.9771    -2.8494    -1.3657 C.3     
  32 C32            2.6207    -6.6424     0.2050 C.ar    
  33 C33            3.5758    -7.5972    -0.0880 C.ar    
  34 C34            4.7072    -7.2501    -0.8027 C.ar    
  35 C35            4.8871    -5.9469    -1.2261 C.ar    
  36 H36           -3.9935     1.5417     0.0506 H       
  37 H37           -1.1937     3.7762    -0.4681 H       
  38 H38           -2.8523     3.1302    -0.4613 H       
  39 H39            2.3094     4.3299    -2.1357 H       
  40 H40            3.8046     4.7328    -1.2580 H       
  41 H41            3.1981     3.0593    -1.2616 H       
  42 H42            2.0172    -0.4109    -0.0207 H       
  43 H43           -3.6512    -1.2144    -1.2158 H       
  44 H44           -5.1539    -0.2607    -1.1958 H       
  45 H45           -3.7372     0.3295    -2.0974 H       
  46 H46            2.8854    -2.7619     0.7924 H       
  47 H47            1.1038     6.0889     0.9156 H       
  48 H48            2.5816     6.5020     0.0134 H       
  49 H49            1.0863     6.0991    -0.8643 H       
  50 H50            3.2226     3.0450     1.2367 H       
  51 H51            3.8291     4.7185     1.2403 H       
  52 H52            2.3513     4.3054     2.1425 H       
  53 H53           -0.0896     4.3865     1.6063 H       
  54 H54           -0.3705     5.1320     3.9362 H       
  55 H55           -2.4982     4.7314     5.1090 H       
  56 H56           -4.3453     3.5860     3.9517 H       
  57 H57           -4.0660     2.8446     1.6203 H       
  58 H58           -3.6258    -1.2267     1.2825 H       
  59 H59           -3.6937     0.3085     2.1808 H       
  60 H60           -5.1285    -0.2730     1.3025 H       
  61 H61            2.3241    -3.1237    -2.1942 H       
  62 H62            3.2915    -1.8112    -1.4729 H       
  63 H63            1.7378    -6.9162     0.7635 H       
  64 H64            3.4383    -8.6163     0.2422 H       
  65 H65            5.4518    -7.9985    -1.0303 H       
  66 H66            5.7717    -5.6784    -1.7845 H       
@<TRIPOS>BOND
   1    1    2 2
   2    1    8 1
   3    1    5 1
   4    2    3 1
   5    2   13 1
   6    3    4 2
   7    4    5 1
   8    4    6 1
   9    5    7 1
  10    6   14 1
  11    6   26 1
  12    6   36 1
  13    7   20 1
  14    7   37 1
  15    7   38 1
  16    8    9 1
  17    8   10 2
  18    9   11 1
  19   11   12 1
  20   11   18 1
  21   11   19 1
  22   12   39 1
  23   12   40 1
  24   12   41 1
  25   13   15 am
  26   13   42 1
  27   14   43 1
  28   14   44 1
  29   14   45 1
  30   15   16 1
  31   15   17 2
  32   16   27 1
  33   16   31 1
  34   16   46 1
  35   18   47 1
  36   18   48 1
  37   18   49 1
  38   19   50 1
  39   19   51 1
  40   19   52 1
  41   20   21 ar
  42   20   25 ar
  43   21   22 ar
  44   21   53 1
  45   22   23 ar
  46   22   54 1
  47   23   24 ar
  48   23   55 1
  49   24   25 ar
  50   24   56 1
  51   25   57 1
  52   26   58 1
  53   26   59 1
  54   26   60 1
  55   27   28 1
  56   28   29 ar
  57   28   32 ar
  58   29   30 1
  59   29   35 ar
  60   30   31 1
  61   31   61 1
  62   31   62 1
  63   32   33 ar
  64   32   63 1
  65   33   34 ar
  66   33   64 1
  67   34   35 ar
  68   34   65 1
  69   35   66 1

#	End of record

