#	Name: ASD07930208
#	Creating user name:	WinNT
#	Creation time:	15. 06. 2019 21:11

#	Modifying user name:	WinNT
#	Modification time:	15. 06. 2019 21:11

#	Program:	/corina/corina34_cracker 3.40 0067  02.08.2006

@<TRIPOS>MOLECULE
ASD07930208
  53   56    0    0    0
SMALL
NO_CHARGES


@<TRIPOS>ATOM
   1 C1            -0.4445     2.4536    -1.5054 C.2     
   2 C2            -0.6383     1.1268    -1.2344 C.2     
   3 C3             0.4942     0.3309    -0.7547 C.2     
   4 N4             1.6910     0.9210    -0.5912 N.am    
   5 C5             1.8612     2.2577    -0.8726 C.2     
   6 C6             0.8240     3.0171    -1.3195 C.2     
   7 C7             2.8460     0.1536    -0.1060 C.3     
   8 C8             4.0826     0.6026    -0.8986 C.3     
   9 N9             4.2817     2.0419    -0.6767 N.am    
  10 C10            3.2002     2.8574    -0.6808 C.2     
  11 C11            5.6245     2.5842    -0.4554 C.3     
  12 O12            3.3271     4.0571    -0.5301 O.2     
  13 O13            0.3527    -0.8543    -0.5060 O.2     
  14 N14           -1.8949     0.5409    -1.4117 N.pl3   
  15 C15           -2.2148    -0.4295    -2.3078 C.2     
  16 N16           -3.4806    -0.7177    -2.1736 N.2     
  17 C17           -4.0097     0.0435    -1.2040 C.2     
  18 C18           -3.0367     0.8325    -0.7103 C.2     
  19 C19           -5.4441     0.0159    -0.7427 C.3     
  20 C20            6.2463     2.9705    -1.7988 C.3     
  21 O21            5.4978     4.0400    -2.3802 O.3     
  22 C22            5.9632     4.5550    -3.5489 C.ar    
  23 C23            7.0550     3.9747    -4.1778 C.ar    
  24 C24            5.3432     5.6586    -4.1178 C.ar    
  25 C25            5.8190     6.1802    -5.3078 C.ar    
  26 C26            6.9115     5.6018    -5.9293 C.ar    
  27 C27            7.5265     4.4990    -5.3658 C.ar    
  28 Cl28           3.9721     6.3835    -3.3378 Cl      
  29 Cl29           5.0447     7.5603    -6.0216 Cl      
  30 C30            7.6926     3.4197    -1.5810 C.3     
  31 C31            6.2233     1.7627    -2.7377 C.3     
  32 H32           -1.2624     3.0609    -1.8641 H       
  33 H33            0.9807     4.0641    -1.5330 H       
  34 H34            2.9981     0.3487     0.9555 H       
  35 H35            2.6736    -0.9110    -0.2644 H       
  36 H36            4.9586     0.0541    -0.5522 H       
  37 H37            3.9253     0.4140    -1.9606 H       
  38 H38            5.5597     3.4660     0.1820 H       
  39 H39            6.2454     1.8305     0.0291 H       
  40 H40           -1.5357    -0.8852    -3.0131 H       
  41 H41           -3.1377     1.5603     0.0812 H       
  42 H42           -5.5528    -0.7100     0.0631 H       
  43 H43           -5.7289     1.0043    -0.3821 H       
  44 H44           -6.0882    -0.2665    -1.5754 H       
  45 H45            7.5366     3.1135    -3.7386 H       
  46 H46            7.2820     6.0098    -6.8581 H       
  47 H47            8.3793     4.0497    -5.8528 H       
  48 H48            8.3058     2.5569    -1.3212 H       
  49 H49            8.0736     3.8741    -2.4957 H       
  50 H50            7.7287     4.1483    -0.7711 H       
  51 H51            5.2461     1.2824    -2.6880 H       
  52 H52            6.4145     2.0925    -3.7588 H       
  53 H53            6.9930     1.0526    -2.4351 H       
@<TRIPOS>BOND
   1    1    2 2
   2    1    6 1
   3    1   32 1
   4    2    3 1
   5    2   14 1
   6    3    4 am
   7    3   13 2
   8    4    5 1
   9    4    7 1
  10    5    6 2
  11    5   10 1
  12    6   33 1
  13    7    8 1
  14    7   34 1
  15    7   35 1
  16    8    9 1
  17    8   36 1
  18    8   37 1
  19    9   10 am
  20    9   11 1
  21   10   12 2
  22   11   20 1
  23   11   38 1
  24   11   39 1
  25   14   15 1
  26   14   18 1
  27   15   16 2
  28   15   40 1
  29   16   17 1
  30   17   18 2
  31   17   19 1
  32   18   41 1
  33   19   42 1
  34   19   43 1
  35   19   44 1
  36   20   21 1
  37   20   30 1
  38   20   31 1
  39   21   22 1
  40   22   23 ar
  41   22   24 ar
  42   23   27 ar
  43   23   45 1
  44   24   25 ar
  45   24   28 1
  46   25   26 ar
  47   25   29 1
  48   26   27 ar
  49   26   46 1
  50   27   47 1
  51   30   48 1
  52   30   49 1
  53   30   50 1
  54   31   51 1
  55   31   52 1
  56   31   53 1

#	End of record

