#	Name: ASD00510020
#	Creating user name:	WinNT
#	Creation time:	15. 06. 2019 18:36

#	Modifying user name:	WinNT
#	Modification time:	15. 06. 2019 18:36

#	Program:	/corina/corina34_cracker 3.40 0067  02.08.2006

@<TRIPOS>MOLECULE
ASD00510020
  41   44    0    0    0
SMALL
NO_CHARGES


@<TRIPOS>ATOM
   1 C1             0.2554     1.0277     0.5167 C.ar    
   2 C2             0.2522    -0.3504     0.7605 C.ar    
   3 C3             1.4357    -1.0214     0.8508 C.ar    
   4 C4             2.6493    -0.3542     0.7037 C.ar    
   5 C5             2.6884     0.9860     0.4662 C.ar    
   6 C6             1.4875     1.7094     0.3666 C.ar    
   7 C7             1.4861     3.0932     0.1213 C.ar    
   8 C8             0.3151     3.7813     0.0277 C.ar    
   9 C9            -0.9155     3.1554     0.1685 C.ar    
  10 C10           -0.9897     1.7870     0.4062 C.ar    
  11 N11           -2.1955     1.1686     0.5390 N.2     
  12 N12           -3.1503     1.7488     1.1838 N.2     
  13 C13           -4.4072     1.2360     1.1425 C.ar    
  14 C14           -6.7628     1.2192     1.9160 C.ar    
  15 C15           -7.0051     0.1503     1.0340 C.ar    
  16 C16           -6.0090    -0.3509     0.2569 C.ar    
  17 C17           -4.7162     0.1697     0.2933 C.ar    
  18 C18           -5.4665     1.7834     1.9904 C.ar    
  19 C19           -5.2235     2.8462     2.8674 C.ar    
  20 C20           -6.2382     3.3273     3.6412 C.ar    
  21 C21           -7.5143     2.7750     3.5706 C.ar    
  22 C22           -7.7847     1.7398     2.7277 C.ar    
  23 S23           -1.2723    -1.2131     0.9502 S.o2    
  24 O24           -1.9892    -0.5402     1.9761 O.2     
  25 O25           -1.7886    -1.4082    -0.3593 O.2     
  26 O26           -0.9427    -2.5965     1.4926 O.3     
  27 O27           -3.7527    -0.3614    -0.5005 O.3     
  28 H28            1.4319    -2.0849     1.0393 H       
  29 H29            3.5733    -0.9081     0.7796 H       
  30 H30            3.6370     1.4903     0.3551 H       
  31 H31            2.4239     3.6163     0.0062 H       
  32 H32            0.3447     4.8442    -0.1611 H       
  33 H33           -1.8233     3.7350     0.0881 H       
  34 H34           -7.9938    -0.2805     0.9772 H       
  35 H35           -6.2260    -1.1722    -0.4101 H       
  36 H36           -4.2378     3.2828     2.9315 H       
  37 H37           -6.0493     4.1475     4.3181 H       
  38 H38           -8.3015     3.1731     4.1938 H       
  39 H39           -8.7795     1.3216     2.6832 H       
  40 H40           -1.7170    -3.1580     1.6348 H       
  41 H41           -3.6478     0.0915    -1.3484 H       
@<TRIPOS>BOND
   1    1    2 ar
   2    1    6 ar
   3    1   10 ar
   4    2    3 ar
   5    2   23 1
   6    3    4 ar
   7    3   28 1
   8    4    5 ar
   9    4   29 1
  10    5    6 ar
  11    5   30 1
  12    6    7 ar
  13    7    8 ar
  14    7   31 1
  15    8    9 ar
  16    8   32 1
  17    9   10 ar
  18    9   33 1
  19   10   11 1
  20   11   12 2
  21   12   13 1
  22   13   18 ar
  23   13   17 ar
  24   14   15 ar
  25   14   18 ar
  26   14   22 ar
  27   15   16 ar
  28   15   34 1
  29   16   17 ar
  30   16   35 1
  31   17   27 1
  32   18   19 ar
  33   19   20 ar
  34   19   36 1
  35   20   21 ar
  36   20   37 1
  37   21   22 ar
  38   21   38 1
  39   22   39 1
  40   23   24 2
  41   23   25 2
  42   23   26 1
  43   26   40 1
  44   27   41 1

#	End of record

