#	Name: ASD01148510
#	Creating user name:	WinNT
#	Creation time:	15. 06. 2019 19:02

#	Modifying user name:	WinNT
#	Modification time:	15. 06. 2019 19:02

#	Program:	/corina/corina34_cracker 3.40 0067  02.08.2006

@<TRIPOS>MOLECULE
ASD01148510
  61   65    0    0    0
SMALL
NO_CHARGES


@<TRIPOS>ATOM
   1 C1             0.0558     0.5126    -0.5867 C.ar    
   2 C2             0.3533    -0.8366    -0.6162 C.ar    
   3 C3             1.6635    -1.2592    -0.4766 C.ar    
   4 C4             2.6748    -0.3306    -0.3078 C.ar    
   5 C5             2.3760     1.0187    -0.2785 C.ar    
   6 C6             1.0671     1.4402    -0.4179 C.ar    
   7 C7             3.4777     2.0304    -0.0945 C.3     
   8 O8             4.7114     1.5614    -0.6753 O.3     
   9 C9             3.2025     3.3061    -0.9259 C.3     
  10 C10            3.9587     3.0312    -2.2118 C.2     
  11 N11            4.7734     2.0505    -2.0004 N.2     
  12 C12            3.7925     3.7566    -3.4828 C.ar    
  13 C13            4.5893     3.3867    -4.6501 C.ar    
  14 C14            2.8736     4.7924    -3.5809 C.ar    
  15 C15            2.6964     5.4904    -4.7622 C.ar    
  16 C16            3.4301     5.1849    -5.9007 C.ar    
  17 C17            4.4084     4.1004    -5.8584 C.ar    
  18 C18            3.2195     5.9453    -7.1449 C.2     
  19 O19            2.7067     5.4071    -8.1068 O.2     
  20 N20            3.5951     7.2377    -7.2166 N.am    
  21 C21            5.1702     3.7572    -6.9823 C.ar    
  22 C22            5.5238     2.3446    -4.5983 C.ar    
  23 C23            3.6637     2.3701     1.3857 C.3     
  24 F24            3.9801     1.2066     2.0950 F       
  25 F25            4.7018     3.2977     1.5244 F       
  26 F26            2.4793     2.9168     1.8911 F       
  27 Cl27           2.0379    -2.9540    -0.5130 Cl      
  28 C28            3.4729     7.9669    -8.4813 C.3     
  29 C29            2.1164     8.6191    -8.5561 C.ar    
  30 N30            1.0843     7.9274    -8.9977 N.ar    
  31 C31            4.0833     7.8592    -6.1248 C.2     
  32 C32           -0.1209     8.4565    -9.0804 C.ar    
  33 C33           -0.3449     9.7670    -8.7036 C.ar    
  34 C34            0.7164    10.5260    -8.2341 C.ar    
  35 C35            1.9674     9.9336    -8.1556 C.ar    
  36 O36            4.1015     7.2833    -5.0554 O.2     
  37 O37            4.5505     9.1179    -6.2194 O.3     
  38 C38            5.0611     9.7247    -5.0031 C.3     
  39 C39            6.2461     2.0322    -5.7115 C.ar    
  40 C40            6.0717     2.7378    -6.8990 C.ar    
  41 H41           -0.9662     0.8427    -0.7000 H       
  42 H42           -0.4368    -1.5612    -0.7477 H       
  43 H43            3.6976    -0.6599    -0.1985 H       
  44 H44            0.8341     2.4945    -0.3949 H       
  45 H45            2.1359     3.4184    -1.1207 H       
  46 H46            3.6002     4.1882    -0.4241 H       
  47 H47            2.2838     5.0590    -2.7163 H       
  48 H48            1.9714     6.2900    -4.7997 H       
  49 H49            5.0440     4.2966    -7.9094 H       
  50 H50            5.6716     1.7924    -3.6820 H       
  51 H51            4.2474     8.7320    -8.5359 H       
  52 H52            3.5887     7.2727    -9.3136 H       
  53 H53           -0.9422     7.8588    -9.4471 H       
  54 H54           -1.3340    10.1949    -8.7744 H       
  55 H55            0.5712    11.5529    -7.9329 H       
  56 H56            2.8164    10.4948    -7.7943 H       
  57 H57            4.2689     9.7618    -4.2554 H       
  58 H58            5.8926     9.1315    -4.6225 H       
  59 H59            5.4052    10.7363    -5.2185 H       
  60 H60            6.9665     1.2285    -5.6706 H       
  61 H61            6.6584     2.4737    -7.7664 H       
@<TRIPOS>BOND
   1    1    2 ar
   2    1    6 ar
   3    1   41 1
   4    2    3 ar
   5    2   42 1
   6    3    4 ar
   7    3   27 1
   8    4    5 ar
   9    4   43 1
  10    5    6 ar
  11    5    7 1
  12    6   44 1
  13    7    8 1
  14    7    9 1
  15    7   23 1
  16    8   11 1
  17    9   10 1
  18    9   45 1
  19    9   46 1
  20   10   11 2
  21   10   12 1
  22   12   13 ar
  23   12   14 ar
  24   13   22 ar
  25   13   17 ar
  26   14   15 ar
  27   14   47 1
  28   15   16 ar
  29   15   48 1
  30   16   17 ar
  31   16   18 1
  32   17   21 ar
  33   18   19 2
  34   18   20 am
  35   20   28 1
  36   20   31 am
  37   21   40 ar
  38   21   49 1
  39   22   39 ar
  40   22   50 1
  41   23   24 1
  42   23   25 1
  43   23   26 1
  44   28   29 1
  45   28   51 1
  46   28   52 1
  47   29   30 ar
  48   29   35 ar
  49   30   32 ar
  50   31   36 2
  51   31   37 1
  52   32   33 ar
  53   32   53 1
  54   33   34 ar
  55   33   54 1
  56   34   35 ar
  57   34   55 1
  58   35   56 1
  59   37   38 1
  60   38   57 1
  61   38   58 1
  62   38   59 1
  63   39   40 ar
  64   39   60 1
  65   40   61 1

#	End of record

