#	Name: ASD07301010
#	Creating user name:	WinNT
#	Creation time:	15. 06. 2019 21:10

#	Modifying user name:	WinNT
#	Modification time:	15. 06. 2019 21:10

#	Program:	/corina/corina34_cracker 3.40 0067  02.08.2006

@<TRIPOS>MOLECULE
ASD07301010
  33   35    0    0    0
SMALL
NO_CHARGES


@<TRIPOS>ATOM
   1 C1            -0.0179     1.4666     0.0101 C.2     
   2 C2             0.0021    -0.0041     0.0020 C.2     
   3 C3             1.2775    -0.6366    -0.0136 C.2     
   4 C4             2.3787     0.1588    -0.0198 C.2     
   5 N5             2.2596     1.5101    -0.0110 N.pl3   
   6 N6             1.1312     2.1178     0.0026 N.2     
   7 O7            -1.0312    -0.6548     0.0088 O.2     
   8 O8             1.3896    -1.9914    -0.0215 O.3     
   9 C9             2.7119    -2.5329    -0.0370 C.3     
  10 O10            4.7759     4.8524     2.0237 O.3     
  11 C11            3.7770     4.3246     2.9163 C.3     
  12 O12            2.8811     3.6118     2.0431 O.3     
  13 C13            3.6392     3.2343     0.9728 C.ar    
  14 C14            4.8036     3.9964     0.9606 C.ar    
  15 C15            3.4277     2.2794    -0.0175 C.ar    
  16 C16            4.3794     2.0915    -1.0126 C.ar    
  17 C17            5.5328     2.8503    -1.0185 C.ar    
  18 C18            5.7463     3.8006    -0.0361 C.ar    
  19 F19            4.3575     3.4524     3.8434 F       
  20 F20            3.1041     5.3624     3.5701 F       
  21 C21           -1.2916     2.1972     0.0202 C.2     
  22 O22           -2.3404     1.5878     0.0218 O.2     
  23 C23           -1.2958     3.7042     0.0284 C.3     
  24 H24            3.3609    -0.2901    -0.0316 H       
  25 H25            3.2342    -2.1906    -0.9304 H       
  26 H26            3.2515    -2.1996     0.8494 H       
  27 H27            2.6587    -3.6216    -0.0420 H       
  28 H28            4.2168     1.3510    -1.7817 H       
  29 H29            6.2708     2.7017    -1.7929 H       
  30 H30            6.6501     4.3917    -0.0461 H       
  31 H31           -0.7872     4.0738    -0.8621 H       
  32 H32           -2.3244     4.0646     0.0352 H       
  33 H33           -0.7787     4.0641     0.9179 H       
@<TRIPOS>BOND
   1    1    2 1
   2    1    6 2
   3    1   21 1
   4    2    3 1
   5    2    7 2
   6    3    4 2
   7    3    8 1
   8    4    5 1
   9    4   24 1
  10    5    6 1
  11    5   15 1
  12    8    9 1
  13    9   25 1
  14    9   26 1
  15    9   27 1
  16   10   11 1
  17   10   14 1
  18   11   12 1
  19   11   19 1
  20   11   20 1
  21   12   13 1
  22   13   14 ar
  23   13   15 ar
  24   14   18 ar
  25   15   16 ar
  26   16   17 ar
  27   16   28 1
  28   17   18 ar
  29   17   29 1
  30   18   30 1
  31   21   22 2
  32   21   23 1
  33   23   31 1
  34   23   32 1
  35   23   33 1

#	End of record

