#	Name: ASD01120195
#	Creating user name:	WinNT
#	Creation time:	15. 06. 2019 18:59

#	Modifying user name:	WinNT
#	Modification time:	15. 06. 2019 18:59

#	Program:	/corina/corina34_cracker 3.40 0067  02.08.2006

@<TRIPOS>MOLECULE
ASD01120195
  39   42    0    0    0
SMALL
NO_CHARGES


@<TRIPOS>ATOM
   1 C1            -0.0167     1.3828     0.0096 C.ar    
   2 C2             0.0021    -0.0041     0.0020 C.ar    
   3 C3            -1.1785    -0.7198     0.0090 C.ar    
   4 C4            -2.3914    -0.0514     0.0242 C.ar    
   5 C5            -2.4156     1.3515     0.0324 C.ar    
   6 C6            -1.2159     2.0636     0.0305 C.ar    
   7 O7            -3.6828    -0.4556     0.0344 O.3     
   8 C8            -4.4648     0.6381     0.0482 C.2     
   9 N9            -3.7266     1.7186     0.0472 N.2     
  10 Cl10           1.4775     2.2664     0.0001 Cl      
  11 N11           -5.8411     0.6234     0.0614 N.am    
  12 S12           -6.6843     2.0485     0.0777 S.o2    
  13 O13           -8.0618     1.7001     0.0544 O.2     
  14 O14           -6.1020     2.8477     1.0983 O.2     
  15 C15           -6.3526     2.8683    -1.4462 C.ar    
  16 C16           -7.1605     2.6397    -2.5414 C.ar    
  17 C17           -6.8972     3.2891    -3.7459 C.ar    
  18 C18           -5.8186     4.1662    -3.8373 C.ar    
  19 C19           -5.0170     4.3874    -2.7356 C.ar    
  20 C20           -5.2860     3.7443    -1.5411 C.ar    
  21 C21           -8.8409     2.1697    -4.8357 C.ar    
  22 C22           -9.6424     1.9485    -5.9373 C.ar    
  23 C23           -9.3762     2.5954    -7.1306 C.ar    
  24 C24           -8.3064     3.4669    -7.2270 C.ar    
  25 C25           -7.4989     3.6962    -6.1315 C.ar    
  26 C26           -7.7622     3.0469    -4.9271 C.ar    
  27 H27            0.9466    -0.5276    -0.0098 H       
  28 H28           -1.1563    -1.7995     0.0023 H       
  29 H29           -1.2263     3.1436     0.0371 H       
  30 H30           -6.3171    -0.2218     0.0612 H       
  31 H31           -7.9951     1.9585    -2.4652 H       
  32 H32           -5.6099     4.6718    -4.7686 H       
  33 H33           -4.1804     5.0669    -2.8054 H       
  34 H34           -4.6562     3.9203    -0.6816 H       
  35 H35           -9.0521     1.6672    -3.9033 H       
  36 H36          -10.4788     1.2688    -5.8676 H       
  37 H37          -10.0058     2.4191    -7.9902 H       
  38 H38           -8.1029     3.9691    -8.1613 H       
  39 H39           -6.6635     4.3763    -6.2081 H       
@<TRIPOS>BOND
   1    1    2 ar
   2    1   10 1
   3    1    6 ar
   4    2    3 ar
   5    2   27 1
   6    3    4 ar
   7    3   28 1
   8    4    5 ar
   9    4    7 1
  10    5    6 ar
  11    5    9 1
  12    6   29 1
  13    7    8 1
  14    8    9 2
  15    8   11 1
  16   11   12 am
  17   11   30 1
  18   12   13 2
  19   12   14 2
  20   12   15 1
  21   15   16 ar
  22   15   20 ar
  23   16   17 ar
  24   16   31 1
  25   17   18 ar
  26   17   26 1
  27   18   19 ar
  28   18   32 1
  29   19   20 ar
  30   19   33 1
  31   20   34 1
  32   21   22 ar
  33   21   26 ar
  34   21   35 1
  35   22   23 ar
  36   22   36 1
  37   23   24 ar
  38   23   37 1
  39   24   25 ar
  40   24   38 1
  41   25   26 ar
  42   25   39 1

#	End of record

