#	Name: ASD06660063
#	Creating user name:	WinNT
#	Creation time:	15. 06. 2019 21:07

#	Modifying user name:	WinNT
#	Modification time:	15. 06. 2019 21:07

#	Program:	/corina/corina34_cracker 3.40 0067  02.08.2006

@<TRIPOS>MOLECULE
ASD06660063
  78   81    0    0    0
SMALL
NO_CHARGES


@<TRIPOS>ATOM
   1 C1             0.3817     2.0791     0.9670 C.2     
   2 C2             0.1282     0.6741     0.4845 C.3     
   3 C3            -0.9874     0.6879    -0.5624 C.3     
   4 O4             1.4728     2.5786     0.8260 O.2     
   5 O5            -0.6061     2.7776     1.5483 O.3     
   6 C6            -1.3332    -0.7277    -0.9467 C.ar    
   7 C7            -2.2850    -1.4253    -0.2259 C.ar    
   8 C8            -2.6042    -2.7227    -0.5754 C.ar    
   9 C9            -1.9680    -3.3268    -1.6524 C.ar    
  10 C10           -1.0123    -2.6231    -2.3743 C.ar    
  11 C11           -0.7020    -1.3241    -2.0229 C.ar    
  12 N12           -2.2881    -4.6389    -2.0083 N.3     
  13 C13           -1.5012    -5.0764    -3.1683 C.3     
  14 C14           -1.9792    -6.4587    -3.6187 C.3     
  15 C15           -1.8161    -7.4511    -2.4641 C.3     
  16 C16           -2.6062    -6.9474    -1.2531 C.3     
  17 C17           -2.1099    -5.5510    -0.8713 C.3     
  18 C18           -2.3488    -8.8212    -2.8884 C.3     
  19 N19           -2.0842    -9.7975    -1.8287 N.pl3   
  20 C20           -2.4801   -11.1204    -1.9878 C.ar    
  21 C21           -3.1273   -11.5106    -3.1561 C.ar    
  22 C22           -3.5157   -12.8300    -3.3012 C.ar    
  23 C23           -3.2430   -13.7186    -2.2692 C.ar    
  24 C24           -2.5973   -13.2629    -1.1377 C.ar    
  25 N25           -2.2332   -11.9990    -1.0287 N.ar    
  26 C26            2.3516    -0.3038     0.6775 C.2     
  27 C27            3.6239    -0.7641     0.0759 C.ar    
  28 C28            3.8395    -2.1259    -0.1425 C.ar    
  29 C29            5.0229    -2.5554    -0.7017 C.ar    
  30 C30            6.0081    -1.6267    -1.0510 C.ar    
  31 C31            5.7907    -0.2633    -0.8322 C.ar    
  32 C32            4.6040     0.1642    -0.2775 C.ar    
  33 O33            2.2086    -0.3215     1.8841 O.2     
  34 N34            1.3521     0.1347    -0.1132 N.am    
  35 C35            4.3668     1.6345    -0.0471 C.3     
  36 C36            2.7775    -3.1265     0.2341 C.3     
  37 C37            1.7839    -3.2743    -0.9200 C.3     
  38 C38            7.2749    -2.0850    -1.6489 C.2     
  39 O39            7.4258    -3.2554    -1.9264 O.2     
  40 C40            8.3827    -1.0986    -1.9153 C.3     
  41 H41           -0.1710     0.0494     1.3261 H       
  42 H42           -1.8687     1.1774    -0.1478 H       
  43 H43           -0.6509     1.2321    -1.4448 H       
  44 H44           -0.3958     3.6747     1.8415 H       
  45 H45           -2.7790    -0.9552     0.6116 H       
  46 H46           -3.3475    -3.2671    -0.0118 H       
  47 H47           -0.5158    -3.0898    -3.2122 H       
  48 H48            0.0375    -0.7748    -2.5867 H       
  49 H49           -1.6293    -4.3644    -3.9836 H       
  50 H50           -0.4476    -5.1282    -2.8938 H       
  51 H51           -3.0292    -6.4047    -3.9066 H       
  52 H52           -1.3845    -6.7899    -4.4700 H       
  53 H53           -0.7614    -7.5346    -2.2019 H       
  54 H54           -3.6660    -6.9011    -1.5037 H       
  55 H55           -2.4594    -7.6278    -0.4143 H       
  56 H56           -1.0535    -5.6005    -0.6075 H       
  57 H57           -2.6803    -5.1836    -0.0181 H       
  58 H58           -3.4229    -8.7555    -3.0620 H       
  59 H59           -1.8511    -9.1364    -3.8054 H       
  60 H60           -1.6327    -9.5208    -1.0160 H       
  61 H61           -3.3240   -10.7929    -3.9388 H       
  62 H62           -4.0201   -13.1618    -4.1967 H       
  63 H63           -3.5335   -14.7555    -2.3512 H       
  64 H64           -2.3832   -13.9505    -0.3328 H       
  65 H65            5.1898    -3.6091    -0.8699 H       
  66 H66            6.5510     0.4550    -1.1012 H       
  67 H67            1.4432     0.0932    -1.0780 H       
  68 H68            4.7234     1.9089     0.9457 H       
  69 H69            4.9052     2.2116    -0.7989 H       
  70 H70            3.3002     1.8465    -0.1215 H       
  71 H71            3.2429    -4.0907     0.4385 H       
  72 H72            2.2518    -2.7808     1.1241 H       
  73 H73            0.9626    -3.9213    -0.6117 H       
  74 H74            1.3922    -2.2937    -1.1900 H       
  75 H75            2.2890    -3.7134    -1.7803 H       
  76 H76            8.0350    -0.0912    -1.6865 H       
  77 H77            9.2411    -1.3380    -1.2878 H       
  78 H78            8.6732    -1.1531    -2.9645 H       
@<TRIPOS>BOND
   1    1    2 1
   2    1    4 2
   3    1    5 1
   4    2    3 1
   5    2   34 1
   6    2   41 1
   7    3    6 1
   8    3   42 1
   9    3   43 1
  10    5   44 1
  11    6    7 ar
  12    6   11 ar
  13    7    8 ar
  14    7   45 1
  15    8    9 ar
  16    8   46 1
  17    9   10 ar
  18    9   12 1
  19   10   11 ar
  20   10   47 1
  21   11   48 1
  22   12   13 1
  23   12   17 1
  24   13   14 1
  25   13   49 1
  26   13   50 1
  27   14   15 1
  28   14   51 1
  29   14   52 1
  30   15   16 1
  31   15   18 1
  32   15   53 1
  33   16   17 1
  34   16   54 1
  35   16   55 1
  36   17   56 1
  37   17   57 1
  38   18   19 1
  39   18   58 1
  40   18   59 1
  41   19   20 1
  42   19   60 1
  43   20   21 ar
  44   20   25 ar
  45   21   22 ar
  46   21   61 1
  47   22   23 ar
  48   22   62 1
  49   23   24 ar
  50   23   63 1
  51   24   25 ar
  52   24   64 1
  53   26   27 1
  54   26   33 2
  55   26   34 am
  56   27   28 ar
  57   27   32 ar
  58   28   29 ar
  59   28   36 1
  60   29   30 ar
  61   29   65 1
  62   30   31 ar
  63   30   38 1
  64   31   32 ar
  65   31   66 1
  66   32   35 1
  67   34   67 1
  68   35   68 1
  69   35   69 1
  70   35   70 1
  71   36   37 1
  72   36   71 1
  73   36   72 1
  74   37   73 1
  75   37   74 1
  76   37   75 1
  77   38   39 2
  78   38   40 1
  79   40   76 1
  80   40   77 1
  81   40   78 1

#	End of record

