#	Name: ASD03540027
#	Creating user name:	WinNT
#	Creation time:	15. 06. 2019 20:42

#	Modifying user name:	WinNT
#	Modification time:	15. 06. 2019 20:42

#	Program:	/corina/corina34_cracker 3.40 0067  02.08.2006

@<TRIPOS>MOLECULE
ASD03540027
  53   55    0    0    0
SMALL
NO_CHARGES


@<TRIPOS>ATOM
   1 C1            -0.0164     1.3579     0.0095 C.2     
   2 N2             0.0021    -0.0041     0.0020 N.am    
   3 C3             1.2284    -0.6238    -0.0131 C.2     
   4 C4             2.3974     0.1025    -0.0208 C.2     
   5 C5             2.3228     1.5016    -0.0130 C.2     
   6 N6             1.1082     2.0844     0.0027 N.am    
   7 S7             0.9036    -2.3626    -0.0187 S.3     
   8 C8            -1.0724    -0.8452     0.0083 C.2     
   9 C9            -0.8584    -2.1683    -0.0005 C.2     
  10 C10           -1.8701    -3.2326     0.0040 C.2     
  11 O11           -3.0529    -2.9475     0.0165 O.2     
  12 N12           -1.4886    -4.5252    -0.0058 N.am    
  13 C13           -2.4979    -5.5869    -0.0013 C.3     
  14 C14           -1.4866    -7.5575     1.1713 C.ar    
  15 C15           -1.8144    -6.9299    -0.0142 C.ar    
  16 C16           -1.5080    -7.5495    -1.2177 C.ar    
  17 C17           -0.8804    -8.7828    -1.1843 C.ar    
  18 C18           -0.5804    -9.3552     0.0449 C.ar    
  19 N19           -0.8880    -8.7333     1.1711 N.ar    
  20 O20            0.0347   -10.5637     0.0911 O.3     
  21 C21            0.3164   -11.0992     1.3857 C.3     
  22 O22            3.3377     2.1787    -0.0193 O.2     
  23 O23           -1.0879     1.9319     0.0177 O.2     
  24 C24            3.7334    -0.5944    -0.0369 C.3     
  25 C25            1.0159     3.5465     0.0110 C.3     
  26 C26            0.9975     4.0406     1.4345 C.ar    
  27 C27            2.1839     4.3427     2.0767 C.ar    
  28 C28            2.1670     4.7959     3.3825 C.ar    
  29 C29            0.9639     4.9474     4.0461 C.ar    
  30 C30           -0.2225     4.6462     3.4036 C.ar    
  31 C31           -0.2059     4.1971     2.0964 C.ar    
  32 H32           -2.0780    -0.4515     0.0204 H       
  33 H33           -0.5456    -4.7524    -0.0158 H       
  34 H34           -3.1122    -5.5005     0.8949 H       
  35 H35           -3.1291    -5.4920    -0.8850 H       
  36 H36           -1.7188    -7.0777     2.1106 H       
  37 H37           -1.7539    -7.0802    -2.1588 H       
  38 H38           -0.6278    -9.2933    -2.1019 H       
  39 H39           -0.6150   -11.2232     1.9381 H       
  40 H40            0.8076   -12.0664     1.2798 H       
  41 H41            0.9715   -10.4163     1.9266 H       
  42 H42            4.0458    -0.7575    -1.0683 H       
  43 H43            4.4721     0.0243     0.4729 H       
  44 H44            3.6489    -1.5539     0.4733 H       
  45 H45            1.8764     3.9678    -0.5088 H       
  46 H46            0.1000     3.8556    -0.4928 H       
  47 H47            3.1239     4.2243     1.5582 H       
  48 H48            3.0939     5.0312     3.8844 H       
  49 H49            0.9508     5.3008     5.0665 H       
  50 H50           -1.1625     4.7642     3.9222 H       
  51 H51           -1.1330     3.9653     1.5932 H       
  52 H52            9.4721    10.3008    10.0665 H       
  53 Cl53           9.4721    11.6708    10.0665 Cl      
@<TRIPOS>BOND
   1    1    2 am
   2    1    6 am
   3    1   23 2
   4    2    3 1
   5    2    8 1
   6    3    4 2
   7    3    7 1
   8    4    5 1
   9    4   24 1
  10    5    6 am
  11    5   22 2
  12    6   25 1
  13    7    9 1
  14    8    9 2
  15    8   32 1
  16    9   10 1
  17   10   11 2
  18   10   12 am
  19   12   13 1
  20   12   33 1
  21   13   15 1
  22   13   34 1
  23   13   35 1
  24   14   15 ar
  25   14   19 ar
  26   14   36 1
  27   15   16 ar
  28   16   17 ar
  29   16   37 1
  30   17   18 ar
  31   17   38 1
  32   18   19 ar
  33   18   20 1
  34   20   21 1
  35   21   39 1
  36   21   40 1
  37   21   41 1
  38   24   42 1
  39   24   43 1
  40   24   44 1
  41   25   26 1
  42   25   45 1
  43   25   46 1
  44   26   27 ar
  45   26   31 ar
  46   27   28 ar
  47   27   47 1
  48   28   29 ar
  49   28   48 1
  50   29   30 ar
  51   29   49 1
  52   30   31 ar
  53   30   50 1
  54   31   51 1
  55   52   53 1

#	End of record

