#	Name: ASD03240235
#	Creating user name:	WinNT
#	Creation time:	15. 06. 2019 20:34

#	Modifying user name:	WinNT
#	Modification time:	15. 06. 2019 20:34

#	Program:	/corina/corina34_cracker 3.40 0067  02.08.2006

@<TRIPOS>MOLECULE
ASD03240235
  47   51    0    0    0
SMALL
NO_CHARGES


@<TRIPOS>ATOM
   1 C1            -0.5306     1.9237    -0.6208 C.ar    
   2 C2            -0.6935     0.5653    -0.5781 C.ar    
   3 C3             0.4284    -0.2621    -0.4846 C.ar    
   4 N4             1.6520     0.2453    -0.4360 N.ar    
   5 C5             1.8576     1.5514    -0.4744 C.ar    
   6 C6             0.7708     2.4409    -0.5687 C.ar    
   7 N7             2.9927     2.3375    -0.4408 N.pl3   
   8 C8             2.5842     3.6460    -0.5132 C.2     
   9 N9             1.2757     3.6974    -0.5882 N.2     
  10 C10            3.4818     4.8179    -0.5078 C.ar    
  11 C11            4.3149     1.8838    -0.3495 C.ar    
  12 C12            4.8779     1.1658    -1.3962 C.ar    
  13 C13            6.1820     0.7203    -1.3033 C.ar    
  14 C14            6.9265     0.9882    -0.1693 C.ar    
  15 C15            6.3685     1.7026     0.8749 C.ar    
  16 C16            5.0670     2.1561     0.7855 C.ar    
  17 N17            4.0364     6.9568     0.3416 N.ar    
  18 C18            3.2285     5.9085     0.3401 C.ar    
  19 C19            4.6028     4.8597    -1.3425 C.ar    
  20 C20            5.4136     5.9813    -1.2997 C.ar    
  21 C21            5.0960     7.0182    -0.4419 C.ar    
  22 C22            8.3489     0.5002    -0.0711 C.3     
  23 N23            2.1261     5.8871     1.1794 N.pl3   
  24 N24            9.2557     1.5225    -0.6100 N.3     
  25 C25            0.2471    -1.7331    -0.4386 C.2     
  26 C26           -0.9713    -2.4273    -0.5792 C.2     
  27 N27           -0.7229    -3.7061    -0.4810 N.2     
  28 N28            0.6512    -3.8786    -0.2757 N.pl3   
  29 C29            1.2312    -2.6625    -0.2581 C.2     
  30 H30           -1.3842     2.5808    -0.6974 H       
  31 H31           -1.6837     0.1356    -0.6160 H       
  32 H32            4.2967     0.9557    -2.2818 H       
  33 H33            6.6204     0.1618    -2.1171 H       
  34 H34            6.9524     1.9099     1.7595 H       
  35 H35            4.6332     2.7181     1.5994 H       
  36 H36            4.8309     4.0371    -2.0042 H       
  37 H37            6.2874     6.0455    -1.9311 H       
  38 H38            5.7293     7.8925    -0.4097 H       
  39 H39            8.5963     0.3093     0.9732 H       
  40 H40            8.4576    -0.4205    -0.6443 H       
  41 H41            1.8968     6.6735     1.6989 H       
  42 H42            1.5839     5.0857     1.2475 H       
  43 H43           10.2164     1.2189    -0.5554 H       
  44 H44            9.0062     1.7640    -1.5574 H       
  45 H45           -1.9411    -1.9802    -0.7400 H       
  46 H46            1.1077    -4.7277    -0.1682 H       
  47 H47            2.2833    -2.4595    -0.1233 H       
@<TRIPOS>BOND
   1    1    2 ar
   2    1    6 ar
   3    1   30 1
   4    2    3 ar
   5    2   31 1
   6    3    4 ar
   7    3   25 1
   8    4    5 ar
   9    5    7 1
  10    5    6 ar
  11    6    9 1
  12    7    8 1
  13    7   11 1
  14    8    9 2
  15    8   10 1
  16   10   19 ar
  17   10   18 ar
  18   11   12 ar
  19   11   16 ar
  20   12   13 ar
  21   12   32 1
  22   13   14 ar
  23   13   33 1
  24   14   15 ar
  25   14   22 1
  26   15   16 ar
  27   15   34 1
  28   16   35 1
  29   17   18 ar
  30   17   21 ar
  31   18   23 1
  32   19   20 ar
  33   19   36 1
  34   20   21 ar
  35   20   37 1
  36   21   38 1
  37   22   24 1
  38   22   39 1
  39   22   40 1
  40   23   41 1
  41   23   42 1
  42   24   43 1
  43   24   44 1
  44   25   26 1
  45   25   29 2
  46   26   27 2
  47   26   45 1
  48   27   28 1
  49   28   29 1
  50   28   46 1
  51   29   47 1

#	End of record

