#	Name: ASD01812696
#	Creating user name:	WinNT
#	Creation time:	15. 06. 2019 19:29

#	Modifying user name:	WinNT
#	Modification time:	15. 06. 2019 19:29

#	Program:	/corina/corina34_cracker 3.40 0067  02.08.2006

@<TRIPOS>MOLECULE
ASD01812696
  58   62    0    0    0
SMALL
NO_CHARGES


@<TRIPOS>ATOM
   1 O1            -0.0163     1.3525     0.0095 O.3     
   2 C2             0.0267    -0.0035    -0.0013 C.ar    
   3 C3             1.2416    -0.6609    -0.1230 C.ar    
   4 C4             1.2881    -2.0411    -0.1342 C.ar    
   5 C5             0.1202    -2.7812    -0.0233 C.ar    
   6 C6            -1.0917    -2.1428     0.0980 C.ar    
   7 C7            -1.1561    -0.7466     0.1164 C.ar    
   8 C8            -2.5107    -2.6360     0.2341 C.3     
   9 N9            -3.3538    -1.4382     0.3221 N.am    
  10 C10           -2.5664    -0.3503     0.2623 C.2     
  11 C11           -4.8119    -1.4294     0.4636 C.3     
  12 O12           -2.9638     0.7979     0.3083 O.2     
  13 C13           -5.1747    -1.4338     1.9263 C.ar    
  14 C14           -5.3329    -0.2365     2.6006 C.ar    
  15 C15           -5.6655    -0.2348     3.9402 C.ar    
  16 C16           -5.8420    -1.4418     4.6129 C.ar    
  17 C17           -5.6815    -2.6447     3.9290 C.ar    
  18 C18           -5.3539    -2.6350     2.5882 C.ar    
  19 C19            1.2357     2.0413     0.0121 C.3     
  20 C20            1.0535     3.4282     0.6319 C.3     
  21 C21            2.3940     4.1657     0.6347 C.3     
  22 C22            2.8987     4.3117    -0.8023 C.3     
  23 C23            3.0810     2.9248    -1.4221 C.3     
  24 C24            1.7405     2.1872    -1.4249 C.3     
  25 O25            0.5820     3.2919     1.9740 O.3     
  26 C26           -6.1994    -1.4460     6.0540 C.2     
  27 C27           -6.3925    -0.3122     6.8670 C.2     
  28 N28           -6.6945    -0.7223     8.0704 N.2     
  29 N29           -6.7061    -2.1224     8.0735 N.pl3   
  30 C30           -6.4063    -2.5489     6.8301 C.2     
  31 C31           -6.9988    -2.9764     9.2273 C.3     
  32 Br32           0.1946    -4.6707    -0.0397 Br      
  33 H33            2.1550    -0.0913    -0.2097 H       
  34 H34            2.2378    -2.5463    -0.2300 H       
  35 H35           -2.7878    -3.2259    -0.6396 H       
  36 H36           -2.6143    -3.2345     1.1392 H       
  37 H37           -5.2174    -0.5347    -0.0087 H       
  38 H38           -5.2289    -2.3146    -0.0168 H       
  39 H39           -5.1955     0.6986     2.0781 H       
  40 H40           -5.7885     0.7006     4.4658 H       
  41 H41           -5.8172    -3.5831     4.4460 H       
  42 H42           -5.2332    -3.5670     2.0560 H       
  43 H43            1.9609     1.4747     0.5961 H       
  44 H44            0.3282     3.9948     0.0478 H       
  45 H45            2.2641     5.1538     1.0763 H       
  46 H46            3.1192     3.5992     1.2187 H       
  47 H47            2.1735     4.8782    -1.3864 H       
  48 H48            3.8537     4.8371    -0.8003 H       
  49 H49            3.4406     3.0287    -2.4458 H       
  50 H50            3.8062     2.3582    -0.8381 H       
  51 H51            1.8703     1.1992    -1.8665 H       
  52 H52            1.0152     2.7538    -2.0090 H       
  53 H53            0.4437     4.1335     2.4297 H       
  54 H54           -6.3057     0.7168     6.5510 H       
  55 H55           -6.3395    -3.5775     6.5075 H       
  56 H56           -8.0688    -3.1808     9.2658 H       
  57 H57           -6.4528    -3.9150     9.1324 H       
  58 H58           -6.6927    -2.4688    10.1420 H       
@<TRIPOS>BOND
   1    1    2 1
   2    1   19 1
   3    2    3 ar
   4    2    7 ar
   5    3    4 ar
   6    3   33 1
   7    4    5 ar
   8    4   34 1
   9    5    6 ar
  10    5   32 1
  11    6    8 1
  12    6    7 ar
  13    7   10 1
  14    8    9 1
  15    8   35 1
  16    8   36 1
  17    9   10 am
  18    9   11 1
  19   10   12 2
  20   11   13 1
  21   11   37 1
  22   11   38 1
  23   13   14 ar
  24   13   18 ar
  25   14   15 ar
  26   14   39 1
  27   15   16 ar
  28   15   40 1
  29   16   17 ar
  30   16   26 1
  31   17   18 ar
  32   17   41 1
  33   18   42 1
  34   19   20 1
  35   19   24 1
  36   19   43 1
  37   20   21 1
  38   20   25 1
  39   20   44 1
  40   21   22 1
  41   21   45 1
  42   21   46 1
  43   22   23 1
  44   22   47 1
  45   22   48 1
  46   23   24 1
  47   23   49 1
  48   23   50 1
  49   24   51 1
  50   24   52 1
  51   25   53 1
  52   26   27 1
  53   26   30 2
  54   27   28 2
  55   27   54 1
  56   28   29 1
  57   29   30 1
  58   29   31 1
  59   30   55 1
  60   31   56 1
  61   31   57 1
  62   31   58 1

#	End of record

