#	Name: ASD01870213
#	Creating user name:	WinNT
#	Creation time:	15. 06. 2019 19:38

#	Modifying user name:	WinNT
#	Modification time:	15. 06. 2019 19:38

#	Program:	/corina/corina34_cracker 3.40 0067  02.08.2006

@<TRIPOS>MOLECULE
ASD01870213
  51   55    0    0    0
SMALL
NO_CHARGES


@<TRIPOS>ATOM
   1 C1            -0.0168     1.3890     0.0097 C.ar    
   2 C2             0.0021    -0.0041     0.0020 C.ar    
   3 C3             1.1787    -0.6895    -0.0125 C.ar    
   4 C4             2.3941     0.0134    -0.0203 C.ar    
   5 C5             2.3756     1.4326    -0.0130 C.ar    
   6 C6             1.1407     2.1050     0.0025 C.ar    
   7 C7             3.6272    -0.6639    -0.0358 C.ar    
   8 C8             4.7900     0.0348    -0.0432 C.ar    
   9 C9             4.7884     1.4437    -0.0357 C.ar    
  10 C10            3.5863     2.1337    -0.0209 C.ar    
  11 C11            5.8878     2.4280    -0.0415 C.2     
  12 N12            5.3953     3.6785    -0.0309 N.am    
  13 C13            3.9299     3.6020    -0.0172 C.3     
  14 C14            6.1491     4.8501    -0.0328 C.ar    
  15 C15            7.5327     4.7790    -0.1524 C.ar    
  16 C16            8.2691     5.9502    -0.1529 C.ar    
  17 C17            7.5937     7.1574    -0.0332 C.ar    
  18 C18            6.2178     7.1537     0.0819 C.ar    
  19 N19            5.5413     6.0211     0.0739 N.ar    
  20 C20            3.6564    -2.1706    -0.0436 C.3     
  21 C21            3.5285    -2.6682    -1.4603 C.ar    
  22 C22            4.6546    -2.8750    -2.2314 C.ar    
  23 N23            4.5536    -3.3104    -3.4730 N.ar    
  24 C24            3.3794    -3.5647    -4.0258 C.ar    
  25 C25            2.2043    -3.3792    -3.3085 C.ar    
  26 C26            2.2771    -2.9289    -2.0020 C.ar    
  27 O27            7.0707     2.1478    -0.0541 O.2     
  28 C28            5.4789     8.4606     0.2127 C.3     
  29 O29            3.3219    -4.0107    -5.3059 O.3     
  30 C30            4.5649    -4.1807    -5.9902 C.3     
  31 H31           -0.9637     1.9083     0.0170 H       
  32 H32           -0.9306    -0.5486     0.0080 H       
  33 H33            1.1770    -1.7695    -0.0175 H       
  34 H34            1.1108     3.1846     0.0078 H       
  35 H35            5.7302    -0.4965    -0.0547 H       
  36 H36            3.5211     4.0849    -0.9047 H       
  37 H37            3.5381     4.0764     0.8825 H       
  38 H38            8.0258     3.8224    -0.2434 H       
  39 H39            9.3450     5.9260    -0.2440 H       
  40 H40            8.1390     8.0896    -0.0298 H       
  41 H41            4.5988    -2.5179     0.3798 H       
  42 H42            2.8276    -2.5531     0.5521 H       
  43 H43            5.6307    -2.6776    -1.8134 H       
  44 H44            1.2470    -3.5875    -3.7630 H       
  45 H45            1.3804    -2.7758    -1.4198 H       
  46 H46            5.2151     8.8296    -0.7784 H       
  47 H47            4.5715     8.3081     0.7971 H       
  48 H48            6.1157     9.1895     0.7141 H       
  49 H49            5.0880    -3.2255    -6.0360 H       
  50 H50            5.1782    -4.9055    -5.4548 H       
  51 H51            4.3765    -4.5407    -7.0016 H       
@<TRIPOS>BOND
   1    1    2 ar
   2    1    6 ar
   3    1   31 1
   4    2    3 ar
   5    2   32 1
   6    3    4 ar
   7    3   33 1
   8    4    5 ar
   9    4    7 ar
  10    5    6 ar
  11    5   10 ar
  12    6   34 1
  13    7    8 ar
  14    7   20 1
  15    8    9 ar
  16    8   35 1
  17    9   10 ar
  18    9   11 1
  19   10   13 1
  20   11   12 am
  21   11   27 2
  22   12   13 1
  23   12   14 1
  24   13   36 1
  25   13   37 1
  26   14   15 ar
  27   14   19 ar
  28   15   16 ar
  29   15   38 1
  30   16   17 ar
  31   16   39 1
  32   17   18 ar
  33   17   40 1
  34   18   19 ar
  35   18   28 1
  36   20   21 1
  37   20   41 1
  38   20   42 1
  39   21   22 ar
  40   21   26 ar
  41   22   23 ar
  42   22   43 1
  43   23   24 ar
  44   24   25 ar
  45   24   29 1
  46   25   26 ar
  47   25   44 1
  48   26   45 1
  49   28   46 1
  50   28   47 1
  51   28   48 1
  52   29   30 1
  53   30   49 1
  54   30   50 1
  55   30   51 1

#	End of record

