#	Name: ASD01811450
#	Creating user name:	WinNT
#	Creation time:	15. 06. 2019 19:26

#	Modifying user name:	WinNT
#	Modification time:	15. 06. 2019 19:26

#	Program:	/corina/corina34_cracker 3.40 0067  02.08.2006

@<TRIPOS>MOLECULE
ASD01811450
  64   68    0    0    0
SMALL
NO_CHARGES


@<TRIPOS>ATOM
   1 C1            -7.7237     2.5986    -4.2242 C.1     
   2 C2            -6.7064     3.3426    -3.5444 C.ar    
   3 C3            -5.5294     2.7112    -3.1374 C.ar    
   4 C4            -4.5535     3.4339    -2.4829 C.ar    
   5 C5            -4.7392     4.7814    -2.2292 C.ar    
   6 C6            -5.9032     5.4132    -2.6294 C.ar    
   7 C7            -6.8845     4.7041    -3.2906 C.ar    
   8 N8            -8.5307     2.0083    -4.7634 N.1     
   9 N9            -2.5687     7.9123    -0.3835 N.am    
  10 C10           -2.0712     7.4758    -1.6953 C.3     
  11 C11           -3.1831     6.7036    -2.4123 C.3     
  12 C12           -3.6688     5.5642    -1.5133 C.3     
  13 C13           -4.2412     6.1432    -0.2174 C.3     
  14 C14           -3.1413     6.9091     0.5245 C.3     
  15 C15           -2.4962     9.2075    -0.0179 C.2     
  16 C16           -3.0784     9.6463     1.2686 C.ar    
  17 C17           -4.0247    10.6734     1.2947 C.ar    
  18 C18           -4.5690    11.0841     2.4950 C.ar    
  19 C19           -4.1821    10.4837     3.6771 C.ar    
  20 C20           -3.2373     9.4560     3.6652 C.ar    
  21 C21           -2.6885     9.0323     2.4569 C.ar    
  22 O22           -1.9523    10.0150    -0.7457 O.2     
  23 C23           -2.8238     8.8144     4.9324 C.2     
  24 N24           -1.8335     7.8814     5.0706 N.pl3   
  25 C25           -1.7794     7.5585     6.3890 C.2     
  26 C26           -2.7282     8.2910     7.0224 C.2     
  27 N27           -3.3435     9.0493     6.1204 N.2     
  28 C28           -0.8718     6.5871     7.0983 C.3     
  29 C29           -2.9710     8.1976     8.5098 C.3     
  30 C30           -2.2875     6.9191     9.0159 C.3     
  31 O31           -0.9533     6.8520     8.5058 O.3     
  32 C32           -4.7810    10.9392     4.9828 C.3     
  33 C33           -4.4520    11.3349     0.0098 C.3     
  34 C34           -5.4844    10.4551    -0.6980 C.3     
  35 H35           -5.3835     1.6593    -3.3341 H       
  36 H36           -3.6426     2.9468    -2.1675 H       
  37 H37           -6.0419     6.4652    -2.4278 H       
  38 H38           -7.7905     5.1996    -3.6067 H       
  39 H39           -1.7904     8.3465    -2.2878 H       
  40 H40           -1.2049     6.8282    -1.5604 H       
  41 H41           -4.0131     7.3766    -2.6272 H       
  42 H42           -2.7970     6.2919    -3.3448 H       
  43 H43           -2.8328     4.9054    -1.2784 H       
  44 H44           -5.0612     6.8215    -0.4530 H       
  45 H45           -4.6082     5.3327     0.4122 H       
  46 H46           -2.3622     6.2152     0.8403 H       
  47 H47           -3.5665     7.4059     1.3965 H       
  48 H48           -5.3003    11.8786     2.5098 H       
  49 H49           -1.9608     8.2344     2.4418 H       
  50 H50           -1.2772     7.5195     4.3632 H       
  51 H51           -1.1949     5.5659     6.8962 H       
  52 H52            0.1541     6.7242     6.7564 H       
  53 H53           -2.5438     9.0673     9.0091 H       
  54 H54           -4.0419     8.1467     8.7068 H       
  55 H55           -2.2591     6.9300    10.1055 H       
  56 H56           -2.8496     6.0488     8.6770 H       
  57 H57           -5.6170    10.2908     5.2449 H       
  58 H58           -4.0244    10.8911     5.7659 H       
  59 H59           -5.1347    11.9653     4.8819 H       
  60 H60           -4.8932    12.3068     0.2308 H       
  61 H61           -3.5842    11.4683    -0.6362 H       
  62 H62           -5.0431     9.4833    -0.9190 H       
  63 H63           -6.3521    10.3218    -0.0520 H       
  64 H64           -5.7934    10.9336    -1.6273 H       
@<TRIPOS>BOND
   1    1    2 1
   2    1    8 3
   3    2    3 ar
   4    2    7 ar
   5    3    4 ar
   6    3   35 1
   7    4    5 ar
   8    4   36 1
   9    5    6 ar
  10    5   12 1
  11    6    7 ar
  12    6   37 1
  13    7   38 1
  14    9   10 1
  15    9   14 1
  16    9   15 am
  17   10   11 1
  18   10   39 1
  19   10   40 1
  20   11   12 1
  21   11   41 1
  22   11   42 1
  23   12   13 1
  24   12   43 1
  25   13   14 1
  26   13   44 1
  27   13   45 1
  28   14   46 1
  29   14   47 1
  30   15   16 1
  31   15   22 2
  32   16   17 ar
  33   16   21 ar
  34   17   18 ar
  35   17   33 1
  36   18   19 ar
  37   18   48 1
  38   19   20 ar
  39   19   32 1
  40   20   21 ar
  41   20   23 1
  42   21   49 1
  43   23   24 1
  44   23   27 2
  45   24   25 1
  46   24   50 1
  47   25   26 2
  48   25   28 1
  49   26   27 1
  50   26   29 1
  51   28   31 1
  52   28   51 1
  53   28   52 1
  54   29   30 1
  55   29   53 1
  56   29   54 1
  57   30   31 1
  58   30   55 1
  59   30   56 1
  60   32   57 1
  61   32   58 1
  62   32   59 1
  63   33   34 1
  64   33   60 1
  65   33   61 1
  66   34   62 1
  67   34   63 1
  68   34   64 1

#	End of record

