#	Name: ASD02198478
#	Creating user name:	WinNT
#	Creation time:	15. 06. 2019 20:19

#	Modifying user name:	WinNT
#	Modification time:	15. 06. 2019 20:19

#	Program:	/corina/corina34_cracker 3.40 0067  02.08.2006

@<TRIPOS>MOLECULE
ASD02198478
  38   41    0    0    0
SMALL
NO_CHARGES


@<TRIPOS>ATOM
   1 C1             0.0822     1.0112    -0.1358 C.2     
   2 C2             0.3403    -0.3179    -0.2217 C.2     
   3 N3             1.6119    -0.7784    -0.2238 N.pl3   
   4 N4             2.6377    -0.0138    -0.1465 N.2     
   5 C5             2.5294     1.2943    -0.0585 C.2     
   6 C6             1.1852     1.8944    -0.0488 C.2     
   7 C7             1.8180    -2.1589    -0.3146 C.ar    
   8 C8             3.3025    -4.0274    -0.5646 C.ar    
   9 C9             2.2228    -4.8919    -0.4937 C.ar    
  10 C10            0.9427    -4.3924    -0.3394 C.ar    
  11 C11            0.7372    -3.0298    -0.2497 C.ar    
  12 C12            3.7337     2.1448     0.0295 C.2     
  13 N13            4.8695     1.8732     0.7394 N.pl3   
  14 N14            5.7573     2.9392     0.5480 N.2     
  15 C15            5.1939     3.8201    -0.2398 C.2     
  16 C16            3.9260     3.3585    -0.5934 C.2     
  17 C17            5.1036     0.7331     1.5188 C.ar    
  18 C18            4.1029     0.2369     2.3439 C.ar    
  19 O19            1.0281     3.1035     0.0308 O.2     
  20 C20            3.1025    -2.6614    -0.4753 C.ar    
  21 C21            6.3349     0.0934     1.4636 C.ar    
  22 C22            6.5626    -1.0305     2.2333 C.ar    
  23 C23            5.5660    -1.5189     3.0583 C.ar    
  24 C24            4.3369    -0.8874     3.1112 C.ar    
  25 F25            4.5521    -4.5184    -0.7150 F       
  26 H26           -0.9316     1.3836    -0.1381 H       
  27 H27           -0.4800    -1.0171    -0.2889 H       
  28 H28            2.3810    -5.9583    -0.5595 H       
  29 H29            0.1028    -5.0691    -0.2844 H       
  30 H30           -0.2632    -2.6412    -0.1287 H       
  31 H31            5.6391     4.7485    -0.5658 H       
  32 H32            3.2194     3.8648    -1.2343 H       
  33 H33            3.1429     0.7299     2.3859 H       
  34 H34            3.9441    -1.9868    -0.5310 H       
  35 H35            7.1135     0.4741     0.8192 H       
  36 H36            7.5198    -1.5287     2.1905 H       
  37 H37            5.7464    -2.3981     3.6589 H       
  38 H38            3.5607    -1.2710     3.7567 H       
@<TRIPOS>BOND
   1    1    2 2
   2    1    6 1
   3    1   26 1
   4    2    3 1
   5    2   27 1
   6    3    4 1
   7    3    7 1
   8    4    5 2
   9    5    6 1
  10    5   12 1
  11    6   19 2
  12    7   20 ar
  13    7   11 ar
  14    8    9 ar
  15    8   25 1
  16    8   20 ar
  17    9   10 ar
  18    9   28 1
  19   10   11 ar
  20   10   29 1
  21   11   30 1
  22   12   13 1
  23   12   16 2
  24   13   14 1
  25   13   17 1
  26   14   15 2
  27   15   16 1
  28   15   31 1
  29   16   32 1
  30   17   21 ar
  31   17   18 ar
  32   18   24 ar
  33   18   33 1
  34   20   34 1
  35   21   22 ar
  36   21   35 1
  37   22   23 ar
  38   22   36 1
  39   23   24 ar
  40   23   37 1
  41   24   38 1

#	End of record

