#	Name: ASD03570024
#	Creating user name:	WinNT
#	Creation time:	15. 06. 2019 20:43

#	Modifying user name:	WinNT
#	Modification time:	15. 06. 2019 20:43

#	Program:	/corina/corina34_cracker 3.40 0067  02.08.2006

@<TRIPOS>MOLECULE
ASD03570024
  38   40    0    0    0
SMALL
NO_CHARGES


@<TRIPOS>ATOM
   1 C1            -0.0169     1.3960     0.0097 C.ar    
   2 C2             0.0021    -0.0041     0.0020 C.ar    
   3 C3             1.2114    -0.6902    -0.0128 C.ar    
   4 C4             2.4072     0.0215    -0.0204 C.ar    
   5 C5             2.3775     1.4303    -0.0131 C.ar    
   6 C6             1.1465     2.1033     0.0024 C.ar    
   7 N7             3.7289    -0.3623    -0.0348 N.pl3   
   8 C8             4.5199     0.7704    -0.0365 C.2     
   9 C9             3.7216     1.8715    -0.0235 C.2     
  10 C10            4.1858     3.3052    -0.0211 C.3     
  11 C11            4.3295     3.7971    -1.4627 C.3     
  12 C12           -1.2741    -0.7590     0.0102 C.ar    
  13 F13            1.2254    -2.0411    -0.0193 F       
  14 C14           -2.2619    -0.4531     0.9450 C.ar    
  15 C15           -3.4479    -1.1588     0.9475 C.ar    
  16 C16           -3.6571    -2.1682     0.0251 C.ar    
  17 C17           -2.6803    -2.4765    -0.9045 C.ar    
  18 C18           -1.4929    -1.7734    -0.9206 C.ar    
  19 C19            4.7937     5.2308    -1.4603 C.2     
  20 O20            4.9896     5.8007    -0.4130 O.2     
  21 O21            4.9897     5.8748    -2.6216 O.3     
  22 C22            5.9885     0.7835    -0.0503 C.2     
  23 O23            6.5870     1.8417    -0.0501 O.2     
  24 O24            6.6731    -0.3783    -0.0630 O.3     
  25 H25           -0.9618     1.9190     0.0170 H       
  26 H26            1.1217     3.1830     0.0077 H       
  27 H27            4.0517    -1.2770    -0.0424 H       
  28 H28            3.4558     3.9226     0.5025 H       
  29 H29            5.1492     3.3743     0.4842 H       
  30 H30            5.0595     3.1797    -1.9862 H       
  31 H31            3.3661     3.7280    -1.9679 H       
  32 H32           -2.0993     0.3343     1.6660 H       
  33 H33           -4.2139    -0.9227     1.6713 H       
  34 H34           -4.5867    -2.7181     0.0311 H       
  35 H35           -2.8490    -3.2658    -1.6221 H       
  36 H36           -0.7309    -2.0149    -1.6468 H       
  37 H37            5.2876     6.7933    -2.5695 H       
  38 H38            7.6382    -0.3191    -0.0718 H       
@<TRIPOS>BOND
   1    1    2 ar
   2    1    6 ar
   3    1   25 1
   4    2    3 ar
   5    2   12 1
   6    3    4 ar
   7    3   13 1
   8    4    5 ar
   9    4    7 1
  10    5    6 ar
  11    5    9 1
  12    6   26 1
  13    7    8 1
  14    7   27 1
  15    8    9 2
  16    8   22 1
  17    9   10 1
  18   10   11 1
  19   10   28 1
  20   10   29 1
  21   11   19 1
  22   11   30 1
  23   11   31 1
  24   12   14 ar
  25   12   18 ar
  26   14   15 ar
  27   14   32 1
  28   15   16 ar
  29   15   33 1
  30   16   17 ar
  31   16   34 1
  32   17   18 ar
  33   17   35 1
  34   18   36 1
  35   19   20 2
  36   19   21 1
  37   21   37 1
  38   22   23 2
  39   22   24 1
  40   24   38 1

#	End of record

