#	Name: ASD01150710
#	Creating user name:	WinNT
#	Creation time:	15. 06. 2019 19:04

#	Modifying user name:	WinNT
#	Modification time:	15. 06. 2019 19:04

#	Program:	/corina/corina34_cracker 3.40 0067  02.08.2006

@<TRIPOS>MOLECULE
ASD01150710
  46   50    0    0    0
SMALL
NO_CHARGES


@<TRIPOS>ATOM
   1 C1            -0.0508     1.2673     0.0178 C.2     
   2 O2            -0.5705     1.0101    -1.0479 O.2     
   3 C3             3.7026     3.1934     0.1144 C.ar    
   4 C4             3.6906     1.7952     0.2124 C.ar    
   5 C5             2.4353     1.1287     0.1817 C.ar    
   6 C6             1.2684     1.9058     0.0549 C.ar    
   7 C7             1.3873     3.2996    -0.0357 C.ar    
   8 N8             2.5614     3.8784    -0.0039 N.ar    
   9 C9             4.9788     1.2483     0.3299 C.2     
  10 C10            5.9796     2.1291     0.3290 C.2     
  11 S11            5.3680     3.7658     0.1693 S.3     
  12 C12            2.3572    -0.3444     0.2804 C.ar    
  13 C13            2.7615    -0.9911     1.4497 C.ar    
  14 C14            2.6861    -2.3659     1.5352 C.ar    
  15 C15            2.2116    -3.1037     0.4651 C.ar    
  16 C16            1.8097    -2.4690    -0.6970 C.ar    
  17 C17            1.8736    -1.0944    -0.7932 C.ar    
  18 C18            7.4103     1.7746     0.4416 C.ar    
  19 C19            8.3834     2.7752     0.4306 C.ar    
  20 C20            9.7168     2.4376     0.5366 C.ar    
  21 C21           10.0904     1.1105     0.6532 C.ar    
  22 C22            9.1309     0.1138     0.6648 C.ar    
  23 C23            7.7937     0.4382     0.5653 C.ar    
  24 C24            0.1463     4.1437    -0.1723 C.3     
  25 C25           -0.7639     0.9359     1.3034 C.3     
  26 C26           -2.2916     0.8603     1.2645 C.3     
  27 C27           -1.4652    -0.4209     1.3927 C.3     
  28 H28            5.1475     0.1850     0.4156 H       
  29 H29            3.1327    -0.4165     2.2854 H       
  30 H30            2.9985    -2.8675     2.4392 H       
  31 H31            2.1550    -4.1798     0.5370 H       
  32 H32            1.4410    -3.0509    -1.5288 H       
  33 H33            1.5551    -0.5999    -1.6990 H       
  34 H34            8.0931     3.8114     0.3389 H       
  35 H35           10.4707     3.2109     0.5282 H       
  36 H36           11.1357     0.8515     0.7351 H       
  37 H37            9.4292    -0.9202     0.7557 H       
  38 H38            7.0454    -0.3404     0.5787 H       
  39 H39           -0.2701     4.3399     0.8157 H       
  40 H40            0.4005     5.0880    -0.6536 H       
  41 H41           -0.5889     3.6135    -0.7777 H       
  42 H42           -0.3022     1.3249     2.2109 H       
  43 H43           -2.8348     1.1992     2.1466 H       
  44 H44           -2.7807     1.0502     0.3091 H       
  45 H45           -1.4108    -1.0740     0.5217 H       
  46 H46           -1.4649    -0.9250     2.3592 H       
@<TRIPOS>BOND
   1    1    2 2
   2    1    6 1
   3    1   25 1
   4    3    4 ar
   5    3    8 ar
   6    3   11 1
   7    4    5 ar
   8    4    9 1
   9    5    6 ar
  10    5   12 1
  11    6    7 ar
  12    7    8 ar
  13    7   24 1
  14    9   10 2
  15    9   28 1
  16   10   11 1
  17   10   18 1
  18   12   13 ar
  19   12   17 ar
  20   13   14 ar
  21   13   29 1
  22   14   15 ar
  23   14   30 1
  24   15   16 ar
  25   15   31 1
  26   16   17 ar
  27   16   32 1
  28   17   33 1
  29   18   19 ar
  30   18   23 ar
  31   19   20 ar
  32   19   34 1
  33   20   21 ar
  34   20   35 1
  35   21   22 ar
  36   21   36 1
  37   22   23 ar
  38   22   37 1
  39   23   38 1
  40   24   39 1
  41   24   40 1
  42   24   41 1
  43   25   26 1
  44   25   27 1
  45   25   42 1
  46   26   27 1
  47   26   43 1
  48   26   44 1
  49   27   45 1
  50   27   46 1

#	End of record

