#	Name: ASD00100013
#	Creating user name:	WinNT
#	Creation time:	15. 06. 2019 18:30

#	Modifying user name:	WinNT
#	Modification time:	15. 06. 2019 18:30

#	Program:	/corina/corina34_cracker 3.40 0067  02.08.2006

@<TRIPOS>MOLECULE
ASD00100013
  67   71    0    0    0
SMALL
NO_CHARGES


@<TRIPOS>ATOM
   1 O1            -0.0175     1.4400     0.0100 O.3     
   2 C2             0.0021    -0.0041     0.0020 C.3     
   3 C3             1.1520    -0.3885     0.9592 C.3     
   4 C4             2.0729     0.8522     0.9571 C.3     
   5 C5             1.3704     1.8394    -0.0011 C.3     
   6 C6            -1.3078    -0.5493     0.5100 C.2     
   7 O7            -2.1649     0.2086     0.9123 O.2     
   8 N8            -1.5268    -1.8791     0.5172 N.am    
   9 C9            -2.8001    -2.4092     1.0110 C.3     
  10 C10           -3.0654    -3.7748     0.3742 C.3     
  11 C11           -4.3952    -4.3284     0.8899 C.3     
  12 C12           -4.3293    -4.4791     2.4111 C.3     
  13 C13           -4.0641    -3.1134     3.0479 C.3     
  14 C14           -2.7342    -2.5599     2.5321 C.3     
  15 C15           -5.6592    -5.0327     2.9268 C.3     
  16 C16           -5.5517    -5.3007     4.4293 C.3     
  17 N17           -6.8285    -5.8322     4.9245 N.3     
  18 C18           -6.6956    -6.3222     6.3024 C.3     
  19 C19           -7.9994    -6.9981     6.7328 C.3     
  20 C20           -9.1471    -5.9889     6.6386 C.3     
  21 C21           -9.2330    -5.4579     5.2050 C.3     
  22 C22           -7.8935    -4.8266     4.8189 C.3     
  23 O23          -12.1582    -8.0450     6.9952 O.3     
  24 C24          -11.0029    -7.7170     6.3908 C.2     
  25 C25          -10.4435    -6.6650     7.0038 C.2     
  26 C26          -11.3470    -6.3038     8.1028 C.ar    
  27 C27          -12.4086    -7.2217     8.0332 C.ar    
  28 C28          -11.3351    -5.3207     9.0908 C.ar    
  29 C29          -12.3700    -5.2547     9.9976 C.ar    
  30 C30          -13.4184    -6.1605     9.9295 C.ar    
  31 C31          -13.4420    -7.1376     8.9572 C.ar    
  32 H32            0.2045    -0.3753    -1.0026 H       
  33 H33            0.7676    -0.5771     1.9616 H       
  34 H34            1.6861    -1.2612     0.5835 H       
  35 H35            2.1438     1.2770     1.9584 H       
  36 H36            3.0622     0.5929     0.5803 H       
  37 H37            1.7827     1.7510    -1.0063 H       
  38 H38            1.4741     2.8613     0.3638 H       
  39 H39           -0.8412    -2.4853     0.1954 H       
  40 H40           -3.6055    -1.7232     0.7484 H       
  41 H41           -3.1123    -3.6675    -0.7095 H       
  42 H42           -2.2600    -4.4608     0.6368 H       
  43 H43           -5.2006    -3.6424     0.6273 H       
  44 H44           -4.5842    -5.3013     0.4363 H       
  45 H45           -3.5239    -5.1650     2.6737 H       
  46 H46           -4.8694    -2.4275     2.7853 H       
  47 H47           -4.0171    -3.2208     4.1316 H       
  48 H48           -1.9288    -3.2458     2.7947 H       
  49 H49           -2.5452    -1.5870     2.9858 H       
  50 H50           -6.4508    -4.3063     2.7430 H       
  51 H51           -5.8915    -5.9625     2.4076 H       
  52 H52           -4.7600    -6.0271     4.6131 H       
  53 H53           -5.3193    -4.3709     4.9485 H       
  54 H54           -5.8789    -7.0421     6.3546 H       
  55 H55           -6.4842    -5.4845     6.9670 H       
  56 H56           -8.2043    -7.8444     6.0771 H       
  57 H57           -7.9058    -7.3479     7.7609 H       
  58 H58           -8.9614    -5.1612     7.3231 H       
  59 H59           -9.4573    -6.2799     4.5253 H       
  60 H60          -10.0208    -4.7072     5.1416 H       
  61 H61           -7.6765    -3.9959     5.4905 H       
  62 H62           -7.9467    -4.4602     3.7937 H       
  63 H63          -10.5861    -8.2275     5.5352 H       
  64 H64          -10.5193    -4.6150     9.1452 H       
  65 H65          -12.3649    -4.4948    10.7651 H       
  66 H66          -14.2244    -6.0999    10.6458 H       
  67 H67          -14.2637    -7.8372     8.9141 H       
@<TRIPOS>BOND
   1    1    2 1
   2    1    5 1
   3    2    3 1
   4    2    6 1
   5    2   32 1
   6    3    4 1
   7    3   33 1
   8    3   34 1
   9    4    5 1
  10    4   35 1
  11    4   36 1
  12    5   37 1
  13    5   38 1
  14    6    7 2
  15    6    8 am
  16    8    9 1
  17    8   39 1
  18    9   10 1
  19    9   14 1
  20    9   40 1
  21   10   11 1
  22   10   41 1
  23   10   42 1
  24   11   12 1
  25   11   43 1
  26   11   44 1
  27   12   13 1
  28   12   15 1
  29   12   45 1
  30   13   14 1
  31   13   46 1
  32   13   47 1
  33   14   48 1
  34   14   49 1
  35   15   16 1
  36   15   50 1
  37   15   51 1
  38   16   17 1
  39   16   52 1
  40   16   53 1
  41   17   18 1
  42   17   22 1
  43   18   19 1
  44   18   54 1
  45   18   55 1
  46   19   20 1
  47   19   56 1
  48   19   57 1
  49   20   21 1
  50   20   25 1
  51   20   58 1
  52   21   22 1
  53   21   59 1
  54   21   60 1
  55   22   61 1
  56   22   62 1
  57   23   24 1
  58   23   27 1
  59   24   25 2
  60   24   63 1
  61   25   26 1
  62   26   27 ar
  63   26   28 ar
  64   27   31 ar
  65   28   29 ar
  66   28   64 1
  67   29   30 ar
  68   29   65 1
  69   30   31 ar
  70   30   66 1
  71   31   67 1

#	End of record

