#	Name: ASD00100136
#	Creating user name:	WinNT
#	Creation time:	15. 06. 2019 18:30

#	Modifying user name:	WinNT
#	Modification time:	15. 06. 2019 18:30

#	Program:	/corina/corina34_cracker 3.40 0067  02.08.2006

@<TRIPOS>MOLECULE
ASD00100136
  38   40    0    0    0
SMALL
NO_CHARGES


@<TRIPOS>ATOM
   1 N1            -0.1250     1.5356     0.3559 N.pl3   
   2 C2            -0.0180     0.1671     0.1770 C.2     
   3 N3             1.1019    -0.4981     0.0327 N.2     
   4 C4             0.8194    -1.8177    -0.1183 C.2     
   5 C5            -0.5302    -1.9633    -0.0638 C.2     
   6 N6            -1.0583    -0.7090     0.1279 N.pl3   
   7 O7             1.5214    -4.2105    -0.4590 O.3     
   8 C8             1.8050    -2.9026    -0.3086 C.2     
   9 C9             3.1552    -2.7535    -0.3622 C.2     
  10 C10            3.6988    -4.0404    -0.5544 C.2     
  11 C11            2.6647    -4.9014    -0.6079 C.2     
  12 C12            2.7716    -6.3919    -0.8029 C.3     
  13 C13           -2.4795    -0.3761     0.2531 C.3     
  14 C14           -3.0238     0.0176    -1.0959 C.ar    
  15 C15           -3.4571    -0.9585    -1.9817 C.ar    
  16 C16           -3.9576    -0.5929    -3.2226 C.ar    
  17 C17           -4.0235     0.7418    -3.5737 C.ar    
  18 C18           -3.5908     1.7124    -2.6895 C.ar    
  19 C19           -3.0971     1.3509    -1.4494 C.ar    
  20 O20           -3.3908    -2.2707    -1.6342 O.3     
  21 C21           -3.8544    -3.2207    -2.5958 C.3     
  22 H22            0.6750     2.0784     0.4343 H       
  23 H23           -0.9999     1.9521     0.3989 H       
  24 H24           -1.0818    -2.8877    -0.1504 H       
  25 H25            3.7053    -1.8281    -0.2749 H       
  26 H26            4.7462    -4.2886    -0.6424 H       
  27 H27            1.7737    -6.8304    -0.8056 H       
  28 H28            3.2624    -6.5997    -1.7537 H       
  29 H29            3.3559    -6.8236     0.0097 H       
  30 H30           -3.0244    -1.2434     0.6257 H       
  31 H31           -2.5982     0.4542     0.9492 H       
  32 H32           -4.2951    -1.3509    -3.9140 H       
  33 H33           -4.4131     1.0270    -4.5397 H       
  34 H34           -3.6425     2.7552    -2.9661 H       
  35 H35           -2.7642     2.1113    -0.7586 H       
  36 H36           -4.9041    -3.0294    -2.8186 H       
  37 H37           -3.2666    -3.1295    -3.5092 H       
  38 H38           -3.7461    -4.2277    -2.1931 H       
@<TRIPOS>BOND
   1    1    2 1
   2    1   22 1
   3    1   23 1
   4    2    3 2
   5    2    6 1
   6    3    4 1
   7    4    5 2
   8    4    8 1
   9    5    6 1
  10    5   24 1
  11    6   13 1
  12    7    8 1
  13    7   11 1
  14    8    9 2
  15    9   10 1
  16    9   25 1
  17   10   11 2
  18   10   26 1
  19   11   12 1
  20   12   27 1
  21   12   28 1
  22   12   29 1
  23   13   14 1
  24   13   30 1
  25   13   31 1
  26   14   15 ar
  27   14   19 ar
  28   15   16 ar
  29   15   20 1
  30   16   17 ar
  31   16   32 1
  32   17   18 ar
  33   17   33 1
  34   18   19 ar
  35   18   34 1
  36   19   35 1
  37   20   21 1
  38   21   36 1
  39   21   37 1
  40   21   38 1

#	End of record

