#	Name: ASD03240148
#	Creating user name:	WinNT
#	Creation time:	15. 06. 2019 20:34

#	Modifying user name:	WinNT
#	Modification time:	15. 06. 2019 20:34

#	Program:	/corina/corina34_cracker 3.40 0067  02.08.2006

@<TRIPOS>MOLECULE
ASD03240148
  69   75    0    0    0
SMALL
NO_CHARGES


@<TRIPOS>ATOM
   1 C1            -0.0169     1.3928     0.0097 C.ar    
   2 C2             0.0021    -0.0041     0.0020 C.ar    
   3 C3             1.1946     2.0918     0.0019 C.ar    
   4 C4             2.3790     1.3591    -0.0134 C.ar    
   5 C5             2.3111    -0.0444    -0.0202 C.ar    
   6 N6             1.1390    -0.6654    -0.0124 N.ar    
   7 C7             3.5610    -0.8386    -0.0364 C.ar    
   8 C8             3.6912     2.0494    -0.0227 C.ar    
   9 C9             3.9407     3.0656    -0.9436 C.ar    
  10 C10            5.1639     3.7045    -0.9476 C.ar    
  11 C11            6.1415     3.3382    -0.0401 C.ar    
  12 C12            5.8998     2.3301     0.8758 C.ar    
  13 C13            4.6781     1.6884     0.8932 C.ar    
  14 C14            3.6287    -2.0518     0.6483 C.ar    
  15 C15            4.7960    -2.7874     0.6291 C.ar    
  16 C16            5.8978    -2.3236    -0.0671 C.ar    
  17 C17            5.8370    -1.1207    -0.7479 C.ar    
  18 C18            4.6735    -0.3791    -0.7413 C.ar    
  19 C19            7.1697    -3.1317    -0.0836 C.3     
  20 C20           -1.3016     2.1232     0.0198 C.2     
  21 N21            7.1461    -4.0587    -1.2230 N.3     
  22 C22            8.4572    -4.6921    -1.4133 C.3     
  23 C23            8.4372    -5.5359    -2.6899 C.3     
  24 C24            7.3458    -6.6035    -2.5731 C.3     
  25 C25            5.9981    -5.9197    -2.3271 C.3     
  26 C26            6.0888    -5.0648    -1.0610 C.3     
  27 N27            7.2827    -7.3771    -3.8156 N.pl3   
  28 C28            7.4820    -8.7212    -3.9189 C.ar    
  29 C29            7.3293    -9.0493    -5.2843 C.ar    
  30 C30            7.0263    -7.8022    -5.9747 C.2     
  31 N31            7.0025    -6.8533    -5.0823 N.2     
  32 S32           -2.8995     1.3812     0.0233 S.3     
  33 C33           -3.6373     2.9818     0.0362 C.2     
  34 C34           -2.6587     3.8934     0.0367 C.2     
  35 N35           -1.4344     3.4189     0.0331 N.2     
  36 N36            7.7665    -9.6941    -3.0581 N.ar    
  37 C37            7.9018   -10.9340    -3.4737 C.ar    
  38 N38            7.7662   -11.2795    -4.7430 N.ar    
  39 C39            7.4838   -10.3828    -5.6714 C.ar    
  40 C40            7.3315   -10.7891    -7.1146 C.3     
  41 H41           -0.9304    -0.5489     0.0084 H       
  42 H42            1.2112     3.1717     0.0072 H       
  43 H43            3.1782     3.3522    -1.6529 H       
  44 H44            5.3584     4.4917    -1.6609 H       
  45 H45            7.0973     3.8409    -0.0469 H       
  46 H46            6.6669     2.0480     1.5818 H       
  47 H47            4.4904     0.9015     1.6088 H       
  48 H48            2.7694    -2.4146     1.1928 H       
  49 H49            4.8496    -3.7270     1.1589 H       
  50 H50            6.7006    -0.7637    -1.2894 H       
  51 H51            4.6272     0.5597    -1.2732 H       
  52 H52            8.0245    -2.4619    -0.1778 H       
  53 H53            7.2524    -3.6981     0.8440 H       
  54 H54            9.2237    -3.9219    -1.4990 H       
  55 H55            8.6791    -5.3315    -0.5588 H       
  56 H56            8.2290    -4.8948    -3.5465 H       
  57 H57            9.4055    -6.0183    -2.8225 H       
  58 H58            7.5743    -7.2684    -1.7402 H       
  59 H59            5.7515    -5.2847    -3.1781 H       
  60 H60            5.2238    -6.6764    -2.2005 H       
  61 H61            6.3218    -5.7024    -0.2082 H       
  62 H62            5.1351    -4.5652    -0.8910 H       
  63 H63            6.8490    -7.6864    -7.0337 H       
  64 H64           -4.6969     3.1905     0.0423 H       
  65 H65           -2.8628     4.9539     0.0438 H       
  66 H66            8.1332   -11.7011    -2.7496 H       
  67 H67            6.2910   -11.0470    -7.3116 H       
  68 H68            7.6289    -9.9614    -7.7585 H       
  69 H69            7.9646   -11.6529    -7.3176 H       
@<TRIPOS>BOND
   1    1    2 ar
   2    1    3 ar
   3    1   20 1
   4    2    6 ar
   5    2   41 1
   6    3    4 ar
   7    3   42 1
   8    4    5 ar
   9    4    8 1
  10    5    6 ar
  11    5    7 1
  12    7   14 ar
  13    7   18 ar
  14    8    9 ar
  15    8   13 ar
  16    9   10 ar
  17    9   43 1
  18   10   11 ar
  19   10   44 1
  20   11   12 ar
  21   11   45 1
  22   12   13 ar
  23   12   46 1
  24   13   47 1
  25   14   15 ar
  26   14   48 1
  27   15   16 ar
  28   15   49 1
  29   16   17 ar
  30   16   19 1
  31   17   18 ar
  32   17   50 1
  33   18   51 1
  34   19   21 1
  35   19   52 1
  36   19   53 1
  37   20   32 1
  38   20   35 2
  39   21   22 1
  40   21   26 1
  41   22   23 1
  42   22   54 1
  43   22   55 1
  44   23   24 1
  45   23   56 1
  46   23   57 1
  47   24   25 1
  48   24   27 1
  49   24   58 1
  50   25   26 1
  51   25   59 1
  52   25   60 1
  53   26   61 1
  54   26   62 1
  55   27   28 1
  56   27   31 1
  57   28   29 ar
  58   28   36 ar
  59   29   30 1
  60   29   39 ar
  61   30   31 2
  62   30   63 1
  63   32   33 1
  64   33   34 2
  65   33   64 1
  66   34   35 1
  67   34   65 1
  68   36   37 ar
  69   37   38 ar
  70   37   66 1
  71   38   39 ar
  72   39   40 1
  73   40   67 1
  74   40   68 1
  75   40   69 1

#	End of record

