#	Name: ASD01882824
#	Creating user name:	WinNT
#	Creation time:	15. 06. 2019 19:45

#	Modifying user name:	WinNT
#	Modification time:	15. 06. 2019 19:45

#	Program:	/corina/corina34_cracker 3.40 0067  02.08.2006

@<TRIPOS>MOLECULE
ASD01882824
  22   23    0    0    0
SMALL
NO_CHARGES


@<TRIPOS>ATOM
   1 C1             0.0021    -0.0041     0.0020 C.1     
   2 C2            -0.0173     1.4278     0.0099 C.ar    
   3 C3             1.1834     2.1459     0.0023 C.ar    
   4 C4             1.1590     3.5244     0.0094 C.ar    
   5 C5            -0.0552     4.1994     0.0242 C.ar    
   6 C6            -1.2499     3.4894     0.0318 C.ar    
   7 C7            -1.2357     2.1122     0.0194 C.ar    
   8 N8             0.0175    -1.1399    -0.0042 N.1     
   9 O9            -0.0747     5.5568     0.0316 O.3     
  10 C10           -1.3571     6.1871     0.0468 C.3     
  11 O11           -1.6692     8.4396    -1.0710 O.3     
  12 C12           -1.1784     7.7066     0.0533 C.3     
  13 C13           -2.4379     8.5722     0.1263 C.3     
  14 Cl14           2.7008     1.3030    -0.0156 Cl      
  15 H15            2.0850     4.0802     0.0039 H       
  16 H16           -2.1912     4.0186     0.0436 H       
  17 H17           -2.1650     1.5619     0.0211 H       
  18 H18           -1.9179     5.8910    -0.8397 H       
  19 H19           -1.9016     5.8814     0.9401 H       
  20 H20           -0.2787     8.0749     0.5462 H       
  21 H21           -2.3750     9.5158     0.6684 H       
  22 H22           -3.4014     8.0644     0.1702 H       
@<TRIPOS>BOND
   1    1    2 1
   2    1    8 3
   3    2    3 ar
   4    2    7 ar
   5    3    4 ar
   6    3   14 1
   7    4    5 ar
   8    4   15 1
   9    5    6 ar
  10    5    9 1
  11    6    7 ar
  12    6   16 1
  13    7   17 1
  14    9   10 1
  15   10   12 1
  16   10   18 1
  17   10   19 1
  18   11   12 1
  19   11   13 1
  20   12   13 1
  21   12   20 1
  22   13   21 1
  23   13   22 1

#	End of record

