#	Name: ASD01840465
#	Creating user name:	WinNT
#	Creation time:	15. 06. 2019 19:37

#	Modifying user name:	WinNT
#	Modification time:	15. 06. 2019 19:37

#	Program:	/corina/corina34_cracker 3.40 0067  02.08.2006

@<TRIPOS>MOLECULE
ASD01840465
  45   48    0    0    0
SMALL
NO_CHARGES


@<TRIPOS>ATOM
   1 C1             0.2611     1.7552    -0.9980 C.ar    
   2 C2             0.3841     0.5320    -1.6195 C.ar    
   3 N3             1.4990    -0.1677    -1.4965 N.ar    
   4 N4             2.4999     0.2427    -0.8111 N.ar    
   5 C5             1.3546     2.2267    -0.2364 C.ar    
   6 C6             1.5104     3.4570     0.5171 C.2     
   7 C7             2.4928     1.4121    -0.1670 C.ar    
   8 S8             3.7250     2.1824     0.8223 S.3     
   9 C9             2.7118     3.5783     1.1344 C.2     
  10 C10           -0.9999     2.5697    -1.1313 C.3     
  11 C11           -0.7562    -0.0106    -2.4419 C.3     
  12 N12            0.5179     4.4243     0.5985 N.pl3   
  13 C13            3.1102     4.7236     1.9514 C.2     
  14 O14            2.3404     5.6527     2.1138 O.2     
  15 N15            4.3297     4.7507     2.5248 N.am    
  16 C16            5.0757     5.6831     3.3831 C.3     
  17 C17            5.4973     3.8578     2.5728 C.3     
  18 C18            5.8492     4.4755     3.9303 C.3     
  19 C19            7.3435     4.7296     4.1388 C.3     
  20 C20            7.9720     3.5244     4.7895 C.ar    
  21 C21            8.4897     2.5083     4.0081 C.ar    
  22 C22            9.0662     1.4027     4.6050 C.ar    
  23 C23            9.1254     1.3134     5.9832 C.ar    
  24 C24            8.6085     2.3299     6.7645 C.ar    
  25 C25            8.0359     3.4375     6.1676 C.ar    
  26 H26           -1.6441     2.3852    -0.2716 H       
  27 H27           -0.7456     3.6287    -1.1742 H       
  28 H28           -1.5220     2.2841    -2.0445 H       
  29 H29           -0.6493     0.3210    -3.4747 H       
  30 H30           -0.7433    -1.1000    -2.4068 H       
  31 H31           -1.7008     0.3547    -2.0389 H       
  32 H32           -0.4028     4.1923     0.4002 H       
  33 H33            0.7452     5.3322     0.8537 H       
  34 H34            5.6996     6.3818     2.8256 H       
  35 H35            4.4548     6.1761     4.1311 H       
  36 H36            5.2341     2.8018     2.6332 H       
  37 H37            6.2346     4.0653     1.7972 H       
  38 H38            5.3708     3.9852     4.7782 H       
  39 H39            7.8190     4.9116     3.1750 H       
  40 H40            7.4779     5.6004     4.7804 H       
  41 H41            8.4435     2.5781     2.9314 H       
  42 H42            9.4701     0.6086     3.9945 H       
  43 H43            9.5752     0.4494     6.4495 H       
  44 H44            8.6545     2.2600     7.8413 H       
  45 H45            7.6354     4.2334     6.7780 H       
@<TRIPOS>BOND
   1    1    2 ar
   2    1    5 ar
   3    1   10 1
   4    2   11 1
   5    2    3 ar
   6    3    4 ar
   7    4    7 ar
   8    5    7 ar
   9    5    6 1
  10    6    9 2
  11    6   12 1
  12    7    8 1
  13    8    9 1
  14    9   13 1
  15   10   26 1
  16   10   27 1
  17   10   28 1
  18   11   29 1
  19   11   30 1
  20   11   31 1
  21   12   32 1
  22   12   33 1
  23   13   14 2
  24   13   15 am
  25   15   16 1
  26   15   17 1
  27   16   18 1
  28   16   34 1
  29   16   35 1
  30   17   18 1
  31   17   36 1
  32   17   37 1
  33   18   19 1
  34   18   38 1
  35   19   20 1
  36   19   39 1
  37   19   40 1
  38   20   21 ar
  39   20   25 ar
  40   21   22 ar
  41   21   41 1
  42   22   23 ar
  43   22   42 1
  44   23   24 ar
  45   23   43 1
  46   24   25 ar
  47   24   44 1
  48   25   45 1

#	End of record

