#	Name: ASD01150676
#	Creating user name:	WinNT
#	Creation time:	15. 06. 2019 19:04

#	Modifying user name:	WinNT
#	Modification time:	15. 06. 2019 19:04

#	Program:	/corina/corina34_cracker 3.40 0067  02.08.2006

@<TRIPOS>MOLECULE
ASD01150676
  39   42    0    0    0
SMALL
NO_CHARGES


@<TRIPOS>ATOM
   1 C1            -0.0368     1.4997    -0.0465 C.2     
   2 C2            -0.8241     1.3922     1.2340 C.3     
   3 C3             3.6739     3.5097    -0.0814 C.ar    
   4 C4             2.5305     4.2681    -0.3226 C.ar    
   5 C5             1.2654     3.6141    -0.3156 C.ar    
   6 C6             1.2342     2.2247    -0.0652 C.ar    
   7 C7             2.4428     1.5522     0.1656 C.ar    
   8 N8             3.5836     2.1927     0.1506 N.ar    
   9 C9             2.8260     5.6770    -0.5550 C.2     
  10 C10            4.1252     5.9739    -0.4927 C.2     
  11 S11            5.0910     4.5489    -0.1508 S.3     
  12 C12            4.6962     7.3668    -0.6966 C.3     
  13 C13            3.6386     8.2381    -1.3784 C.3     
  14 C14            2.3180     8.1067    -0.6136 C.3     
  15 C15            1.7428     6.7082    -0.8436 C.3     
  16 C16            0.0266     4.3646    -0.5616 C.2     
  17 C17           -0.6021     5.1732     0.3412 C.2     
  18 C18           -1.7475     5.7552    -0.1550 C.2     
  19 C19           -2.0448     5.4342    -1.4178 C.2     
  20 S20           -0.8797     4.3711    -2.0683 S.3     
  21 C21            2.4276     0.0694     0.4344 C.3     
  22 F22           -2.0366     0.7412     0.9826 F       
  23 F23           -0.0888     0.6618     2.1737 F       
  24 F24           -1.0779     2.6737     1.7344 F       
  25 O25           -0.4544     0.9807    -1.0610 O.2     
  26 H26            4.9586     7.7991     0.2689 H       
  27 H27            5.5837     7.3092    -1.3268 H       
  28 H28            3.9628     9.2787    -1.3707 H       
  29 H29            3.4993     7.9052    -2.4070 H       
  30 H30            2.4971     8.2561     0.4512 H       
  31 H31            1.6121     8.8549    -0.9740 H       
  32 H32            1.4152     6.6139    -1.8790 H       
  33 H33            0.8972     6.5466    -0.1750 H       
  34 H34           -0.2379     5.3393     1.3443 H       
  35 H35           -2.3607     6.4218     0.4333 H       
  36 H36           -2.9054     5.8025    -1.9564 H       
  37 H37            2.4547    -0.4716    -0.5115 H       
  38 H38            3.2981    -0.2004     1.0323 H       
  39 H39            1.5191    -0.1922     0.9767 H       
@<TRIPOS>BOND
   1    1    2 1
   2    1    6 1
   3    1   25 2
   4    2   22 1
   5    2   23 1
   6    2   24 1
   7    3    4 ar
   8    3    8 ar
   9    3   11 1
  10    4    5 ar
  11    4    9 1
  12    5    6 ar
  13    5   16 1
  14    6    7 ar
  15    7    8 ar
  16    7   21 1
  17    9   10 2
  18    9   15 1
  19   10   11 1
  20   10   12 1
  21   12   13 1
  22   12   26 1
  23   12   27 1
  24   13   14 1
  25   13   28 1
  26   13   29 1
  27   14   15 1
  28   14   30 1
  29   14   31 1
  30   15   32 1
  31   15   33 1
  32   16   17 2
  33   16   20 1
  34   17   18 1
  35   17   34 1
  36   18   19 2
  37   18   35 1
  38   19   20 1
  39   19   36 1
  40   21   37 1
  41   21   38 1
  42   21   39 1

#	End of record

