#	Name: ASD00844906
#	Creating user name:	WinNT
#	Creation time:	15. 06. 2019 18:51

#	Modifying user name:	WinNT
#	Modification time:	15. 06. 2019 18:51

#	Program:	/corina/corina34_cracker 3.40 0067  02.08.2006

@<TRIPOS>MOLECULE
ASD00844906
  97  102    0    0    0
SMALL
NO_CHARGES


@<TRIPOS>ATOM
   1 F1             5.7038    -2.1782    -1.9824 F       
   2 C2             0.7605     1.2747    -0.4533 C.ar    
   3 C3             1.0016    -0.0681    -0.7040 C.ar    
   4 C4             0.8704    -0.9968     0.3185 C.ar    
   5 C5             0.5001    -0.5824     1.5830 C.ar    
   6 C6             0.2599     0.7569     1.8302 C.ar    
   7 C7             0.3904     1.6842     0.8133 C.ar    
   8 C8             1.1311    -2.4565     0.0495 C.3     
   9 C9             0.7954    -3.2885     1.2687 C.2     
  10 C10            0.3236    -2.9296    -1.1609 C.3     
  11 C11           -1.1362    -2.6274    -0.9401 C.2     
  12 N12           -2.0540    -3.0480    -1.8330 N.am    
  13 O13           -1.4852    -2.0059     0.0412 O.2     
  14 C14           -3.4652    -2.6635    -1.6935 C.3     
  15 C15           -4.3254    -3.9310    -1.7098 C.3     
  16 C16           -4.0155    -4.7369    -2.9734 C.3     
  17 C17           -2.5427    -5.1527    -2.9668 C.3     
  18 C18           -1.6613    -3.8945    -2.9678 C.3     
  19 C19           -4.8978    -5.9863    -3.0103 C.3     
  20 C20           -6.3718    -5.5718    -3.0187 C.3     
  21 C21           -7.2479    -6.8227    -3.1172 C.3     
  22 N22           -6.9201    -7.5559    -4.3465 N.3     
  23 C23           -5.5221    -8.0052    -4.3400 C.3     
  24 C24           -4.5944    -6.7896    -4.2781 C.3     
  25 C25           -7.8358    -8.6873    -4.5447 C.3     
  26 O26           -0.2928    -3.3878     1.7952 O.2     
  27 N27            1.9282    -3.8966     1.6582 N.am    
  28 C28            2.6075    -2.6996    -0.1675 C.ar    
  29 C29            3.0112    -3.5730     0.8372 C.ar    
  30 C30            3.5013    -2.2338    -1.1064 C.ar    
  31 C31            4.8257    -2.6332    -1.0620 C.ar    
  32 C32            5.2496    -3.5109    -0.0589 C.ar    
  33 C33            4.3394    -3.9790     0.8883 C.ar    
  34 C34            1.7002    -6.5432     2.3780 C.ar    
  35 C35            0.4471    -6.8590     1.8728 C.ar    
  36 C36            2.6924    -7.5044     2.4187 C.ar    
  37 C37            2.4395    -8.7814     1.9563 C.ar    
  38 C38            1.1877    -9.1023     1.4500 C.ar    
  39 C39            0.1908    -8.1401     1.4085 C.ar    
  40 O40            0.9394   -10.3588     0.9958 O.3     
  41 O41           -0.5282    -5.9135     1.8334 O.3     
  42 C42           -1.7938    -6.3088     1.3004 C.3     
  43 C43            2.0129   -11.2991     1.0694 C.3     
  44 C44           -7.6290    -9.2718    -5.9435 C.3     
  45 C45            6.6180    -3.9295    -0.0052 C.1     
  46 N46            7.7035    -4.2616     0.0375 N.1     
  47 O47            1.3653    -0.4735    -1.9491 O.3     
  48 C48            1.3998     0.5239    -2.9719 C.3     
  49 C49            1.9116    -0.0973    -4.2730 C.3     
  50 F50            3.1621    -0.6834    -4.0496 F       
  51 F51            1.0101    -1.0739    -4.7097 F       
  52 S52            2.0290    -4.9134     2.9614 S.o2    
  53 O53            3.3885    -4.9020     3.3750 O.2     
  54 O54            0.9518    -4.5705     3.8223 O.2     
  55 H55            0.8663     2.0000    -1.2465 H       
  56 H56            0.3978    -1.3048     2.3792 H       
  57 H57           -0.0302     1.0788     2.8195 H       
  58 H58            0.2022     2.7295     1.0089 H       
  59 H59            0.6708    -2.4109    -2.0545 H       
  60 H60            0.4569    -4.0037    -1.2893 H       
  61 H61           -3.6088    -2.1366    -0.7502 H       
  62 H62           -3.7515    -2.0169    -2.5229 H       
  63 H63           -4.1016    -4.5340    -0.8297 H       
  64 H64           -5.3799    -3.6551    -1.7038 H       
  65 H65           -4.2161    -4.1248    -3.8527 H       
  66 H66           -2.3357    -5.7442    -2.0749 H       
  67 H67           -2.3283    -5.7464    -3.8554 H       
  68 H68           -1.8018    -3.3507    -3.9020 H       
  69 H69           -0.6149    -4.1813    -2.8634 H       
  70 H70           -4.6970    -6.6001    -2.1323 H       
  71 H71           -6.6044    -5.0361    -2.0984 H       
  72 H72           -6.5631    -4.9252    -3.8751 H       
  73 H73           -7.0661    -7.4623    -2.2534 H       
  74 H74           -8.2977    -6.5301    -3.1377 H       
  75 H75           -5.3484    -8.6393    -3.4706 H       
  76 H76           -5.3184    -8.5715    -5.2488 H       
  77 H77           -4.7578    -6.1622    -5.1543 H       
  78 H78           -3.5572    -7.1240    -4.2575 H       
  79 H79           -7.6331    -9.4541    -3.7970 H       
  80 H80           -8.8652    -8.3437    -4.4430 H       
  81 H81            3.1681    -1.5562    -1.8786 H       
  82 H82            4.6671    -4.6568     1.6627 H       
  83 H83            3.6671    -7.2567     2.8123 H       
  84 H84            3.2167    -9.5307     1.9885 H       
  85 H85           -0.7841    -8.3879     1.0153 H       
  86 H86           -1.6664    -6.6412     0.2702 H       
  87 H87           -2.2008    -7.1247     1.8978 H       
  88 H88           -2.4797    -5.4620     1.3268 H       
  89 H89            2.8552   -10.9359     0.4805 H       
  90 H90            2.3206   -11.4187     2.1082 H       
  91 H91            1.6818   -12.2601     0.6756 H       
  92 H92           -7.8317    -8.5051    -6.6912 H       
  93 H93           -6.5996    -9.6154    -6.0452 H       
  94 H94           -8.3085   -10.1113    -6.0905 H       
  95 H95            0.3960     0.9190    -3.1281 H       
  96 H96            2.0652     1.3323    -2.6688 H       
  97 H97            2.0043     0.6778    -5.0338 H       
@<TRIPOS>BOND
   1    1   31 1
   2    2    3 ar
   3    2    7 ar
   4    2   55 1
   5    3    4 ar
   6    3   47 1
   7    4    5 ar
   8    4    8 1
   9    5    6 ar
  10    5   56 1
  11    6    7 ar
  12    6   57 1
  13    7   58 1
  14    8    9 1
  15    8   10 1
  16    8   28 1
  17    9   26 2
  18    9   27 am
  19   10   11 1
  20   10   59 1
  21   10   60 1
  22   11   12 am
  23   11   13 2
  24   12   14 1
  25   12   18 1
  26   14   15 1
  27   14   61 1
  28   14   62 1
  29   15   16 1
  30   15   63 1
  31   15   64 1
  32   16   17 1
  33   16   19 1
  34   16   65 1
  35   17   18 1
  36   17   66 1
  37   17   67 1
  38   18   68 1
  39   18   69 1
  40   19   20 1
  41   19   24 1
  42   19   70 1
  43   20   21 1
  44   20   71 1
  45   20   72 1
  46   21   22 1
  47   21   73 1
  48   21   74 1
  49   22   23 1
  50   22   25 1
  51   23   24 1
  52   23   75 1
  53   23   76 1
  54   24   77 1
  55   24   78 1
  56   25   44 1
  57   25   79 1
  58   25   80 1
  59   27   52 am
  60   27   29 1
  61   28   29 ar
  62   28   30 ar
  63   29   33 ar
  64   30   31 ar
  65   30   81 1
  66   31   32 ar
  67   32   33 ar
  68   32   45 1
  69   33   82 1
  70   34   35 ar
  71   34   36 ar
  72   34   52 1
  73   35   41 1
  74   35   39 ar
  75   36   37 ar
  76   36   83 1
  77   37   38 ar
  78   37   84 1
  79   38   39 ar
  80   38   40 1
  81   39   85 1
  82   40   43 1
  83   41   42 1
  84   42   86 1
  85   42   87 1
  86   42   88 1
  87   43   89 1
  88   43   90 1
  89   43   91 1
  90   44   92 1
  91   44   93 1
  92   44   94 1
  93   45   46 3
  94   47   48 1
  95   48   49 1
  96   48   95 1
  97   48   96 1
  98   49   50 1
  99   49   51 1
 100   49   97 1
 101   52   53 2
 102   52   54 2

#	End of record

