#	Name: ASD03330850
#	Creating user name:	WinNT
#	Creation time:	15. 06. 2019 20:38

#	Modifying user name:	WinNT
#	Modification time:	15. 06. 2019 20:38

#	Program:	/corina/corina34_cracker 3.40 0067  02.08.2006

@<TRIPOS>MOLECULE
ASD03330850
  69   71    0    0    0
SMALL
NO_CHARGES


@<TRIPOS>ATOM
   1 N1             0.1486     0.9732    -0.0379 N.pl3   
   2 C2             0.0325    -0.3636     0.1835 C.2     
   3 C3             1.1557    -1.2899     0.5704 C.3     
   4 N4             1.9270    -0.6813     1.6656 N.3     
   5 C5             3.0018     0.1681     1.1491 C.3     
   6 C6             2.5842     0.8460    -0.1527 C.3     
   7 C7             1.3796     1.7567     0.1003 C.3     
   8 C8            -1.0841     1.4368    -0.3954 C.2     
   9 N9            -1.9302     0.4332    -0.3781 N.2     
  10 C10           -1.2727    -0.6923    -0.0218 C.2     
  11 C11           -1.8625    -2.0353     0.1184 C.2     
  12 O12           -1.1637    -2.9752     0.4460 O.2     
  13 N13           -3.1765    -2.2221    -0.1164 N.am    
  14 C14            2.4574    -1.7097     2.5706 C.3     
  15 C15           -2.1893     3.1256    -1.8738 C.ar    
  16 C16           -1.4120     2.8355    -0.7438 C.ar    
  17 C17           -0.9528     3.8917     0.0476 C.ar    
  18 C18           -1.2877     5.1842    -0.3213 C.ar    
  19 C19           -2.0584     5.3902    -1.4498 C.ar    
  20 N20           -2.4810     4.3769    -2.1823 N.ar    
  21 O21           -2.6402     2.1161    -2.6583 O.3     
  22 C22           -3.4271     2.4792    -3.7945 C.3     
  23 C23           -3.2253     1.4469    -4.9055 C.3     
  24 C24           -4.9046     2.5210    -3.3993 C.3     
  25 C25           -4.9968    -3.6563    -0.8366 C.2     
  26 C26           -3.7629    -3.5573     0.0230 C.3     
  27 C27           -4.1400    -3.7985     1.4861 C.3     
  28 C28           -5.2076    -2.7882     1.9108 C.3     
  29 O29           -5.6322    -2.6581    -1.1025 O.2     
  30 N30           -5.3940    -4.8540    -1.3099 N.am    
  31 C31           -6.6509    -4.9674    -2.0540 C.3     
  32 C32           -4.6893    -5.2177     1.6438 C.3     
  33 C33           -2.9001    -3.6307     2.3666 C.3     
  34 H34            0.7441    -2.2435     0.9008 H       
  35 H35            1.8073    -1.4510    -0.2884 H       
  36 H36            3.2422     0.9313     1.8892 H       
  37 H37            3.8854    -0.4437     0.9668 H       
  38 H38            3.4142     1.4407    -0.5341 H       
  39 H39            2.3163     0.0865    -0.8871 H       
  40 H40            1.3780     2.5691    -0.6263 H       
  41 H41            1.4388     2.1677     1.1081 H       
  42 H42           -3.7338    -1.4724    -0.3777 H       
  43 H43            3.0543    -2.4220     2.0011 H       
  44 H44            3.0811    -1.2384     3.3303 H       
  45 H45            1.6304    -2.2316     3.0521 H       
  46 H46           -0.3520     3.7049     0.9254 H       
  47 H47           -0.9498     6.0237     0.2682 H       
  48 H48           -2.3198     6.3980    -1.7370 H       
  49 H49           -3.1185     3.4619    -4.1511 H       
  50 H50           -3.5340     0.4642    -4.5489 H       
  51 H51           -3.8256     1.7239    -5.7722 H       
  52 H52           -2.1727     1.4171    -5.1871 H       
  53 H53           -5.2132     1.5383    -3.0426 H       
  54 H54           -5.0483     3.2564    -2.6077 H       
  55 H55           -5.5048     2.7980    -4.2659 H       
  56 H56           -3.0383    -4.3073    -0.2938 H       
  57 H57           -6.0910    -2.9077     1.2835 H       
  58 H58           -5.4763    -2.9601     2.9531 H       
  59 H59           -4.8163    -1.7771     1.7984 H       
  60 H60           -4.8478    -5.6410    -1.1578 H       
  61 H61           -7.4782    -4.6469    -1.4207 H       
  62 H62           -6.6063    -4.3354    -2.9409 H       
  63 H63           -6.8034    -6.0042    -2.3538 H       
  64 H64           -3.9077    -5.9386     1.4042 H       
  65 H65           -5.0190    -5.3676     2.6720 H       
  66 H66           -5.5328    -5.3581     0.9678 H       
  67 H67           -2.5087    -2.6197     2.2542 H       
  68 H68           -3.1687    -3.8026     3.4089 H       
  69 H69           -2.1395    -4.3505     2.0640 H       
@<TRIPOS>BOND
   1    1    2 1
   2    1    7 1
   3    1    8 1
   4    2    3 1
   5    2   10 2
   6    3    4 1
   7    3   34 1
   8    3   35 1
   9    4    5 1
  10    4   14 1
  11    5    6 1
  12    5   36 1
  13    5   37 1
  14    6    7 1
  15    6   38 1
  16    6   39 1
  17    7   40 1
  18    7   41 1
  19    8    9 2
  20    8   16 1
  21    9   10 1
  22   10   11 1
  23   11   12 2
  24   11   13 am
  25   13   26 1
  26   13   42 1
  27   14   43 1
  28   14   44 1
  29   14   45 1
  30   15   16 ar
  31   15   20 ar
  32   15   21 1
  33   16   17 ar
  34   17   18 ar
  35   17   46 1
  36   18   19 ar
  37   18   47 1
  38   19   20 ar
  39   19   48 1
  40   21   22 1
  41   22   23 1
  42   22   24 1
  43   22   49 1
  44   23   50 1
  45   23   51 1
  46   23   52 1
  47   24   53 1
  48   24   54 1
  49   24   55 1
  50   25   29 2
  51   25   30 am
  52   25   26 1
  53   26   27 1
  54   26   56 1
  55   27   28 1
  56   27   32 1
  57   27   33 1
  58   28   57 1
  59   28   58 1
  60   28   59 1
  61   30   31 1
  62   30   60 1
  63   31   61 1
  64   31   62 1
  65   31   63 1
  66   32   64 1
  67   32   65 1
  68   32   66 1
  69   33   67 1
  70   33   68 1
  71   33   69 1

#	End of record

