#	Name: ASD02500487
#	Creating user name:	WinNT
#	Creation time:	15. 06. 2019 20:22

#	Modifying user name:	WinNT
#	Modification time:	15. 06. 2019 20:22

#	Program:	/corina/corina34_cracker 3.40 0067  02.08.2006

@<TRIPOS>MOLECULE
ASD02500487
  64   68    0    0    0
SMALL
NO_CHARGES


@<TRIPOS>ATOM
   1 N1             1.7537     3.9437    -0.8514 N.ar    
   2 C2             2.6712     3.6209     0.0273 C.ar    
   3 C3             3.8100     2.9029    -0.3318 C.ar    
   4 C4             3.9913     2.5165    -1.6291 C.ar    
   5 C5             3.0037     2.8644    -2.5700 C.ar    
   6 C6             3.1213     2.5025    -3.9213 C.ar    
   7 C7             2.1444     2.8583    -4.8007 C.ar    
   8 C8             1.0290     3.5778    -4.3774 C.ar    
   9 C9             0.8829     3.9451    -3.0750 C.ar    
  10 C10            1.8700     3.5963    -2.1371 C.ar    
  11 S11           -0.5377     4.8552    -2.5669 S.o2    
  12 O12           -0.0586     5.9524    -1.8014 O.2     
  13 O13           -1.3499     5.0096    -3.7226 O.2     
  14 N14           -1.3888     3.8926    -1.5223 N.am    
  15 C15           -1.9110     2.6812    -1.9619 C.ar    
  16 C16           -1.7414     1.5322    -1.1943 C.ar    
  17 C17           -2.2569     0.3318    -1.6267 C.ar    
  18 C18           -2.9515     0.2669    -2.8382 C.ar    
  19 C19           -3.1201     1.4224    -3.6066 C.ar    
  20 C20           -2.6071     2.6209    -3.1660 C.ar    
  21 C21           -3.5050    -1.0184    -3.3048 C.2     
  22 O22           -4.5992    -1.0528    -3.8343 O.2     
  23 N23           -2.7980    -2.1546    -3.1444 N.am    
  24 C24           -3.2940    -3.4336    -3.6748 C.3     
  25 C25           -2.1802    -4.0813    -4.5043 C.3     
  26 N26           -0.9608    -4.1772    -3.6908 N.3     
  27 C27           -0.4665    -2.8466    -3.3126 C.3     
  28 C28           -1.5071    -2.1472    -2.4396 C.3     
  29 C29            0.0784    -4.9461    -4.3886 C.3     
  30 C30           -0.3773    -6.3988    -4.5400 C.3     
  31 C31            0.6681    -7.1988    -5.3369 C.3     
  32 C32            1.1633    -8.3256    -4.4070 C.3     
  33 C33            0.0075    -8.5176    -3.3939 C.3     
  34 C34           -0.4808    -7.0675    -3.1537 C.3     
  35 H35            2.5412     3.9199     1.0570 H       
  36 H36            4.5489     2.6524     0.4151 H       
  37 H37            4.8682     1.9597    -1.9250 H       
  38 H38            3.9817     1.9454    -4.2614 H       
  39 H39            2.2357     2.5795    -5.8401 H       
  40 H40            0.2681     3.8487    -5.0944 H       
  41 H41           -1.5232     4.1738    -0.6037 H       
  42 H42           -1.2043     1.5829    -0.2587 H       
  43 H43           -2.1247    -0.5593    -1.0310 H       
  44 H44           -3.6560     1.3754    -4.5431 H       
  45 H45           -2.7412     3.5149    -3.7570 H       
  46 H46           -3.5656    -4.0916    -2.8494 H       
  47 H47           -4.1644    -3.2553    -4.3063 H       
  48 H48           -2.4905    -5.0793    -4.8137 H       
  49 H49           -1.9822    -3.4719    -5.3861 H       
  50 H50            0.4660    -2.9492    -2.7577 H       
  51 H51           -0.2923    -2.2544    -4.2110 H       
  52 H52           -1.1967    -1.1189    -2.2548 H       
  53 H53           -1.6037    -2.6792    -1.4931 H       
  54 H54            0.2495    -4.5143    -5.3746 H       
  55 H55            1.0030    -4.9136    -3.8123 H       
  56 H56           -1.3417    -6.4365    -5.0465 H       
  57 H57            0.2108    -7.6253    -6.2297 H       
  58 H58            1.5001    -6.5521    -5.6157 H       
  59 H59            1.3304    -9.2418    -4.9733 H       
  60 H60            2.0752    -8.0225    -3.8924 H       
  61 H61           -0.7872    -9.1263    -3.8254 H       
  62 H62            0.3749    -8.9599    -2.4679 H       
  63 H63            0.1655    -6.5612    -2.4367 H       
  64 H64           -1.5137    -7.0655    -2.8054 H       
@<TRIPOS>BOND
   1    1    2 ar
   2    1   10 ar
   3    2    3 ar
   4    2   35 1
   5    3    4 ar
   6    3   36 1
   7    4    5 ar
   8    4   37 1
   9    5    6 ar
  10    5   10 ar
  11    6    7 ar
  12    6   38 1
  13    7    8 ar
  14    7   39 1
  15    8    9 ar
  16    8   40 1
  17    9   10 ar
  18    9   11 1
  19   11   12 2
  20   11   13 2
  21   11   14 am
  22   14   15 1
  23   14   41 1
  24   15   16 ar
  25   15   20 ar
  26   16   17 ar
  27   16   42 1
  28   17   18 ar
  29   17   43 1
  30   18   19 ar
  31   18   21 1
  32   19   20 ar
  33   19   44 1
  34   20   45 1
  35   21   22 2
  36   21   23 am
  37   23   24 1
  38   23   28 1
  39   24   25 1
  40   24   46 1
  41   24   47 1
  42   25   26 1
  43   25   48 1
  44   25   49 1
  45   26   27 1
  46   26   29 1
  47   27   28 1
  48   27   50 1
  49   27   51 1
  50   28   52 1
  51   28   53 1
  52   29   30 1
  53   29   54 1
  54   29   55 1
  55   30   31 1
  56   30   34 1
  57   30   56 1
  58   31   32 1
  59   31   57 1
  60   31   58 1
  61   32   33 1
  62   32   59 1
  63   32   60 1
  64   33   34 1
  65   33   61 1
  66   33   62 1
  67   34   63 1
  68   34   64 1

#	End of record

