#	Name: ASD09116255
#	Creating user name:	WinNT
#	Creation time:	15. 06. 2019 21:21

#	Modifying user name:	WinNT
#	Modification time:	15. 06. 2019 21:21

#	Program:	/corina/corina34_cracker 3.40 0067  02.08.2006

@<TRIPOS>MOLECULE
ASD09116255
  74   80    0    0    0
SMALL
NO_CHARGES


@<TRIPOS>ATOM
   1 N1            -0.0610     1.5704    -0.6223 N.2     
   2 N2            -0.0876     0.3354    -1.2901 N.pl3   
   3 C3             1.1910     1.9595    -0.5870 C.2     
   4 N4             1.9508     1.0402    -1.1939 N.2     
   5 C5             1.1937     0.0535    -1.6238 C.2     
   6 N6             1.6556     3.1414    -0.0102 N.pl3   
   7 C7             3.0318     3.3867     0.0718 C.ar    
   8 C8             3.5093     4.6893     0.0166 C.ar    
   9 C9             5.7541     3.8732     0.2343 C.ar    
  10 C10            3.9188     2.3272     0.2141 C.ar    
  11 C11           -1.2127    -0.4468    -1.5571 C.ar    
  12 N12           -1.2037    -1.2946    -2.5749 N.ar    
  13 N13           -2.2159    -2.0303    -2.8692 N.ar    
  14 C14           -3.3363    -1.9821    -2.1666 C.ar    
  15 C15           -3.4303    -1.1318    -1.0611 C.ar    
  16 C16           -2.3462    -0.3397    -0.7472 C.ar    
  17 C17           -4.5226    -2.7886    -2.5360 C.ar    
  18 C18           -5.7648    -2.1587    -2.6274 C.ar    
  19 C19           -5.8572    -0.6740    -2.4047 C.3     
  20 C20           -5.7860    -0.3282    -0.9198 C.3     
  21 C21           -4.6810    -1.1249    -0.2313 C.3     
  22 C22           -4.4140    -4.1522    -2.7856 C.ar    
  23 C23           -5.5434    -4.8808    -3.1053 C.ar    
  24 C24           -6.7757    -4.2567    -3.1745 C.ar    
  25 C25           -6.8867    -2.8979    -2.9350 C.ar    
  26 N26            1.6298    -1.0721    -2.2965 N.pl3   
  27 C27            4.8668     4.9317     0.0974 C.ar    
  28 N28            7.1303     4.1193     0.3171 N.3     
  29 C29            7.6481     3.7716     1.6466 C.3     
  30 C30            5.2763     2.5694     0.2954 C.ar    
  31 Cl31           6.3858     1.2452     0.4665 Cl      
  32 C32            7.4369     5.5143    -0.0241 C.3     
  33 C33            8.9543     5.7091    -0.0650 C.3     
  34 C34            9.5464     5.3565     1.3023 C.3     
  35 C35            9.1717     3.9145     1.6555 C.3     
  36 N36           11.0088     5.4855     1.2521 N.3     
  37 C37           11.4080     6.8846     1.0127 C.3     
  38 C38           12.3337     7.3012     2.1750 C.3     
  39 C39           12.8624     5.9423     2.7050 C.3     
  40 C40           11.6246     5.0301     2.5167 C.3     
  41 H41            1.0254     3.7935     0.3342 H       
  42 H42            2.8192     5.5132    -0.0899 H       
  43 H43            3.5471     1.3143     0.2615 H       
  44 H44           -2.3749     0.3435     0.0887 H       
  45 H45           -5.0344    -0.1835    -2.9249 H       
  46 H46           -6.8013    -0.3106    -2.8106 H       
  47 H47           -5.5830     0.7369    -0.8087 H       
  48 H48           -6.7420    -0.5613    -0.4509 H       
  49 H49           -5.0182    -2.1507    -0.0826 H       
  50 H50           -4.4656    -0.6751     0.7379 H       
  51 H51           -3.4516    -4.6391    -2.7303 H       
  52 H52           -5.4638    -5.9397    -3.3020 H       
  53 H53           -7.6564    -4.8328    -3.4169 H       
  54 H54           -7.8522    -2.4170    -2.9895 H       
  55 H55            2.5733    -1.1858    -2.4910 H       
  56 H56            0.9924    -1.7485    -2.5742 H       
  57 H57            5.2378     5.9450     0.0537 H       
  58 H58            7.2162     4.4407     2.3908 H       
  59 H59            7.3784     2.7425     1.8836 H       
  60 H60            7.0139     5.7508    -1.0004 H       
  61 H61            7.0061     6.1752     0.7280 H       
  62 H62            9.3843     5.0585    -0.8265 H       
  63 H63            9.1815     6.7483    -0.3029 H       
  64 H64            9.1459     6.0324     2.0579 H       
  65 H65            9.5542     3.6714     2.6468 H       
  66 H66            9.6052     3.2356     0.9210 H       
  67 H67           11.9436     6.9606     0.0665 H       
  68 H68           10.5254     7.5240     0.9942 H       
  69 H69           13.1549     7.9188     1.8113 H       
  70 H70           11.7703     7.8235     2.9482 H       
  71 H71           13.7021     5.5897     2.1061 H       
  72 H72           13.1380     6.0141     3.7571 H       
  73 H73           10.9287     5.1589     3.3456 H       
  74 H74           11.9308     3.9871     2.4356 H       
@<TRIPOS>BOND
   1    1    2 1
   2    1    3 2
   3    2   11 1
   4    2    5 1
   5    3    4 1
   6    3    6 1
   7    4    5 2
   8    5   26 1
   9    6    7 1
  10    6   41 1
  11    7    8 ar
  12    7   10 ar
  13    8   27 ar
  14    8   42 1
  15    9   30 ar
  16    9   28 1
  17    9   27 ar
  18   10   30 ar
  19   10   43 1
  20   11   12 ar
  21   11   16 ar
  22   12   13 ar
  23   13   14 ar
  24   14   15 ar
  25   14   17 1
  26   15   16 ar
  27   15   21 1
  28   16   44 1
  29   17   18 ar
  30   17   22 ar
  31   18   19 1
  32   18   25 ar
  33   19   20 1
  34   19   45 1
  35   19   46 1
  36   20   21 1
  37   20   47 1
  38   20   48 1
  39   21   49 1
  40   21   50 1
  41   22   23 ar
  42   22   51 1
  43   23   24 ar
  44   23   52 1
  45   24   25 ar
  46   24   53 1
  47   25   54 1
  48   26   55 1
  49   26   56 1
  50   27   57 1
  51   28   29 1
  52   28   32 1
  53   29   35 1
  54   29   58 1
  55   29   59 1
  56   30   31 1
  57   32   33 1
  58   32   60 1
  59   32   61 1
  60   33   34 1
  61   33   62 1
  62   33   63 1
  63   34   35 1
  64   34   36 1
  65   34   64 1
  66   35   65 1
  67   35   66 1
  68   36   37 1
  69   36   40 1
  70   37   38 1
  71   37   67 1
  72   37   68 1
  73   38   39 1
  74   38   69 1
  75   38   70 1
  76   39   40 1
  77   39   71 1
  78   39   72 1
  79   40   73 1
  80   40   74 1

#	End of record

