#	Name: ASD03731326
#	Creating user name:	WinNT
#	Creation time:	15. 06. 2019 20:45

#	Modifying user name:	WinNT
#	Modification time:	15. 06. 2019 20:45

#	Program:	/corina/corina34_cracker 3.40 0067  02.08.2006

@<TRIPOS>MOLECULE
ASD03731326
  59   65    0    0    0
SMALL
NO_CHARGES


@<TRIPOS>ATOM
   1 C1            -0.0180     1.4742     0.0101 C.2     
   2 C2             0.0021    -0.0041     0.0020 C.ar    
   3 C3             1.2184    -0.6885    -0.0133 C.ar    
   4 C4             1.2301    -2.0680    -0.0203 C.ar    
   5 C5             0.0396    -2.7730    -0.0127 C.ar    
   6 C6            -1.1695    -2.1007     0.0024 C.ar    
   7 C7            -1.1952    -0.7214     0.0154 C.ar    
   8 O8             1.0263     2.0963     0.0035 O.2     
   9 N9            -1.1942     2.1322     0.0193 N.am    
  10 C10           -1.2141     3.5970     0.0274 C.3     
  11 C11           -2.6415     4.0800     0.0368 C.2     
  12 C12           -3.3648     4.3205     1.1315 C.2     
  13 C13           -4.6559     4.7588     0.8929 C.2     
  14 C14           -4.9812     4.8742    -0.3956 C.2     
  15 S15           -3.6063     4.4200    -1.3940 S.3     
  16 C16            0.0601    -4.2798    -0.0215 C.3     
  17 O17           -2.0563    -1.5348     6.2775 O.3     
  18 C18           -2.2837    -1.6203     7.6967 C.3     
  19 O19           -2.7818    -2.9582     7.8836 O.3     
  20 C20           -2.2564    -3.6908     6.8579 C.ar    
  21 C21           -1.8113    -2.8150     5.8702 C.ar    
  22 C22           -2.1186    -5.0563     6.6848 C.ar    
  23 C23           -1.5385    -5.5652     5.5267 C.ar    
  24 C24           -1.1053    -4.6808     4.5435 C.ar    
  25 C25           -1.2356    -3.3185     4.7159 C.ar    
  26 O26           -1.2955    -6.8588     5.1692 O.3     
  27 C27           -0.5594    -5.5216     3.4206 C.3     
  28 C28           -1.0841    -6.9267     3.7458 C.3     
  29 N29            0.0802    -4.7759     1.3568 N.am    
  30 C30           -1.0278    -5.0465     2.0754 C.2     
  31 C31            0.9387    -5.4848     3.3560 C.ar    
  32 C32            1.9375    -5.7964     4.2513 C.ar    
  33 C33            3.2644    -5.6548     3.8860 C.ar    
  34 C34            3.5850    -5.1990     2.6202 C.ar    
  35 C35            2.5881    -4.8847     1.7202 C.ar    
  36 C36            1.2497    -5.0246     2.0792 C.ar    
  37 O37           -2.1775    -4.9294     1.7074 O.2     
  38 H38            2.1484    -0.1393    -0.0199 H       
  39 H39            2.1706    -2.5988    -0.0321 H       
  40 H40           -2.0953    -2.6569     0.0083 H       
  41 H41           -2.1396    -0.1978     0.0318 H       
  42 H42           -2.0276     1.6358     0.0206 H       
  43 H43           -0.7010     3.9625     0.9169 H       
  44 H44           -0.7094     3.9721    -0.8630 H       
  45 H45           -2.9728     4.1833     2.1284 H       
  46 H46           -5.3476     4.9895     1.6896 H       
  47 H47           -5.9409     5.2002    -0.7686 H       
  48 H48           -0.8299    -4.6523    -0.5288 H       
  49 H49            0.9498    -4.6281    -0.5460 H       
  50 H50           -1.3511    -1.4791     8.2431 H       
  51 H51           -3.0272    -0.8875     8.0102 H       
  52 H52           -2.4636    -5.7319     7.4534 H       
  53 H53           -0.8881    -2.6428     3.9484 H       
  54 H54           -0.3397    -7.6843     3.5007 H       
  55 H55           -2.0214    -7.1203     3.2241 H       
  56 H56            1.6849    -6.1520     5.2393 H       
  57 H57            4.0481    -5.9000     4.5876 H       
  58 H58            4.6208    -5.0884     2.3351 H       
  59 H59            2.8463    -4.5288     0.7338 H       
@<TRIPOS>BOND
   1    1    2 1
   2    1    8 2
   3    1    9 am
   4    2    3 ar
   5    2    7 ar
   6    3    4 ar
   7    3   38 1
   8    4    5 ar
   9    4   39 1
  10    5    6 ar
  11    5   16 1
  12    6    7 ar
  13    6   40 1
  14    7   41 1
  15    9   10 1
  16    9   42 1
  17   10   11 1
  18   10   43 1
  19   10   44 1
  20   11   12 2
  21   11   15 1
  22   12   13 1
  23   12   45 1
  24   13   14 2
  25   13   46 1
  26   14   15 1
  27   14   47 1
  28   16   29 1
  29   16   48 1
  30   16   49 1
  31   17   18 1
  32   17   21 1
  33   18   19 1
  34   18   50 1
  35   18   51 1
  36   19   20 1
  37   20   21 ar
  38   20   22 ar
  39   21   25 ar
  40   22   23 ar
  41   22   52 1
  42   23   24 ar
  43   23   26 1
  44   24   25 ar
  45   24   27 1
  46   25   53 1
  47   26   28 1
  48   27   28 1
  49   27   30 1
  50   27   31 1
  51   28   54 1
  52   28   55 1
  53   29   30 am
  54   29   36 1
  55   30   37 2
  56   31   32 ar
  57   31   36 ar
  58   32   33 ar
  59   32   56 1
  60   33   34 ar
  61   33   57 1
  62   34   35 ar
  63   34   58 1
  64   35   36 ar
  65   35   59 1

#	End of record

