#	Name: ASD01912615
#	Creating user name:	WinNT
#	Creation time:	15. 06. 2019 20:00

#	Modifying user name:	WinNT
#	Modification time:	15. 06. 2019 20:00

#	Program:	/corina/corina34_cracker 3.40 0067  02.08.2006

@<TRIPOS>MOLECULE
ASD01912615
  57   61    0    0    0
SMALL
NO_CHARGES


@<TRIPOS>ATOM
   1 C1             0.0002     1.4265     0.4086 C.ar    
   2 C2            -0.0841     0.0704     0.0897 C.ar    
   3 C3             1.2614     2.1657     0.1767 C.2     
   4 N4             2.5085     1.6221     0.0827 N.pl3   
   5 C5             1.3869     3.5140     0.0124 C.2     
   6 C6             2.7494     3.7976    -0.1810 C.2     
   7 N7             3.4179     2.6640    -0.1385 N.2     
   8 C8             3.3345     5.1441    -0.4002 C.ar    
   9 C9             4.7085     5.2885    -0.5795 C.ar    
  10 C10            2.5109     6.2672    -0.4330 C.ar    
  11 C11            3.0601     7.5169    -0.6371 C.ar    
  12 C12            4.4256     7.6553    -0.8089 C.ar    
  13 C13            5.2472     6.5429    -0.7829 C.ar    
  14 C14            2.8387     0.1991     0.1935 C.3     
  15 C15            2.8812    -0.4153    -1.1819 C.2     
  16 N16            3.1677    -1.7243    -1.3267 N.am    
  17 O17            2.6576     0.2682    -2.1585 O.2     
  18 C18            3.2143    -2.3439    -2.6598 C.3     
  19 C19            4.5395    -3.1006    -2.7987 C.3     
  20 N20            4.6868    -4.0343    -1.6743 N.3     
  21 C21            4.7582    -3.3188    -0.3933 C.3     
  22 C22            3.4479    -2.5697    -0.1562 C.3     
  23 C23            5.7910    -4.8505    -1.8487 C.ar    
  24 N24            6.0770    -5.7574    -0.9261 N.ar    
  25 C25            7.1248    -6.5531    -1.0622 C.ar    
  26 C26            7.9266    -6.4291    -2.1860 C.ar    
  27 C27            7.5986    -5.4701    -3.1314 C.ar    
  28 N28            6.5337    -4.7099    -2.9368 N.ar    
  29 C29           -1.2603    -0.6213     0.3043 C.ar    
  30 C30           -2.3597     0.0224     0.8355 C.ar    
  31 C31           -2.2889     1.3798     1.1593 C.ar    
  32 C32           -1.1063     2.0842     0.9400 C.ar    
  33 C33           -3.4303     2.0470     1.7095 C.1     
  34 N34           -4.3357     2.5762     2.1461 N.1     
  35 H35            0.7723    -0.4394    -0.3263 H       
  36 H36            0.5827     4.2347     0.0278 H       
  37 H37            5.3509     4.4206    -0.5590 H       
  38 H38            1.4445     6.1602    -0.2994 H       
  39 H39            2.4225     8.3882    -0.6631 H       
  40 H40            4.8512     8.6350    -0.9687 H       
  41 H41            6.3128     6.6566    -0.9172 H       
  42 H42            3.8122     0.0882     0.6712 H       
  43 H43            2.0803    -0.3043     0.7931 H       
  44 H44            2.3822    -3.0394    -2.7695 H       
  45 H45            3.1522    -1.5705    -3.4254 H       
  46 H46            4.5443    -3.6566    -3.7362 H       
  47 H47            5.3663    -2.3904    -2.7924 H       
  48 H48            4.9215    -4.0331     0.4137 H       
  49 H49            5.5819    -2.6055    -0.4205 H       
  50 H50            3.5380    -1.9471     0.7340 H       
  51 H51            2.6357    -3.2848    -0.0256 H       
  52 H52            7.3531    -7.2903    -0.3066 H       
  53 H53            8.7883    -7.0658    -2.3219 H       
  54 H54            8.2029    -5.3476    -4.0180 H       
  55 H55           -1.3201    -1.6704     0.0550 H       
  56 H56           -3.2764    -0.5241     1.0009 H       
  57 H57           -1.0458     3.1334     1.1887 H       
@<TRIPOS>BOND
   1    1    2 ar
   2    1    3 1
   3    1   32 ar
   4    2   29 ar
   5    2   35 1
   6    3    4 1
   7    3    5 2
   8    4   14 1
   9    4    7 1
  10    5    6 1
  11    5   36 1
  12    6    7 2
  13    6    8 1
  14    8    9 ar
  15    8   10 ar
  16    9   13 ar
  17    9   37 1
  18   10   11 ar
  19   10   38 1
  20   11   12 ar
  21   11   39 1
  22   12   13 ar
  23   12   40 1
  24   13   41 1
  25   14   15 1
  26   14   42 1
  27   14   43 1
  28   15   16 am
  29   15   17 2
  30   16   18 1
  31   16   22 1
  32   18   19 1
  33   18   44 1
  34   18   45 1
  35   19   20 1
  36   19   46 1
  37   19   47 1
  38   20   21 1
  39   20   23 1
  40   21   22 1
  41   21   48 1
  42   21   49 1
  43   22   50 1
  44   22   51 1
  45   23   24 ar
  46   23   28 ar
  47   24   25 ar
  48   25   26 ar
  49   25   52 1
  50   26   27 ar
  51   26   53 1
  52   27   28 ar
  53   27   54 1
  54   29   30 ar
  55   29   55 1
  56   30   31 ar
  57   30   56 1
  58   31   32 ar
  59   31   33 1
  60   32   57 1
  61   33   34 3

#	End of record

