#	Name: ASD06020185
#	Creating user name:	WinNT
#	Creation time:	15. 06. 2019 21:04

#	Modifying user name:	WinNT
#	Modification time:	15. 06. 2019 21:04

#	Program:	/corina/corina34_cracker 3.40 0067  02.08.2006

@<TRIPOS>MOLECULE
ASD06020185
  27   28    0    0    0
SMALL
NO_CHARGES


@<TRIPOS>ATOM
   1 C1            -0.6297     1.5508    -1.0583 C.2     
   2 C2            -0.5077     0.0801    -1.1263 C.ar    
   3 C3             0.6358    -0.5531    -0.6317 C.ar    
   4 C4             0.7423    -1.9284    -0.6985 C.ar    
   5 C5            -0.2794    -2.6778    -1.2531 C.ar    
   6 C6            -1.4139    -2.0565    -1.7448 C.ar    
   7 C7            -1.5365    -0.6842    -1.6796 C.ar    
   8 O8            -0.2256     2.2374    -1.9766 O.2     
   9 N9            -1.1942     2.1311     0.0193 N.am    
  10 N10           -2.7538    -0.0228    -2.2009 N.pl3   
  11 O11           -3.6507    -0.6908    -2.6834 O.2     
  12 O12           -2.8586     1.1896    -2.1472 O.2     
  13 C13           -2.3144     5.6327    -0.1325 C.ar    
  14 C14           -2.3343     4.2570    -0.2613 C.ar    
  15 C15           -1.2149     3.5234     0.1324 C.ar    
  16 C16           -0.1169     4.2166     0.6425 C.ar    
  17 C17           -0.1780     5.5938     0.7382 C.ar    
  18 N18           -1.2558     6.2515     0.3549 N.ar    
  19 F19            0.9903     3.5508     1.0376 F       
  20 F20           -3.4224     3.6313    -0.7609 F       
  21 Cl21           1.9190     0.3866     0.0640 Cl      
  22 H22            1.6253    -2.4197    -0.3172 H       
  23 H23           -0.1912    -3.7531    -1.3029 H       
  24 H24           -2.2075    -2.6482    -2.1768 H       
  25 H25           -1.5860     1.5820     0.7163 H       
  26 H26           -3.1748     6.2092    -0.4389 H       
  27 H27            0.6671     6.1387     1.1322 H       
@<TRIPOS>BOND
   1    1    2 1
   2    1    8 2
   3    1    9 am
   4    2    3 ar
   5    2    7 ar
   6    3    4 ar
   7    3   21 1
   8    4    5 ar
   9    4   22 1
  10    5    6 ar
  11    5   23 1
  12    6    7 ar
  13    6   24 1
  14    7   10 1
  15    9   15 1
  16    9   25 1
  17   10   11 2
  18   10   12 2
  19   13   14 ar
  20   13   18 ar
  21   13   26 1
  22   14   15 ar
  23   14   20 1
  24   15   16 ar
  25   16   17 ar
  26   16   19 1
  27   17   18 ar
  28   17   27 1

#	End of record

