#	Name: ASD01915470
#	Creating user name:	WinNT
#	Creation time:	15. 06. 2019 20:05

#	Modifying user name:	WinNT
#	Modification time:	15. 06. 2019 20:05

#	Program:	/corina/corina34_cracker 3.40 0067  02.08.2006

@<TRIPOS>MOLECULE
ASD01915470
  43   46    0    0    0
SMALL
NO_CHARGES


@<TRIPOS>ATOM
   1 C1            -0.0074     1.4343    -0.2668 C.ar    
   2 C2             0.0386     0.0774    -0.0075 C.ar    
   3 C3             1.2520    -0.5844     0.0006 C.ar    
   4 C4             2.4211     0.1099    -0.2501 C.ar    
   5 C5             2.3777     1.4665    -0.5092 C.ar    
   6 C6             1.1625     2.1304    -0.5185 C.ar    
   7 F7             1.1187     3.4567    -0.7721 F       
   8 C8             3.7434    -0.6131    -0.2404 C.3     
   9 O9             4.0310    -1.0976    -1.5536 O.3     
  10 C10            5.1925    -1.7757    -1.7184 C.ar    
  11 C11            5.5225    -2.2698    -2.9765 C.ar    
  12 N12            5.9959    -1.9518    -0.6800 N.ar    
  13 C13            7.1347    -2.6028    -0.7896 C.ar    
  14 C14            7.5212    -3.1453    -2.0167 C.ar    
  15 C15            6.7040    -2.9676    -3.1376 C.ar    
  16 C16            8.0478    -2.7534     0.4003 C.3     
  17 C17            8.7784    -4.0920     0.3338 C.3     
  18 N18            9.4057    -4.2824    -0.9720 N.am    
  19 C19            8.7791    -3.9091    -2.1044 C.2     
  20 O20            9.2463    -4.1998    -3.1887 O.2     
  21 C21           10.6767    -4.8607    -1.0473 C.ar    
  22 C22           11.7612    -4.1040    -1.4699 C.ar    
  23 C23           13.0173    -4.6793    -1.5427 C.ar    
  24 C24           13.1919    -6.0082    -1.1943 C.ar    
  25 C25           12.1124    -6.7629    -0.7737 C.ar    
  26 C26           10.8575    -6.1920    -0.6937 C.ar    
  27 F27           14.0737    -3.9445    -1.9542 F       
  28 H28           -0.9561     1.9504    -0.2775 H       
  29 H29           -0.8739    -0.4658     0.1892 H       
  30 H30            1.2870    -1.6446     0.2033 H       
  31 H31            3.2911     2.0087    -0.7043 H       
  32 H32            4.5301     0.0726     0.0743 H       
  33 H33            3.6936    -1.4521     0.4536 H       
  34 H34            4.8631    -2.1100    -3.8167 H       
  35 H35            6.9862    -3.3679    -4.1002 H       
  36 H36            8.7770    -1.9432     0.4013 H       
  37 H37            7.4586    -2.7082     1.3162 H       
  38 H38            9.5461    -4.1195     1.1071 H       
  39 H39            8.0657    -4.8978     0.5095 H       
  40 H40           11.6244    -3.0677    -1.7419 H       
  41 H41           14.1731    -6.4560    -1.2516 H       
  42 H42           12.2517    -7.7991    -0.5030 H       
  43 H43           10.0153    -6.7828    -0.3650 H       
@<TRIPOS>BOND
   1    1    2 ar
   2    1    6 ar
   3    1   28 1
   4    2    3 ar
   5    2   29 1
   6    3    4 ar
   7    3   30 1
   8    4    5 ar
   9    4    8 1
  10    5    6 ar
  11    5   31 1
  12    6    7 1
  13    8    9 1
  14    8   32 1
  15    8   33 1
  16    9   10 1
  17   10   11 ar
  18   10   12 ar
  19   11   15 ar
  20   11   34 1
  21   12   13 ar
  22   13   14 ar
  23   13   16 1
  24   14   15 ar
  25   14   19 1
  26   15   35 1
  27   16   17 1
  28   16   36 1
  29   16   37 1
  30   17   18 1
  31   17   38 1
  32   17   39 1
  33   18   19 am
  34   18   21 1
  35   19   20 2
  36   21   22 ar
  37   21   26 ar
  38   22   23 ar
  39   22   40 1
  40   23   24 ar
  41   23   27 1
  42   24   25 ar
  43   24   41 1
  44   25   26 ar
  45   25   42 1
  46   26   43 1

#	End of record

