#	Name: ASD00060046
#	Creating user name:	WinNT
#	Creation time:	15. 06. 2019 18:29

#	Modifying user name:	WinNT
#	Modification time:	15. 06. 2019 18:29

#	Program:	/corina/corina34_cracker 3.40 0067  02.08.2006

@<TRIPOS>MOLECULE
ASD00060046
  41   42    0    0    0
SMALL
NO_CHARGES


@<TRIPOS>ATOM
   1 C1            -0.0927     1.0460    -0.6439 C.ar    
   2 C2             0.0118    -0.3323    -0.6569 C.ar    
   3 C3             1.2505    -0.9328    -0.5312 C.ar    
   4 C4             2.3849    -0.1550    -0.3931 C.ar    
   5 C5             2.2805     1.2233    -0.3810 C.ar    
   6 C6             1.0417     1.8238    -0.5052 C.ar    
   7 C7             3.5171     2.0713    -0.2293 C.3     
   8 C8             3.6687     2.9757    -1.4541 C.3     
   9 N9             4.9349     3.7148    -1.3633 N.3     
  10 C10            5.1770     4.4962    -2.5834 C.3     
  11 C11            6.6080     4.3153    -3.0201 C.ar    
  12 P12            4.8624     6.2602    -2.2478 P.3     
  13 O13            5.8405     6.7553    -1.2534 O.2     
  14 O14            5.0122     7.1012    -3.6125 O.3     
  15 O15            3.3709     6.4386    -1.6684 O.3     
  16 C16            7.6057     4.1715    -2.0739 C.ar    
  17 C17            6.9208     4.2877    -4.3661 C.ar    
  18 C18            8.2328     4.1215    -4.7691 C.ar    
  19 C19            9.2344     3.9825    -3.8246 C.ar    
  20 C20            8.9198     4.0049    -2.4740 C.ar    
  21 C21            3.3934     2.9331     1.0288 C.3     
  22 F22            9.8954     3.8647    -1.5501 F       
  23 F23           10.5167     3.8200    -4.2177 F       
  24 H24           -1.0600     1.5153    -0.7465 H       
  25 H25           -0.8745    -0.9400    -0.7648 H       
  26 H26            1.3320    -2.0097    -0.5407 H       
  27 H27            3.3526    -0.6242    -0.2942 H       
  28 H28            0.9601     2.9007    -0.4953 H       
  29 H29            4.3916     1.4264    -0.1434 H       
  30 H30            3.6676     2.3665    -2.3579 H       
  31 H31            2.8382     3.6807    -1.4901 H       
  32 H32            4.9505     4.3064    -0.5460 H       
  33 H33            4.5098     4.1521    -3.3737 H       
  34 H34            4.4005     6.8301    -4.3107 H       
  35 H35            3.1342     7.3542    -1.4668 H       
  36 H36            7.3596     4.1895    -1.0225 H       
  37 H37            6.1394     4.3958    -5.1038 H       
  38 H38            8.4759     4.0997    -5.8212 H       
  39 H39            2.5189     3.5780     0.9430 H       
  40 H40            3.2854     2.2888     1.9014 H       
  41 H41            4.2878     3.5464     1.1385 H       
@<TRIPOS>BOND
   1    1    2 ar
   2    1    6 ar
   3    1   24 1
   4    2    3 ar
   5    2   25 1
   6    3    4 ar
   7    3   26 1
   8    4    5 ar
   9    4   27 1
  10    5    6 ar
  11    5    7 1
  12    6   28 1
  13    7    8 1
  14    7   21 1
  15    7   29 1
  16    8    9 1
  17    8   30 1
  18    8   31 1
  19    9   10 1
  20    9   32 1
  21   10   11 1
  22   10   12 1
  23   10   33 1
  24   11   17 ar
  25   11   16 ar
  26   12   13 2
  27   12   14 1
  28   12   15 1
  29   14   34 1
  30   15   35 1
  31   16   20 ar
  32   16   36 1
  33   17   18 ar
  34   17   37 1
  35   18   19 ar
  36   18   38 1
  37   19   20 ar
  38   19   23 1
  39   20   22 1
  40   21   39 1
  41   21   40 1
  42   21   41 1

#	End of record

