#	Name: ASD01148413
#	Creating user name:	WinNT
#	Creation time:	15. 06. 2019 19:02

#	Modifying user name:	WinNT
#	Modification time:	15. 06. 2019 19:02

#	Program:	/corina/corina34_cracker 3.40 0067  02.08.2006

@<TRIPOS>MOLECULE
ASD01148413
  53   55    0    0    0
SMALL
NO_CHARGES


@<TRIPOS>ATOM
   1 C1             0.3639     1.8424     0.0684 C.ar    
   2 C2             0.4625     0.4636    -0.0068 C.ar    
   3 C3            -0.6839    -0.3075    -0.0943 C.ar    
   4 C4            -1.9265     0.3003    -0.1065 C.ar    
   5 C5            -2.0237     1.6772    -0.0319 C.ar    
   6 C6            -0.8799     2.4478     0.0617 C.ar    
   7 C7            -3.3779     2.3383    -0.0463 C.3     
   8 O8            -4.3707     1.4946     0.5717 O.3     
   9 C9            -3.3986     3.5786     0.8785 C.3     
  10 C10           -3.9261     3.0093     2.1818 C.2     
  11 N11           -4.4465     1.8536     1.9372 N.2     
  12 C12           -3.8559     3.6642     3.5028 C.ar    
  13 C13           -4.3836     3.0255     4.6282 C.ar    
  14 C14           -3.2569     4.9199     3.6291 C.ar    
  15 C15           -3.1916     5.5305     4.8614 C.ar    
  16 C16           -3.7238     4.8944     5.9851 C.ar    
  17 C17           -4.3182     3.6363     5.8599 C.ar    
  18 C18           -3.6528     5.5497     7.3080 C.2     
  19 O19           -4.2121     5.0500     8.2646 O.2     
  20 N20           -2.9678     6.7013     7.4537 N.am    
  21 C21           -4.8928     2.9503     7.0725 C.3     
  22 C22           -3.7871     2.7108    -1.4728 C.3     
  23 F23           -3.8264     1.5571    -2.2630 F       
  24 F24           -5.0527     3.3067    -1.4542 F       
  25 F25           -2.8563     3.6093    -2.0053 F       
  26 Cl26          -0.5621    -2.0367    -0.1892 Cl      
  27 Cl27           2.0225    -0.2979     0.0081 Cl      
  28 Cl28           1.8004     2.8109     0.1781 Cl      
  29 C29           -2.8974     7.3508     8.7650 C.3     
  30 C30           -2.0789     8.6116     8.6578 C.2     
  31 N31           -1.8776     9.3790     9.7473 N.am    
  32 O32           -1.6015     8.9357     7.5910 O.2     
  33 C33           -1.0819    10.6046     9.6430 C.3     
  34 C34           -1.0083    11.2830    11.0124 C.3     
  35 F35           -0.4091    10.4147    11.9313 F       
  36 F36           -0.2485    12.4534    10.9129 F       
  37 F37           -2.3001    11.6010    11.4453 F       
  38 H38           -2.8210    -0.3010    -0.1748 H       
  39 H39           -0.9571     3.5234     0.1204 H       
  40 H40           -2.3937     3.9799     1.0102 H       
  41 H41           -4.0728     4.3411     0.4883 H       
  42 H42           -4.8431     2.0530     4.5314 H       
  43 H43           -2.8448     5.4114     2.7603 H       
  44 H44           -2.7286     6.5013     4.9590 H       
  45 H45           -2.5215     7.1000     6.6904 H       
  46 H46           -5.9000     3.3235     7.2579 H       
  47 H47           -4.9301     1.8750     6.8981 H       
  48 H48           -4.2638     3.1563     7.9386 H       
  49 H49           -3.9039     7.5985     9.1023 H       
  50 H50           -2.4306     6.6743     9.4809 H       
  51 H51           -2.2594     9.1197    10.6004 H       
  52 H52           -0.0754    10.3569     9.3057 H       
  53 H53           -1.5488    11.2811     8.9271 H       
@<TRIPOS>BOND
   1    1    2 ar
   2    1   28 1
   3    1    6 ar
   4    2    3 ar
   5    2   27 1
   6    3    4 ar
   7    3   26 1
   8    4    5 ar
   9    4   38 1
  10    5    6 ar
  11    5    7 1
  12    6   39 1
  13    7    8 1
  14    7    9 1
  15    7   22 1
  16    8   11 1
  17    9   10 1
  18    9   40 1
  19    9   41 1
  20   10   11 2
  21   10   12 1
  22   12   13 ar
  23   12   14 ar
  24   13   17 ar
  25   13   42 1
  26   14   15 ar
  27   14   43 1
  28   15   16 ar
  29   15   44 1
  30   16   17 ar
  31   16   18 1
  32   17   21 1
  33   18   19 2
  34   18   20 am
  35   20   29 1
  36   20   45 1
  37   21   46 1
  38   21   47 1
  39   21   48 1
  40   22   23 1
  41   22   24 1
  42   22   25 1
  43   29   30 1
  44   29   49 1
  45   29   50 1
  46   30   32 2
  47   30   31 am
  48   31   33 1
  49   31   51 1
  50   33   34 1
  51   33   52 1
  52   33   53 1
  53   34   35 1
  54   34   36 1
  55   34   37 1

#	End of record

