#	Name: ASD05380120
#	Creating user name:	WinNT
#	Creation time:	15. 06. 2019 20:59

#	Modifying user name:	WinNT
#	Modification time:	15. 06. 2019 20:59

#	Program:	/corina/corina34_cracker 3.40 0067  02.08.2006

@<TRIPOS>MOLECULE
ASD05380120
  61   66    0    0    0
SMALL
NO_CHARGES


@<TRIPOS>ATOM
   1 C1            -0.0821     1.4969     0.1514 C.ar    
   2 C2            -0.0807     0.2492    -0.5115 C.ar    
   3 C3             1.0597     2.2950     0.1400 C.ar    
   4 C4             2.1883     1.8571    -0.5226 C.ar    
   5 C5             2.1919     0.6296    -1.1757 C.ar    
   6 C6             1.0729    -0.1725    -1.1751 C.ar    
   7 N7            -1.2044    -0.5109    -0.4862 N.2     
   8 C8            -2.2773    -0.1195     0.1310 C.2     
   9 N9            -2.3683     1.0655     0.7942 N.am    
  10 C10           -1.3109     1.9087     0.8456 C.2     
  11 C11           -3.5648     1.4127     1.4340 C.ar    
  12 C12           -4.6887     1.7305     0.6820 C.ar    
  13 C13           -5.9344     2.1014     2.6932 C.ar    
  14 C14           -3.4834    -1.0228     0.1117 C.3     
  15 N15           -3.5511    -1.7196    -1.1752 N.pl3   
  16 C16           -4.7670    -2.1793    -1.6501 C.ar    
  17 N17           -5.8828    -1.9970    -0.9512 N.ar    
  18 O18           -1.3780     2.9717     1.4351 O.2     
  19 C19           -4.8516    -2.8444    -2.8848 C.ar    
  20 C20           -6.1139    -3.2882    -3.3143 C.ar    
  21 N21           -7.1734    -3.0649    -2.5439 N.ar    
  22 C22           -7.0473    -2.4321    -1.3964 C.ar    
  23 N23           -3.9587    -3.1942    -3.8417 N.2     
  24 C24           -4.5773    -3.8093    -4.8074 C.2     
  25 N25           -5.9091    -3.8924    -4.5289 N.pl3   
  26 C26           -5.8686     2.0734     1.3129 C.ar    
  27 C27           -4.8166     1.7784     3.4495 C.ar    
  28 C28           -3.6306     1.4342     2.8198 C.ar    
  29 C29           -3.3706    -2.0483     1.2416 C.3     
  30 O30           -4.8826     1.8067     4.8066 O.3     
  31 C31           -6.1618     2.0649     5.3887 C.3     
  32 C32           -6.2106     1.4746     6.8014 C.3     
  33 C33           -6.3916     3.5771     5.4710 C.3     
  34 C34           -7.7286     3.8452     6.1669 C.3     
  35 O35           -7.7186     3.2434     7.4630 O.3     
  36 C36           -7.5546     1.8239     7.4459 C.3     
  37 F37            3.2982     2.6273    -0.5372 F       
  38 H38            1.0615     3.2494     0.6455 H       
  39 H39            3.0832     0.3015    -1.6900 H       
  40 H40            1.0876    -1.1242    -1.6855 H       
  41 H41           -4.6399     1.7098    -0.3967 H       
  42 H42           -6.8582     2.3703     3.1838 H       
  43 H43           -4.3857    -0.4272     0.2503 H       
  44 H44           -2.7437    -1.8587    -1.6945 H       
  45 H45           -7.9292    -2.2631    -0.7964 H       
  46 H46           -4.1051    -4.1969    -5.6980 H       
  47 H47           -6.5876    -4.3039    -5.0869 H       
  48 H48           -6.7413     2.3206     0.7266 H       
  49 H49           -2.7596     1.1829     3.4067 H       
  50 H50           -2.5186    -2.7021     1.0552 H       
  51 H51           -3.2302    -1.5299     2.1901 H       
  52 H52           -4.2828    -2.6435     1.2844 H       
  53 H53           -6.9399     1.6094     4.7761 H       
  54 H54           -6.1031     0.3913     6.7473 H       
  55 H55           -5.4005     1.8926     7.3989 H       
  56 H56           -5.5851     4.0376     6.0417 H       
  57 H57           -6.4136     3.9974     4.4655 H       
  58 H58           -7.8774     4.9204     6.2665 H       
  59 H59           -8.5385     3.4193     5.5746 H       
  60 H60           -8.3622     1.3716     6.8703 H       
  61 H61           -7.5780     1.4430     8.4669 H       
@<TRIPOS>BOND
   1    1    2 ar
   2    1    3 ar
   3    1   10 1
   4    2    7 1
   5    2    6 ar
   6    3    4 ar
   7    3   38 1
   8    4    5 ar
   9    4   37 1
  10    5    6 ar
  11    5   39 1
  12    6   40 1
  13    7    8 2
  14    8    9 1
  15    8   14 1
  16    9   10 am
  17    9   11 1
  18   10   18 2
  19   11   12 ar
  20   11   28 ar
  21   12   26 ar
  22   12   41 1
  23   13   26 ar
  24   13   27 ar
  25   13   42 1
  26   14   15 1
  27   14   29 1
  28   14   43 1
  29   15   16 1
  30   15   44 1
  31   16   17 ar
  32   16   19 ar
  33   17   22 ar
  34   19   20 ar
  35   19   23 1
  36   20   21 ar
  37   20   25 1
  38   21   22 ar
  39   22   45 1
  40   23   24 2
  41   24   25 1
  42   24   46 1
  43   25   47 1
  44   26   48 1
  45   27   30 1
  46   27   28 ar
  47   28   49 1
  48   29   50 1
  49   29   51 1
  50   29   52 1
  51   30   31 1
  52   31   32 1
  53   31   33 1
  54   31   53 1
  55   32   36 1
  56   32   54 1
  57   32   55 1
  58   33   34 1
  59   33   56 1
  60   33   57 1
  61   34   35 1
  62   34   58 1
  63   34   59 1
  64   35   36 1
  65   36   60 1
  66   36   61 1

#	End of record

