#	Name: ASD04882404
#	Creating user name:	WinNT
#	Creation time:	15. 06. 2019 20:54

#	Modifying user name:	WinNT
#	Modification time:	15. 06. 2019 20:54

#	Program:	/corina/corina34_cracker 3.40 0067  02.08.2006

@<TRIPOS>MOLECULE
ASD04882404
  76   81    0    0    0
SMALL
NO_CHARGES


@<TRIPOS>ATOM
   1 C1            -0.2871     1.4506     0.1258 C.ar    
   2 C2             0.0542     0.0980     0.0416 C.ar    
   3 C3            -0.9398    -0.8738     0.0555 C.ar    
   4 C4            -2.2639    -0.5076     0.1516 C.ar    
   5 C5            -2.6122     0.8434     0.2361 C.ar    
   6 C6            -1.6144     1.8221     0.2281 C.ar    
   7 N7             1.3917    -0.2768    -0.0566 N.3     
   8 C8             1.9752     0.1790    -1.3290 C.3     
   9 C9             1.5421    -1.7311     0.0798 C.3     
  10 C10            2.9698    -2.1307    -0.1590 C.2     
  11 C11            3.8433    -1.3491    -0.7545 C.2     
  12 C12            3.4964     0.0277    -1.2484 C.3     
  13 C13           -4.0307     1.2355     0.3391 C.2     
  14 O14           -4.3327     2.4110     0.4125 O.2     
  15 C15            5.2228    -1.8443    -0.9461 C.ar    
  16 C16            5.4655    -2.9373    -1.7787 C.ar    
  17 C17            6.2885    -1.2171    -0.2996 C.ar    
  18 C18            7.5738    -1.6842    -0.4826 C.ar    
  19 C19            7.8071    -2.7720    -1.3050 C.ar    
  20 C20            6.7555    -3.3947    -1.9533 C.ar    
  21 N21           -4.9918     0.2907     0.3518 N.am    
  22 C22           -6.4004     0.6801     0.4541 C.3     
  23 C23           -7.2777    -0.5733     0.4473 C.3     
  24 C24           -8.7488    -0.1667     0.5542 C.3     
  25 N25            0.7159     2.4290     0.1122 N.am    
  26 C26            0.4843     3.6235    -0.4675 C.2     
  27 O27           -0.5553     3.8163    -1.0688 O.2     
  28 C28            1.4908     4.6962    -0.3729 C.2     
  29 C29            1.3939     5.9451    -0.9049 C.2     
  30 O30            2.5237     6.5959    -0.5842 O.3     
  31 C31            3.2977     5.7657     0.1289 C.2     
  32 N32            2.6891     4.6260     0.2678 N.2     
  33 C33            4.6566     6.1027     0.6865 C.3     
  34 N34           -9.5889    -1.3669     0.5476 N.am    
  35 C35           -9.9583    -2.0401     1.6509 C.2     
  36 C36          -10.1406    -1.9850    -0.6638 C.3     
  37 C37          -10.5627    -3.4103    -0.2437 C.3     
  38 C38          -10.8129    -3.2298     1.2727 C.3     
  39 O39           -9.6507    -1.7382     2.7845 O.2     
  40 C40            5.7492     6.5010    -0.3078 C.3     
  41 C41            5.1154     7.5596     0.5969 C.3     
  42 H42           -0.6731    -1.9184    -0.0097 H       
  43 H43           -3.0339    -1.2649     0.1614 H       
  44 H44           -1.8805     2.8668     0.2932 H       
  45 H45            1.5897    -0.4292    -2.1473 H       
  46 H46            1.7196     1.2255    -1.4950 H       
  47 H47            1.2463    -2.0319     1.0848 H       
  48 H48            0.9012    -2.2300    -0.6471 H       
  49 H49            3.2942    -3.1054     0.1743 H       
  50 H50            3.9290     0.1778    -2.2376 H       
  51 H51            3.8985     0.7717    -0.5608 H       
  52 H52            4.6454    -3.4245    -2.2851 H       
  53 H53            6.1077    -0.3676     0.3423 H       
  54 H54            8.3995    -1.1994     0.0169 H       
  55 H55            8.8150    -3.1338    -1.4449 H       
  56 H56            6.9442    -4.2434    -2.5940 H       
  57 H57           -4.7508    -0.6471     0.2932 H       
  58 H58           -6.5590     1.2295     1.3820 H       
  59 H59           -6.6647     1.3132    -0.3928 H       
  60 H60           -7.1191    -1.1228    -0.4806 H       
  61 H61           -7.0134    -1.2065     1.2942 H       
  62 H62           -8.9074     0.3828     1.4821 H       
  63 H63           -9.0132     0.4665    -0.2928 H       
  64 H64            1.5768     2.2467     0.5200 H       
  65 H65            0.5660     6.3379    -1.4766 H       
  66 H66            4.9590     5.5326     1.5649 H       
  67 H67          -11.0065    -1.4227    -1.0134 H       
  68 H68           -9.3802    -2.0312    -1.4434 H       
  69 H69          -11.4766    -3.7131    -0.7548 H       
  70 H70           -9.7601    -4.1248    -0.4267 H       
  71 H71          -10.4952    -4.1172     1.8200 H       
  72 H72          -11.8652    -3.0192     1.4633 H       
  73 H73            6.7704     6.1931    -0.0833 H       
  74 H74            5.4851     6.5191    -1.3652 H       
  75 H75            4.4344     8.2742     0.1348 H       
  76 H76            5.7197     7.9482     1.4166 H       
@<TRIPOS>BOND
   1    1    2 ar
   2    1   25 1
   3    1    6 ar
   4    2    3 ar
   5    2    7 1
   6    3    4 ar
   7    3   42 1
   8    4    5 ar
   9    4   43 1
  10    5    6 ar
  11    5   13 1
  12    6   44 1
  13    7    8 1
  14    7    9 1
  15    8   12 1
  16    8   45 1
  17    8   46 1
  18    9   10 1
  19    9   47 1
  20    9   48 1
  21   10   11 2
  22   10   49 1
  23   11   12 1
  24   11   15 1
  25   12   50 1
  26   12   51 1
  27   13   14 2
  28   13   21 am
  29   15   16 ar
  30   15   17 ar
  31   16   20 ar
  32   16   52 1
  33   17   18 ar
  34   17   53 1
  35   18   19 ar
  36   18   54 1
  37   19   20 ar
  38   19   55 1
  39   20   56 1
  40   21   22 1
  41   21   57 1
  42   22   23 1
  43   22   58 1
  44   22   59 1
  45   23   24 1
  46   23   60 1
  47   23   61 1
  48   24   34 1
  49   24   62 1
  50   24   63 1
  51   25   26 am
  52   25   64 1
  53   26   27 2
  54   26   28 1
  55   28   29 2
  56   28   32 1
  57   29   30 1
  58   29   65 1
  59   30   31 1
  60   31   32 2
  61   31   33 1
  62   33   40 1
  63   33   41 1
  64   33   66 1
  65   34   35 am
  66   34   36 1
  67   35   39 2
  68   35   38 1
  69   36   37 1
  70   36   67 1
  71   36   68 1
  72   37   38 1
  73   37   69 1
  74   37   70 1
  75   38   71 1
  76   38   72 1
  77   40   41 1
  78   40   73 1
  79   40   74 1
  80   41   75 1
  81   41   76 1

#	End of record

