#	Name: ASD03540218
#	Creating user name:	WinNT
#	Creation time:	15. 06. 2019 20:42

#	Modifying user name:	WinNT
#	Modification time:	15. 06. 2019 20:42

#	Program:	/corina/corina34_cracker 3.40 0067  02.08.2006

@<TRIPOS>MOLECULE
ASD03540218
  57   60    0    0    0
SMALL
NO_CHARGES


@<TRIPOS>ATOM
   1 C1            -0.0161     1.3365     0.0094 C.2     
   2 N2             0.0021    -0.0041     0.0020 N.am    
   3 C3             1.1931    -0.7075    -0.0132 C.2     
   4 C4             2.3928    -0.0051    -0.0209 C.2     
   5 C5             2.3194     1.4734    -0.0115 C.2     
   6 N6             1.1110     2.0661     0.0025 N.am    
   7 C7             3.5129    -0.8381    -0.0361 C.2     
   8 C8             3.2256    -2.1516    -0.0404 C.2     
   9 S9             1.4874    -2.3902    -0.0250 S.3     
  10 C10            4.2183    -3.2259    -0.0565 C.2     
  11 O11            5.4048    -2.9577    -0.0671 O.2     
  12 O12            3.8179    -4.5143    -0.0595 O.3     
  13 C13            1.0243     3.5285     0.0113 C.3     
  14 C14            1.0079     4.0298     1.4567 C.3     
  15 C15            0.9174     5.5571     1.4658 C.3     
  16 C16            0.9010     6.0584     2.9113 C.3     
  17 O17            0.8164     7.4849     2.9198 O.3     
  18 C18            0.7915     8.0942     4.1343 C.ar    
  19 C19            0.7102     9.4767     4.2165 C.ar    
  20 C20            0.6851    10.0937     5.4522 C.ar    
  21 C21            0.7409     9.3346     6.6065 C.ar    
  22 C22            0.8224     7.9566     6.5273 C.ar    
  23 C23            0.8416     7.3344     5.2940 C.ar    
  24 O24            3.3358     2.1426    -0.0175 O.2     
  25 O25           -1.0880     1.9101     0.0175 O.2     
  26 C26           -1.2652    -0.7390     0.0107 C.3     
  27 C27            4.8413    -5.5116    -0.0754 C.3     
  28 C28            4.2094    -6.8798    -0.0765 C.ar    
  29 C29            3.9074    -7.5007    -1.2740 C.ar    
  30 C30            3.3277    -8.7556    -1.2750 C.ar    
  31 C31            3.0505    -9.3898    -0.0785 C.ar    
  32 C32            3.3533    -8.7693     1.1191 C.ar    
  33 C33            3.9370    -7.5162     1.1200 C.ar    
  34 H34            4.5244    -0.4597    -0.0438 H       
  35 H35            1.8863     3.9467    -0.5086 H       
  36 H36            0.1095     3.8412    -0.4921 H       
  37 H37            0.1460     3.6116     1.9766 H       
  38 H38            1.9227     3.7170     1.9601 H       
  39 H39            1.7794     5.9753     0.9460 H       
  40 H40            0.0026     5.8698     0.9624 H       
  41 H41            0.0391     5.6402     3.4311 H       
  42 H42            1.8158     5.7456     3.4147 H       
  43 H43            0.6670    10.0701     3.3152 H       
  44 H44            0.6222    11.1699     5.5168 H       
  45 H45            0.7211     9.8188     7.5717 H       
  46 H46            0.8665     7.3659     7.4304 H       
  47 H47            0.9003     6.2578     5.2327 H       
  48 H48           -2.0950    -0.0322     0.0228 H       
  49 H49           -1.3307    -1.3609    -0.8820 H       
  50 H50           -1.3130    -1.3705     0.8978 H       
  51 H51            5.4510    -5.3923    -0.9710 H       
  52 H52            5.4691    -5.4021     0.8089 H       
  53 H53            4.1240    -7.0051    -2.2089 H       
  54 H54            3.0911    -9.2404    -2.2107 H       
  55 H55            2.5970   -10.3700    -0.0792 H       
  56 H56            3.1364    -9.2647     2.0539 H       
  57 H57            4.1770    -7.0330     2.0556 H       
@<TRIPOS>BOND
   1    1    2 am
   2    1    6 am
   3    1   25 2
   4    2    3 1
   5    2   26 1
   6    3    4 2
   7    3    9 1
   8    4    5 1
   9    4    7 1
  10    5    6 am
  11    5   24 2
  12    6   13 1
  13    7    8 2
  14    7   34 1
  15    8    9 1
  16    8   10 1
  17   10   11 2
  18   10   12 1
  19   12   27 1
  20   13   14 1
  21   13   35 1
  22   13   36 1
  23   14   15 1
  24   14   37 1
  25   14   38 1
  26   15   16 1
  27   15   39 1
  28   15   40 1
  29   16   17 1
  30   16   41 1
  31   16   42 1
  32   17   18 1
  33   18   19 ar
  34   18   23 ar
  35   19   20 ar
  36   19   43 1
  37   20   21 ar
  38   20   44 1
  39   21   22 ar
  40   21   45 1
  41   22   23 ar
  42   22   46 1
  43   23   47 1
  44   26   48 1
  45   26   49 1
  46   26   50 1
  47   27   28 1
  48   27   51 1
  49   27   52 1
  50   28   29 ar
  51   28   33 ar
  52   29   30 ar
  53   29   53 1
  54   30   31 ar
  55   30   54 1
  56   31   32 ar
  57   31   55 1
  58   32   33 ar
  59   32   56 1
  60   33   57 1

#	End of record

