#	Name: ASD03331071
#	Creating user name:	WinNT
#	Creation time:	15. 06. 2019 20:38

#	Modifying user name:	WinNT
#	Modification time:	15. 06. 2019 20:38

#	Program:	/corina/corina34_cracker 3.40 0067  02.08.2006

@<TRIPOS>MOLECULE
ASD03331071
  60   62    0    0    0
SMALL
NO_CHARGES


@<TRIPOS>ATOM
   1 N1             1.4455     0.5667     0.8669 N.pl3   
   2 C2             1.1345    -0.6341     0.3093 C.2     
   3 C3             2.1212    -1.6166    -0.2655 C.3     
   4 N4             3.2325    -1.7943     0.6821 N.3     
   5 C5             4.2938    -0.8141     0.4446 C.3     
   6 C6             3.7136     0.5133    -0.0351 C.3     
   7 C7             2.7992     1.0996     1.0439 C.3     
   8 C8             0.2739     1.1625     1.2339 C.2     
   9 N9            -0.7178     0.3570     0.9328 N.2     
  10 C10           -0.2198    -0.7625     0.3629 C.2     
  11 C11           -1.0026    -1.9156    -0.1157 C.2     
  12 O12           -0.4368    -2.8699    -0.6141 O.2     
  13 N13           -2.3454    -1.9127    -0.0011 N.am    
  14 C14            0.1434     2.4930     1.8656 C.ar    
  15 C15           -0.8223     3.3943     1.4093 C.ar    
  16 C16           -0.9401     4.6361     2.0036 C.ar    
  17 C17           -0.1031     4.9883     3.0492 C.ar    
  18 C18            0.8579     4.0971     3.5059 C.ar    
  19 C19            0.9802     2.8510     2.9232 C.ar    
  20 F20            1.6718     4.4473     4.5258 F       
  21 F21           -0.2221     6.2039     3.6266 F       
  22 F22           -1.6387     3.0522     0.3887 F       
  23 C23           -3.1237    -3.0591    -0.4769 C.3     
  24 C24           -4.5441    -2.6047    -0.8186 C.3     
  25 C25           -4.4832    -1.4553    -1.8266 C.3     
  26 C26           -4.0667    -5.2847     0.1552 C.3     
  27 C27           -1.7672    -4.6466     0.8951 C.3     
  28 C28           -3.1792    -4.1272     0.6172 C.3     
  29 C29           -5.3217    -3.7744    -1.4253 C.3     
  30 O30           -5.2014    -2.1613     0.3703 O.3     
  31 C31           -3.7594    -3.5183     1.8953 C.3     
  32 H32            1.6274    -2.5740    -0.4316 H       
  33 H33            2.5062    -1.2352    -1.2112 H       
  34 H34            2.9054    -1.7492     1.6355 H       
  35 H35            4.8440    -0.6504     1.3712 H       
  36 H36            4.9760    -1.2012    -0.3123 H       
  37 H37            4.5258     1.2108    -0.2401 H       
  38 H38            3.1393     0.3493    -0.9469 H       
  39 H39            2.7781     2.1856     0.9530 H       
  40 H40            3.1741     0.8225     2.0292 H       
  41 H41           -2.7966    -1.1516     0.3965 H       
  42 H42           -1.6860     5.3335     1.6518 H       
  43 H43            1.7254     2.1566     3.2823 H       
  44 H44           -2.6512    -3.4748    -1.3668 H       
  45 H45           -3.9819    -1.7934    -2.7335 H       
  46 H46           -5.4952    -1.1315    -2.0701 H       
  47 H47           -3.9293    -0.6219    -1.3944 H       
  48 H48           -3.9476    -5.4277    -0.9188 H       
  49 H49           -3.7761    -6.1962     0.6776 H       
  50 H50           -5.1087    -5.0549     0.3778 H       
  51 H51           -1.1349    -3.8219     1.2242 H       
  52 H52           -1.8068    -5.4075     1.6745 H       
  53 H53           -1.3539    -5.0803    -0.0155 H       
  54 H54           -5.7729    -4.3637    -0.6270 H       
  55 H55           -6.1039    -3.3901    -2.0799 H       
  56 H56           -4.6421    -4.4027    -2.0012 H       
  57 H57           -4.7625    -1.4198     0.8092 H       
  58 H58           -4.8472    -3.5005     1.8280 H       
  59 H59           -3.4583    -4.1195     2.7533 H       
  60 H60           -3.3861    -2.5013     2.0153 H       
@<TRIPOS>BOND
   1    1    2 1
   2    1    7 1
   3    1    8 1
   4    2    3 1
   5    2   10 2
   6    3    4 1
   7    3   32 1
   8    3   33 1
   9    4    5 1
  10    4   34 1
  11    5    6 1
  12    5   35 1
  13    5   36 1
  14    6    7 1
  15    6   37 1
  16    6   38 1
  17    7   39 1
  18    7   40 1
  19    8    9 2
  20    8   14 1
  21    9   10 1
  22   10   11 1
  23   11   12 2
  24   11   13 am
  25   13   23 1
  26   13   41 1
  27   14   15 ar
  28   14   19 ar
  29   15   16 ar
  30   15   22 1
  31   16   17 ar
  32   16   42 1
  33   17   18 ar
  34   17   21 1
  35   18   19 ar
  36   18   20 1
  37   19   43 1
  38   23   24 1
  39   23   28 1
  40   23   44 1
  41   24   25 1
  42   24   29 1
  43   24   30 1
  44   25   45 1
  45   25   46 1
  46   25   47 1
  47   26   28 1
  48   26   48 1
  49   26   49 1
  50   26   50 1
  51   27   28 1
  52   27   51 1
  53   27   52 1
  54   27   53 1
  55   28   31 1
  56   29   54 1
  57   29   55 1
  58   29   56 1
  59   30   57 1
  60   31   58 1
  61   31   59 1
  62   31   60 1

#	End of record

