#	Name: ASD01901339
#	Creating user name:	WinNT
#	Creation time:	15. 06. 2019 19:53

#	Modifying user name:	WinNT
#	Modification time:	15. 06. 2019 19:53

#	Program:	/corina/corina34_cracker 3.40 0067  02.08.2006

@<TRIPOS>MOLECULE
ASD01901339
  37   40    0    0    0
SMALL
NO_CHARGES


@<TRIPOS>ATOM
   1 C1            -0.0168     1.3883     0.0097 C.ar    
   2 N2             1.1080     2.0748     0.0026 N.ar    
   3 C3             2.2862     1.4803    -0.0118 C.ar    
   4 C4             2.3880     0.0993    -0.0207 C.ar    
   5 C5             1.2341    -0.6642    -0.0138 C.ar    
   6 C6             0.0021    -0.0041     0.0020 C.ar    
   7 C7            -1.2662    -0.7752     0.0100 C.2     
   8 N8            -2.7240    -2.2664     1.1169 N.2     
   9 C9            -1.6029    -1.5878     1.1143 C.2     
  10 C10           -2.1271    -0.7041    -1.0491 C.2     
  11 N11           -3.2838    -1.4248    -1.0094 N.pl3   
  12 C12           -3.5724    -2.2068     0.0794 C.2     
  13 C13           -4.3224    -1.5596    -1.8909 C.2     
  14 C14           -5.2104    -2.4082    -1.3308 C.2     
  15 N15           -4.7416    -2.7914    -0.1395 N.2     
  16 C16           -6.5131    -2.8497    -1.9464 C.3     
  17 O17           -6.6702    -2.2300    -3.2244 O.3     
  18 C18           -7.8013    -2.5244    -3.9179 C.ar    
  19 C19           -8.7432    -3.3874    -3.3770 C.ar    
  20 C20           -8.0185    -1.9580    -5.1656 C.ar    
  21 C21           -9.1690    -2.2589    -5.8686 C.ar    
  22 C22          -10.1038    -3.1234    -5.3296 C.ar    
  23 C23           -9.8921    -3.6851    -4.0840 C.ar    
  24 Cl24           3.7300     2.4440    -0.0205 Cl      
  25 H25           -0.9621     1.9105     0.0260 H       
  26 H26            3.3574    -0.3766    -0.0332 H       
  27 H27            1.2841    -1.7430    -0.0208 H       
  28 H28           -0.9339    -1.6507     1.9599 H       
  29 H29           -1.8950    -0.0863    -1.9040 H       
  30 H30           -4.4144    -1.0774    -2.8529 H       
  31 H31           -6.5098    -3.9331    -2.0658 H       
  32 H32           -7.3389    -2.5583    -1.2973 H       
  33 H33           -8.5783    -3.8264    -2.4041 H       
  34 H34           -7.2890    -1.2821    -5.5868 H       
  35 H35           -9.3386    -1.8182    -6.8399 H       
  36 H36          -11.0029    -3.3568    -5.8804 H       
  37 H37          -10.6257    -4.3569    -3.6633 H       
@<TRIPOS>BOND
   1    1    6 ar
   2    1    2 ar
   3    1   25 1
   4    2    3 ar
   5    3    4 ar
   6    3   24 1
   7    4    5 ar
   8    4   26 1
   9    5    6 ar
  10    5   27 1
  11    6    7 1
  12    7   10 2
  13    7    9 1
  14    8    9 2
  15    8   12 1
  16    9   28 1
  17   10   11 1
  18   10   29 1
  19   11   13 1
  20   11   12 1
  21   12   15 2
  22   13   14 2
  23   13   30 1
  24   14   15 1
  25   14   16 1
  26   16   17 1
  27   16   31 1
  28   16   32 1
  29   17   18 1
  30   18   20 ar
  31   18   19 ar
  32   19   23 ar
  33   19   33 1
  34   20   21 ar
  35   20   34 1
  36   21   22 ar
  37   21   35 1
  38   22   23 ar
  39   22   36 1
  40   23   37 1

#	End of record

