#	Name: ASD02039404
#	Creating user name:	WinNT
#	Creation time:	15. 06. 2019 20:18

#	Modifying user name:	WinNT
#	Modification time:	15. 06. 2019 20:18

#	Program:	/corina/corina34_cracker 3.40 0067  02.08.2006

@<TRIPOS>MOLECULE
ASD02039404
  51   53    0    0    0
SMALL
NO_CHARGES


@<TRIPOS>ATOM
   1 C1            -0.1505     1.4882    -0.1012 C.ar    
   2 C2            -0.1485     0.1034    -0.0131 C.ar    
   3 C3             1.1362     2.2676    -0.0126 C.3     
   4 N4             1.7694     2.3167    -1.3328 N.am    
   5 C5             1.3308     3.3071    -2.3192 C.3     
   6 C6             2.7553     1.4506    -1.6399 C.2     
   7 C7             3.1364     0.3983    -0.6818 C.2     
   8 C8             4.1536    -0.4983    -0.8312 C.2     
   9 N9             2.5429     0.1480     0.5133 N.2     
  10 C10            3.1488    -0.8536     1.0826 C.2     
  11 N11            4.1544    -1.2794     0.2745 N.pl3   
  12 O12            3.3305     1.5378    -2.7080 O.2     
  13 C13            5.0741    -2.3860     0.5499 C.3     
  14 C14            2.4784     4.2748    -2.6152 C.3     
  15 C15            0.9190     2.5946    -3.6090 C.3     
  16 C16           -1.3457    -0.5833    -0.0980 C.ar    
  17 N17           -2.4841     0.0595    -0.2609 N.ar    
  18 C18           -2.5292     1.3827    -0.3498 C.ar    
  19 C19           -1.3603     2.1373    -0.2782 C.ar    
  20 C20           -3.8340     2.0634    -0.5330 C.ar    
  21 C21           -3.8813     3.4412    -0.7352 C.ar    
  22 C22           -5.0181     1.3254    -0.5092 C.ar    
  23 C23           -6.2327     1.9640    -0.6805 C.ar    
  24 C24           -6.2767     3.3313    -0.8755 C.ar    
  25 C25           -5.1023     4.0711    -0.9056 C.ar    
  26 O26           -5.1517     5.4161    -1.0974 O.3     
  27 F27           -4.9779    -0.0116    -0.3196 F       
  28 C28           -6.4452     6.0011    -1.2607 C.3     
  29 F29           -7.2155     5.7557    -0.1189 F       
  30 F30           -6.3128     7.3814    -1.4460 F       
  31 F31           -7.0737     5.4388    -2.3769 F       
  32 H32            0.7793    -0.4330     0.1202 H       
  33 H33            0.9242     3.2816     0.3266 H       
  34 H34            1.8078     1.7809     0.6946 H       
  35 H35            0.4804     3.8622    -1.9233 H       
  36 H36            4.8289    -0.5713    -1.6709 H       
  37 H37            2.8950    -1.2760     2.0436 H       
  38 H38            4.6554    -3.3127     0.1575 H       
  39 H39            6.0332    -2.1891     0.0708 H       
  40 H40            5.2181    -2.4795     1.6263 H       
  41 H41            3.2947     3.7345    -3.0945 H       
  42 H42            2.1259     5.0641    -3.2791 H       
  43 H43            2.8321     4.7150    -1.6829 H       
  44 H44            0.1671     1.8386    -3.3823 H       
  45 H45            0.5049     3.3205    -4.3087 H       
  46 H46            1.7915     2.1170    -4.0547 H       
  47 H47           -1.3476    -1.6611    -0.0301 H       
  48 H48           -1.3984     3.2142    -0.3506 H       
  49 H49           -2.9675     4.0165    -0.7585 H       
  50 H50           -7.1491     1.3927    -0.6620 H       
  51 H51           -7.2277     3.8256    -1.0091 H       
@<TRIPOS>BOND
   1    1    2 ar
   2    1    3 1
   3    1   19 ar
   4    2   16 ar
   5    2   32 1
   6    3    4 1
   7    3   33 1
   8    3   34 1
   9    4    5 1
  10    4    6 am
  11    5   14 1
  12    5   15 1
  13    5   35 1
  14    6    7 1
  15    6   12 2
  16    7    8 2
  17    7    9 1
  18    8   11 1
  19    8   36 1
  20    9   10 2
  21   10   11 1
  22   10   37 1
  23   11   13 1
  24   13   38 1
  25   13   39 1
  26   13   40 1
  27   14   41 1
  28   14   42 1
  29   14   43 1
  30   15   44 1
  31   15   45 1
  32   15   46 1
  33   16   17 ar
  34   16   47 1
  35   17   18 ar
  36   18   19 ar
  37   18   20 1
  38   19   48 1
  39   20   21 ar
  40   20   22 ar
  41   21   25 ar
  42   21   49 1
  43   22   23 ar
  44   22   27 1
  45   23   24 ar
  46   23   50 1
  47   24   25 ar
  48   24   51 1
  49   25   26 1
  50   26   28 1
  51   28   29 1
  52   28   30 1
  53   28   31 1

#	End of record

