#	Name: ASD01814729
#	Creating user name:	WinNT
#	Creation time:	15. 06. 2019 19:32

#	Modifying user name:	WinNT
#	Modification time:	15. 06. 2019 19:32

#	Program:	/corina/corina34_cracker 3.40 0067  02.08.2006

@<TRIPOS>MOLECULE
ASD01814729
  58   62    0    0    0
SMALL
NO_CHARGES


@<TRIPOS>ATOM
   1 C1            -0.0157     1.3398     0.0295 C.2     
   2 N2             0.0027    -0.0042     0.0281 N.am    
   3 C3             1.3984    -0.4568     0.0048 C.3     
   4 C4             2.2454     0.7913    -0.0080 C.ar    
   5 C5             3.6023     1.0084    -0.0304 C.ar    
   6 C6             4.0996     2.3025    -0.0378 C.ar    
   7 C7             3.2366     3.3806    -0.0228 C.ar    
   8 C8             1.8650     3.1773     0.0004 C.ar    
   9 C9             1.3572     1.8706     0.0075 C.ar    
  10 O10           -1.0232     2.0204     0.0420 O.2     
  11 C11           -1.1761    -0.8738     0.0473 C.3     
  12 C12           -1.6041    -1.1713    -1.3667 C.ar    
  13 C13           -1.0880    -2.2725    -2.0256 C.ar    
  14 C14           -1.4766    -2.5495    -3.3207 C.ar    
  15 C15           -2.3904    -1.7177    -3.9642 C.ar    
  16 C16           -2.9070    -0.6098    -3.2958 C.ar    
  17 C17           -2.5159    -0.3453    -1.9988 C.ar    
  18 N18           -3.0337    -2.9354    -7.3407 N.pl3   
  19 N19           -2.3998    -3.0197    -6.0946 N.2     
  20 C20           -2.8115    -2.0103    -5.3570 C.2     
  21 C21           -3.7224    -1.2570    -6.1229 C.2     
  22 C22           -3.8363    -1.8495    -7.3315 C.2     
  23 C23           -2.8527    -3.8611    -8.4617 C.3     
  24 O24            1.0189     4.2375     0.0160 O.3     
  25 C25            1.6069     5.5351     0.1284 C.3     
  26 C26            0.5922     6.5036     0.7395 C.3     
  27 C27            1.2217     7.8929     0.8597 C.3     
  28 C28            1.6292     8.3901    -0.5287 C.3     
  29 C29            2.6438     7.4217    -1.1398 C.3     
  30 C30            2.0143     6.0323    -1.2600 C.3     
  31 O31            0.2117     6.0392     2.0362 O.3     
  32 H32            1.6156    -1.0479     0.8945 H       
  33 H33            1.5863    -1.0464    -0.8925 H       
  34 H34            4.2823     0.1695    -0.0419 H       
  35 H35            5.1667     2.4683    -0.0551 H       
  36 H36            3.6314     4.3858    -0.0287 H       
  37 H37           -0.9317    -1.8060     0.5567 H       
  38 H38           -1.9881    -0.3735     0.5751 H       
  39 H39           -0.3795    -2.9164    -1.5260 H       
  40 H40           -1.0727    -3.4094    -3.8344 H       
  41 H41           -3.6154     0.0385    -3.7901 H       
  42 H42           -2.9191     0.5107    -1.4782 H       
  43 H43           -4.2380    -0.3643    -5.8011 H       
  44 H44           -4.4595    -1.5135    -8.1471 H       
  45 H45           -3.5800    -4.6695    -8.3864 H       
  46 H46           -2.9986    -3.3274    -9.4008 H       
  47 H47           -1.8449    -4.2752    -8.4319 H       
  48 H48            2.4879     5.4807     0.7678 H       
  49 H49           -0.2888     6.5580     0.1000 H       
  50 H50            0.4989     8.5829     1.2951 H       
  51 H51            2.1028     7.8385     1.4992 H       
  52 H52            0.7482     8.4446    -1.1681 H       
  53 H53            2.0777     9.3799    -0.4430 H       
  54 H54            2.9341     7.7759    -2.1289 H       
  55 H55            3.5249     7.3672    -0.5003 H       
  56 H56            2.7372     5.3424    -1.6954 H       
  57 H57            1.1333     6.0868    -1.8995 H       
  58 H58           -0.4313     6.6060     2.4839 H       
@<TRIPOS>BOND
   1    1    2 am
   2    1    9 1
   3    1   10 2
   4    2    3 1
   5    2   11 1
   6    3    4 1
   7    3   32 1
   8    3   33 1
   9    4    5 ar
  10    4    9 ar
  11    5    6 ar
  12    5   34 1
  13    6    7 ar
  14    6   35 1
  15    7    8 ar
  16    7   36 1
  17    8    9 ar
  18    8   24 1
  19   11   12 1
  20   11   37 1
  21   11   38 1
  22   12   13 ar
  23   12   17 ar
  24   13   14 ar
  25   13   39 1
  26   14   15 ar
  27   14   40 1
  28   15   16 ar
  29   15   20 1
  30   16   17 ar
  31   16   41 1
  32   17   42 1
  33   18   19 1
  34   18   22 1
  35   18   23 1
  36   19   20 2
  37   20   21 1
  38   21   22 2
  39   21   43 1
  40   22   44 1
  41   23   45 1
  42   23   46 1
  43   23   47 1
  44   24   25 1
  45   25   26 1
  46   25   30 1
  47   25   48 1
  48   26   27 1
  49   26   31 1
  50   26   49 1
  51   27   28 1
  52   27   50 1
  53   27   51 1
  54   28   29 1
  55   28   52 1
  56   28   53 1
  57   29   30 1
  58   29   54 1
  59   29   55 1
  60   30   56 1
  61   30   57 1
  62   31   58 1

#	End of record

