#	Name: ASD01720036
#	Creating user name:	WinNT
#	Creation time:	15. 06. 2019 19:23

#	Modifying user name:	WinNT
#	Modification time:	15. 06. 2019 19:23

#	Program:	/corina/corina34_cracker 3.40 0067  02.08.2006

@<TRIPOS>MOLECULE
ASD01720036
  71   73    0    0    0
SMALL
NO_CHARGES


@<TRIPOS>ATOM
   1 C1            -0.5415     1.1926    -0.0900 C.3     
   2 C2            -0.6938    -0.3257    -0.2063 C.3     
   3 C3            -0.0904    -0.9907     1.0340 C.3     
   4 C4             1.3789    -0.5788     1.1604 C.3     
   5 C5             1.4711     0.9468     1.2370 C.3     
   6 N6             0.8815     1.5355     0.0278 N.3     
   7 C7             1.0649     2.9074     0.0037 C.ar    
   8 C8             2.3538     3.4293     0.1042 C.ar    
   9 C9             2.5362     4.7852     0.0800 C.ar    
  10 C10            1.4091     5.6114    -0.0462 C.ar    
  11 C11            0.1402     5.0199    -0.1428 C.ar    
  12 N12            0.0129     3.7041    -0.1200 N.ar    
  13 C13           -2.1779    -0.6840    -0.3069 C.3     
  14 C14           -2.3221    -2.1652    -0.5444 C.2     
  15 O15           -1.3388    -2.8627    -0.6248 O.2     
  16 O16           -3.5429    -2.7096    -0.6665 O.3     
  17 O17           -0.9593     5.8009    -0.2652 O.3     
  18 C18            1.5555     7.0760    -0.0764 C.2     
  19 O19            0.5720     7.7833    -0.1861 O.2     
  20 N20            2.7791     7.6330     0.0176 N.am    
  21 C21            2.9247     9.0905    -0.0124 C.3     
  22 C22            2.7216     9.6524     1.3961 C.3     
  23 C23            4.3258     9.4529    -0.5090 C.3     
  24 C24            4.4778    10.9750    -0.5404 C.3     
  25 C25            4.2748    11.5369     0.8681 C.3     
  26 C26            2.8737    11.1745     1.3647 C.3     
  27 C27           -2.2205     5.1355    -0.3589 C.3     
  28 C28           -3.3119     6.0245     0.2407 C.3     
  29 C29           -2.5413     4.8551    -1.8284 C.3     
  30 C30           -3.0407     6.2289     1.7325 C.3     
  31 C31           -4.0473     7.2311     2.3012 C.3     
  32 C32           -3.1823     4.8928     2.4644 C.3     
  33 H33           -0.9574     1.6683    -0.9782 H       
  34 H34           -1.0742     1.5445     0.7934 H       
  35 H35           -0.1729    -0.6766    -1.0971 H       
  36 H36           -0.6363    -0.6700     1.9213 H       
  37 H37           -0.1578    -2.0742     0.9355 H       
  38 H38            1.8025    -1.0149     2.0651 H       
  39 H39            1.9324    -0.9337     0.2911 H       
  40 H40            0.9290     1.2999     2.1142 H       
  41 H41            2.5171     1.2441     1.3127 H       
  42 H42            3.2023     2.7681     0.2007 H       
  43 H43            3.5261     5.2103     0.1568 H       
  44 H44           -2.6806    -0.4143     0.6219 H       
  45 H45           -2.6282    -0.1377    -1.1357 H       
  46 H46           -3.5850    -3.6637    -0.8179 H       
  47 H47            3.5634     7.0689     0.1051 H       
  48 H48            2.1796     9.5163    -0.6844 H       
  49 H49            1.7235     9.3942     1.7499 H       
  50 H50            3.4668     9.2266     2.0681 H       
  51 H51            5.0709     9.0271     0.1630 H       
  52 H52            4.4704     9.0526    -1.5125 H       
  53 H53            5.4760    11.2332    -0.8942 H       
  54 H54            3.7327    11.4008    -1.2124 H       
  55 H55            5.0199    11.1111     1.5401 H       
  56 H56            4.3831    12.6213     0.8458 H       
  57 H57            2.1286    11.6003     0.6927 H       
  58 H58            2.7290    11.5748     2.3682 H       
  59 H59           -2.1764     4.1945     0.1894 H       
  60 H60           -3.3119     6.9904    -0.2643 H       
  61 H61           -4.2826     5.5462     0.1100 H       
  62 H62           -1.7637     4.2218    -2.2555 H       
  63 H63           -3.5033     4.3476    -1.8998 H       
  64 H64           -2.5853     5.7961    -2.3766 H       
  65 H65           -2.0296     6.6125     1.8688 H       
  66 H66           -3.8875     8.2067     1.8423 H       
  67 H67           -5.0602     6.8901     2.0867 H       
  68 H68           -3.9114     7.3102     3.3798 H       
  69 H69           -2.4652     4.1789     2.0593 H       
  70 H70           -2.9891     5.0385     3.5272 H       
  71 H71           -4.1934     4.5092     2.3281 H       
@<TRIPOS>BOND
   1    1    2 1
   2    1    6 1
   3    1   33 1
   4    1   34 1
   5    2    3 1
   6    2   13 1
   7    2   35 1
   8    3    4 1
   9    3   36 1
  10    3   37 1
  11    4    5 1
  12    4   38 1
  13    4   39 1
  14    5    6 1
  15    5   40 1
  16    5   41 1
  17    6    7 1
  18    7    8 ar
  19    7   12 ar
  20    8    9 ar
  21    8   42 1
  22    9   10 ar
  23    9   43 1
  24   10   11 ar
  25   10   18 1
  26   11   12 ar
  27   11   17 1
  28   13   14 1
  29   13   44 1
  30   13   45 1
  31   14   15 2
  32   14   16 1
  33   16   46 1
  34   17   27 1
  35   18   19 2
  36   18   20 am
  37   20   21 1
  38   20   47 1
  39   21   23 1
  40   21   22 1
  41   21   48 1
  42   22   26 1
  43   22   49 1
  44   22   50 1
  45   23   24 1
  46   23   51 1
  47   23   52 1
  48   24   25 1
  49   24   53 1
  50   24   54 1
  51   25   26 1
  52   25   55 1
  53   25   56 1
  54   26   57 1
  55   26   58 1
  56   27   28 1
  57   27   29 1
  58   27   59 1
  59   28   30 1
  60   28   60 1
  61   28   61 1
  62   29   62 1
  63   29   63 1
  64   29   64 1
  65   30   31 1
  66   30   32 1
  67   30   65 1
  68   31   66 1
  69   31   67 1
  70   31   68 1
  71   32   69 1
  72   32   70 1
  73   32   71 1

#	End of record

