#	Name: ASD01915504
#	Creating user name:	WinNT
#	Creation time:	15. 06. 2019 20:05

#	Modifying user name:	WinNT
#	Modification time:	15. 06. 2019 20:05

#	Program:	/corina/corina34_cracker 3.40 0067  02.08.2006

@<TRIPOS>MOLECULE
ASD01915504
  40   43    0    0    0
SMALL
NO_CHARGES


@<TRIPOS>ATOM
   1 C1            -0.0041     1.4529     0.2355 C.2     
   2 N2             0.0643     0.1176    -0.0277 N.pl3   
   3 C3            -1.1347    -0.6745    -0.3134 C.3     
   4 C4            -2.3283    -0.0727     0.4272 C.3     
   5 N5            -2.4118     1.3752     0.2664 N.am    
   6 C6            -1.3045     2.1550     0.2878 C.2     
   7 N7             1.2146     1.8825     0.4195 N.2     
   8 C8             2.0238     0.8297     0.2859 C.2     
   9 N9             1.2928    -0.2288     0.0196 N.2     
  10 C10            3.5249     0.8516     0.4179 C.3     
  11 O11            3.8871     0.6043     1.7779 O.3     
  12 C12            5.2142     0.5903     2.0701 C.ar    
  13 C13           -3.6644     1.9717     0.0855 C.ar    
  14 O14           -1.3759     3.3672     0.3471 O.2     
  15 C15            5.6369     0.3562     3.3706 C.ar    
  16 C16            6.1488     0.8044     1.0674 C.ar    
  17 C17            7.4973     0.7897     1.3670 C.ar    
  18 C18            7.9158     0.5618     2.6650 C.ar    
  19 C19            6.9866     0.3425     3.6651 C.ar    
  20 C20           -4.5927     1.9668     1.1185 C.ar    
  21 C21           -5.8286     2.5561     0.9377 C.ar    
  22 C22           -6.1427     3.1512    -0.2726 C.ar    
  23 C23           -5.2188     3.1568    -1.3041 C.ar    
  24 C24           -3.9793     2.5745    -1.1255 C.ar    
  25 F25           -7.3524     3.7267    -0.4474 F       
  26 H26           -1.3297    -0.6650    -1.3857 H       
  27 H27           -0.9802    -1.7009     0.0194 H       
  28 H28           -3.2442    -0.5235     0.0452 H       
  29 H29           -2.2388    -0.3052     1.4883 H       
  30 H30            3.9569     0.0799    -0.2193 H       
  31 H31            3.9022     1.8277     0.1131 H       
  32 H32            4.9115     0.1853     4.1522 H       
  33 H33            5.8224     0.9820     0.0534 H       
  34 H34            8.2252     0.9559     0.5867 H       
  35 H35            8.9705     0.5507     2.8972 H       
  36 H36            7.3160     0.1651     4.6782 H       
  37 H37           -4.3484     1.5022     2.0623 H       
  38 H38           -6.5507     2.5525     1.7408 H       
  39 H39           -5.4660     3.6208    -2.2475 H       
  40 H40           -3.2590     2.5790    -1.9302 H       
@<TRIPOS>BOND
   1    1    2 1
   2    1    7 2
   3    1    6 1
   4    2    3 1
   5    2    9 1
   6    3    4 1
   7    3   26 1
   8    3   27 1
   9    4    5 1
  10    4   28 1
  11    4   29 1
  12    5    6 am
  13    5   13 1
  14    6   14 2
  15    7    8 1
  16    8    9 2
  17    8   10 1
  18   10   11 1
  19   10   30 1
  20   10   31 1
  21   11   12 1
  22   12   15 ar
  23   12   16 ar
  24   13   20 ar
  25   13   24 ar
  26   15   19 ar
  27   15   32 1
  28   16   17 ar
  29   16   33 1
  30   17   18 ar
  31   17   34 1
  32   18   19 ar
  33   18   35 1
  34   19   36 1
  35   20   21 ar
  36   20   37 1
  37   21   22 ar
  38   21   38 1
  39   22   23 ar
  40   22   25 1
  41   23   24 ar
  42   23   39 1
  43   24   40 1

#	End of record

