#	Name: ASD08390048
#	Creating user name:	WinNT
#	Creation time:	15. 06. 2019 21:19

#	Modifying user name:	WinNT
#	Modification time:	15. 06. 2019 21:19

#	Program:	/corina/corina34_cracker 3.40 0067  02.08.2006

@<TRIPOS>MOLECULE
ASD08390048
  59   62    0    0    0
SMALL
NO_CHARGES


@<TRIPOS>ATOM
   1 C1            -0.2310     1.5095    -0.1542 C.3     
   2 C2            -0.0060     0.0557     0.3067 C.3     
   3 N3             1.1329     1.9922    -0.4281 N.pl3   
   4 C4             2.0116     0.9731    -0.1655 C.2     
   5 N5             1.4517    -0.1177     0.2415 N.2     
   6 C6             3.4764     1.1110    -0.3336 C.ar    
   7 C7            -1.0695     1.5467    -1.4058 C.ar    
   8 C8            -0.5051    -0.1356     1.7403 C.3     
   9 C9             1.4898     3.3321    -0.9010 C.3     
  10 C10            1.5883     4.2700     0.2745 C.ar    
  11 C11           -2.4204     1.8282    -1.3246 C.ar    
  12 C12           -3.1896     1.8623    -2.4727 C.ar    
  13 C13           -2.6077     1.6153    -3.7021 C.ar    
  14 C14           -1.2566     1.3347    -3.7834 C.ar    
  15 C15           -0.4866     1.3049    -2.6357 C.ar    
  16 C16            2.8148     4.5131     0.8639 C.ar    
  17 C17            0.4529     4.8917     0.7597 C.ar    
  18 C18            0.5432     5.7520     1.8379 C.ar    
  19 C19            1.7688     5.9903     2.4312 C.ar    
  20 C20            2.9051     5.3734     1.9421 C.ar    
  21 C21            4.3436     0.5825     0.6223 C.ar    
  22 C22            5.7075     0.7142     0.4602 C.ar    
  23 C23            6.2153     1.3693    -0.6474 C.ar    
  24 C24            5.3601     1.8960    -1.5988 C.ar    
  25 C25            3.9944     1.7649    -1.4511 C.ar    
  26 C26           -0.1585    -1.5476     2.2168 C.3     
  27 C27           -0.6501    -1.7360     3.6289 C.2     
  28 O28           -1.2193    -0.8336     4.1959 O.2     
  29 O29           -0.4557    -2.9064     4.2567 O.3     
  30 C30           -0.9558    -3.0167     5.6154 C.3     
  31 C31           -0.6973    -0.9065    -0.6246 C.2     
  32 O32           -1.8342    -1.2503    -0.4029 O.2     
  33 O33           -0.0501    -1.3817    -1.7002 O.3     
  34 H34           -0.6949     2.0967     0.6383 H       
  35 H35           -0.0268     0.5955     2.3921 H       
  36 H36           -1.5858     0.0030     1.7703 H       
  37 H37            2.4500     3.2921    -1.4153 H       
  38 H38            0.7239     3.6906    -1.5887 H       
  39 H39           -2.8750     2.0212    -0.3641 H       
  40 H40           -4.2452     2.0815    -2.4092 H       
  41 H41           -3.2088     1.6413    -4.5990 H       
  42 H42           -0.8020     1.1414    -4.7438 H       
  43 H43            0.5691     1.0857    -2.6992 H       
  44 H44            3.7024     4.0306     0.4822 H       
  45 H45           -0.5046     4.7055     0.2961 H       
  46 H46           -0.3437     6.2382     2.2165 H       
  47 H47            1.8395     6.6628     3.2733 H       
  48 H48            3.8627     5.5596     2.4056 H       
  49 H49            3.9483     0.0715     1.4878 H       
  50 H50            6.3801     0.3053     1.1997 H       
  51 H51            7.2836     1.4701    -0.7698 H       
  52 H52            5.7624     2.4067    -2.4612 H       
  53 H53            3.3278     2.1762    -2.1947 H       
  54 H54           -0.6368    -2.2787     1.5650 H       
  55 H55            0.9222    -1.6862     2.1868 H       
  56 H56           -2.0341    -2.8576     5.6197 H       
  57 H57           -0.7335    -4.0102     6.0048 H       
  58 H58           -0.4751    -2.2651     6.2416 H       
  59 H59           -0.5347    -1.9962    -2.2682 H       
@<TRIPOS>BOND
   1    1    2 1
   2    1    3 1
   3    1    7 1
   4    1   34 1
   5    2    8 1
   6    2   31 1
   7    2    5 1
   8    3    4 1
   9    3    9 1
  10    4    5 2
  11    4    6 1
  12    6   21 ar
  13    6   25 ar
  14    7   11 ar
  15    7   15 ar
  16    8   26 1
  17    8   35 1
  18    8   36 1
  19    9   10 1
  20    9   37 1
  21    9   38 1
  22   10   16 ar
  23   10   17 ar
  24   11   12 ar
  25   11   39 1
  26   12   13 ar
  27   12   40 1
  28   13   14 ar
  29   13   41 1
  30   14   15 ar
  31   14   42 1
  32   15   43 1
  33   16   20 ar
  34   16   44 1
  35   17   18 ar
  36   17   45 1
  37   18   19 ar
  38   18   46 1
  39   19   20 ar
  40   19   47 1
  41   20   48 1
  42   21   22 ar
  43   21   49 1
  44   22   23 ar
  45   22   50 1
  46   23   24 ar
  47   23   51 1
  48   24   25 ar
  49   24   52 1
  50   25   53 1
  51   26   27 1
  52   26   54 1
  53   26   55 1
  54   27   28 2
  55   27   29 1
  56   29   30 1
  57   30   56 1
  58   30   57 1
  59   30   58 1
  60   31   32 2
  61   31   33 1
  62   33   59 1

#	End of record

