#	Name: ASD01120327
#	Creating user name:	WinNT
#	Creation time:	15. 06. 2019 18:59

#	Modifying user name:	WinNT
#	Modification time:	15. 06. 2019 18:59

#	Program:	/corina/corina34_cracker 3.40 0067  02.08.2006

@<TRIPOS>MOLECULE
ASD01120327
  32   34    0    0    0
SMALL
NO_CHARGES


@<TRIPOS>ATOM
   1 N1             0.0175    -1.1399    -0.0042 N.1     
   2 C2             0.0021    -0.0041     0.0020 C.1     
   3 C3            -0.0173     1.4278     0.0099 C.ar    
   4 C4             1.1817     2.1444     0.0023 C.ar    
   5 C5             1.1637     3.5250     0.0099 C.ar    
   6 C6            -0.0375     4.2059     0.0256 C.ar    
   7 C7            -1.2428     3.5020     0.0333 C.ar    
   8 C8            -1.2331     2.1103     0.0194 C.ar    
   9 C9            -2.5302     4.2351     0.0506 C.ar    
  10 C10           -3.5277     3.9175    -0.8590 C.ar    
  11 C11           -4.7328     4.6026    -0.8440 C.ar    
  12 C12           -4.9618     5.6076     0.0705 C.ar    
  13 C13           -3.9796     5.9498     0.9962 C.ar    
  14 C14           -2.7535     5.2584     0.9967 C.ar    
  15 C15           -1.9651     5.8126     2.0290 C.2     
  16 C16           -2.6924     6.7977     2.6228 C.2     
  17 N17           -3.9243     6.8851     2.0029 N.pl3   
  18 C18           -2.2424     7.6303     3.7455 C.2     
  19 O19           -1.1353     7.4646     4.2198 O.2     
  20 O20           -3.0572     8.5789     4.2504 O.3     
  21 N21           -6.2561     6.3260     0.0684 N.pl3   
  22 O22           -7.1165     6.0285    -0.7407 O.2     
  23 O23           -6.4606     7.2146     0.8759 O.2     
  24 H24            2.1245     1.6177    -0.0092 H       
  25 H25            2.0933     4.0748     0.0040 H       
  26 H26           -0.0444     5.2859     0.0322 H       
  27 H27           -2.1632     1.5613     0.0249 H       
  28 H28           -3.3648     3.1327    -1.5829 H       
  29 H29           -5.5014     4.3459    -1.5580 H       
  30 H30           -0.9646     5.5088     2.2993 H       
  31 H31           -4.6310     7.5074     2.2355 H       
  32 H32           -2.7171     9.1019     4.9892 H       
@<TRIPOS>BOND
   1    1    2 3
   2    2    3 1
   3    3    4 ar
   4    3    8 ar
   5    4    5 ar
   6    4   24 1
   7    5    6 ar
   8    5   25 1
   9    6    7 ar
  10    6   26 1
  11    7    8 ar
  12    7    9 1
  13    8   27 1
  14    9   10 ar
  15    9   14 ar
  16   10   11 ar
  17   10   28 1
  18   11   12 ar
  19   11   29 1
  20   12   13 ar
  21   12   21 1
  22   13   14 ar
  23   13   17 1
  24   14   15 1
  25   15   16 2
  26   15   30 1
  27   16   17 1
  28   16   18 1
  29   17   31 1
  30   18   19 2
  31   18   20 1
  32   20   32 1
  33   21   22 2
  34   21   23 2

#	End of record

