#	Name: ASD01918598
#	Creating user name:	WinNT
#	Creation time:	15. 06. 2019 20:11

#	Modifying user name:	WinNT
#	Modification time:	15. 06. 2019 20:11

#	Program:	/corina/corina34_cracker 3.40 0067  02.08.2006

@<TRIPOS>MOLECULE
ASD01918598
  37   40    0    0    0
SMALL
NO_CHARGES


@<TRIPOS>ATOM
   1 C1            -0.8426     1.4703     0.0472 C.3     
   2 C2            -0.7837    -0.0355     0.0403 C.2     
   3 C3            -0.9406    -0.7583    -1.0704 C.2     
   4 S4            -0.8006    -2.4606    -0.6388 S.3     
   5 C5            -0.5440    -2.0353     0.9971 C.2     
   6 N6            -0.3352    -2.9391     2.0307 N.am    
   7 C7            -0.3254    -4.2627     1.7768 C.2     
   8 O8            -0.4995    -4.6656     0.6424 O.2     
   9 C9            -0.1040    -5.2212     2.8729 C.2     
  10 C10           -0.0852    -6.5870     2.6275 C.2     
  11 C11            0.1297    -7.4733     3.6996 C.2     
  12 C12            0.3191    -6.9959     4.9756 C.2     
  13 N13            0.3052    -5.6663     5.2414 N.pl3   
  14 N14            0.4671    -4.9237     6.4205 N.2     
  15 C15            0.3588    -3.6576     6.0960 C.2     
  16 N16            0.1394    -3.5496     4.7914 N.2     
  17 C17            0.1071    -4.7539     4.2436 C.2     
  18 C18            0.1516    -8.9328     3.4517 C.2     
  19 C19            1.1610    -9.7939     3.7767 C.2     
  20 C20            0.7796   -11.0729     3.3700 C.2     
  21 N21           -0.4066   -10.9999     2.8218 N.2     
  22 N22           -0.8338    -9.6665     2.8624 N.pl3   
  23 C23           -2.1099    -9.1525     2.3588 C.3     
  24 N24           -0.5672    -0.7460     1.1314 N.2     
  25 H25            0.1552     1.8738    -0.1252 H       
  26 H26           -1.5135     1.8113    -0.7413 H       
  27 H27           -1.2120     1.8151     1.0130 H       
  28 H28           -1.1223    -0.3679    -2.0608 H       
  29 H29           -0.1964    -2.6178     2.9354 H       
  30 H30           -0.2339    -6.9650     1.6268 H       
  31 H31            0.4819    -7.6947     5.7828 H       
  32 H32            0.4358    -2.8296     6.7850 H       
  33 H33            2.0893    -9.5313     4.2622 H       
  34 H34            1.3655   -11.9725     3.4875 H       
  35 H35           -1.9755    -8.7771     1.3444 H       
  36 H36           -2.8484    -9.9542     2.3548 H       
  37 H37           -2.4553    -8.3436     3.0027 H       
@<TRIPOS>BOND
   1    1    2 1
   2    1   25 1
   3    1   26 1
   4    1   27 1
   5    2   24 1
   6    2    3 2
   7    3    4 1
   8    3   28 1
   9    4    5 1
  10    5    6 1
  11    5   24 2
  12    6    7 am
  13    6   29 1
  14    7    8 2
  15    7    9 1
  16    9   17 1
  17    9   10 2
  18   10   11 1
  19   10   30 1
  20   11   12 2
  21   11   18 1
  22   12   13 1
  23   12   31 1
  24   13   17 1
  25   13   14 1
  26   14   15 2
  27   15   16 1
  28   15   32 1
  29   16   17 2
  30   18   22 1
  31   18   19 2
  32   19   20 1
  33   19   33 1
  34   20   21 2
  35   20   34 1
  36   21   22 1
  37   22   23 1
  38   23   35 1
  39   23   36 1
  40   23   37 1

#	End of record

