#	Name: ASD01208512
#	Creating user name:	WinNT
#	Creation time:	15. 06. 2019 19:09

#	Modifying user name:	WinNT
#	Modification time:	15. 06. 2019 19:09

#	Program:	/corina/corina34_cracker 3.40 0067  02.08.2006

@<TRIPOS>MOLECULE
ASD01208512
  17   17    0    0    0
SMALL
NO_CHARGES


@<TRIPOS>ATOM
   1 C1            -0.0168     1.3906     0.0097 C.ar    
   2 C2             0.0021    -0.0041     0.0020 C.ar    
   3 N3             1.1284     2.0712     0.0024 N.ar    
   4 N4             1.1549    -0.6477    -0.0124 N.ar    
   5 C5             2.2938     0.0316    -0.0197 C.ar    
   6 C6             2.2755     1.4277    -0.0120 C.ar    
   7 C7            -1.3063     2.1127     0.0197 C.2     
   8 O8            -2.3502     1.4917     0.0213 O.2     
   9 O9            -1.3239     3.4597     0.0271 O.3     
  10 O10            3.4762    -0.6296    -0.0341 O.3     
  11 C11           -2.6261     4.1019     0.0368 C.3     
  12 H12           -0.9256    -0.5571     0.0083 H       
  13 H13            3.2038     1.9796    -0.0183 H       
  14 H14            3.8112    -0.8171    -0.9216 H       
  15 H15           -3.1834     3.8066    -0.8522 H       
  16 H16           -3.1750     3.7969     0.9277 H       
  17 H17           -2.4974     5.1843     0.0420 H       
@<TRIPOS>BOND
   1    1    2 ar
   2    1    3 ar
   3    1    7 1
   4    2    4 ar
   5    2   12 1
   6    3    6 ar
   7    4    5 ar
   8    5    6 ar
   9    5   10 1
  10    6   13 1
  11    7    8 2
  12    7    9 1
  13    9   11 1
  14   10   14 1
  15   11   15 1
  16   11   16 1
  17   11   17 1

#	End of record

