#	Name: ASD00310294
#	Creating user name:	WinNT
#	Creation time:	15. 06. 2019 18:34

#	Modifying user name:	WinNT
#	Modification time:	15. 06. 2019 18:34

#	Program:	/corina/corina34_cracker 3.40 0067  02.08.2006

@<TRIPOS>MOLECULE
ASD00310294
  23   24    0    0    0
SMALL
NO_CHARGES


@<TRIPOS>ATOM
   1 N1            -0.0162     1.3400     0.0094 N.am    
   2 C2             0.0022    -0.0041     0.0163 C.2     
   3 C3             1.4296    -0.5050     0.0053 C.3     
   4 C4             2.2679     0.7296     0.4104 C.3     
   5 C5             1.3436     1.8916    -0.0162 C.3     
   6 O6            -0.9824    -0.7122     0.0297 O.2     
   7 C7            -1.1823     2.1139     0.0193 C.ar    
   8 C8            -1.0992     3.4956     0.1312 C.ar    
   9 C9            -2.2515     4.2568     0.1408 C.ar    
  10 C10           -3.4879     3.6441     0.0391 C.ar    
  11 C11           -3.5735     2.2676    -0.0720 C.ar    
  12 C12           -2.4242     1.5020    -0.0883 C.ar    
  13 Br13          -5.0634     4.6897     0.0526 Br      
  14 H14            1.5577    -1.3080     0.7312 H       
  15 H15            1.7073    -0.8438    -0.9928 H       
  16 H16            2.4438     0.7458     1.4860 H       
  17 H17            3.2095     0.7588    -0.1378 H       
  18 H18            1.5966     2.2248    -1.0227 H       
  19 H19            1.4283     2.7190     0.6883 H       
  20 H20           -0.1344     3.9744     0.2110 H       
  21 H21           -2.1875     5.3314     0.2281 H       
  22 H22           -4.5399     1.7918    -0.1509 H       
  23 H23           -2.4914     0.4280    -0.1803 H       
@<TRIPOS>BOND
   1    1    2 am
   2    1    5 1
   3    1    7 1
   4    2    3 1
   5    2    6 2
   6    3    4 1
   7    3   14 1
   8    3   15 1
   9    4    5 1
  10    4   16 1
  11    4   17 1
  12    5   18 1
  13    5   19 1
  14    7    8 ar
  15    7   12 ar
  16    8    9 ar
  17    8   20 1
  18    9   10 ar
  19    9   21 1
  20   10   11 ar
  21   10   13 1
  22   11   12 ar
  23   11   22 1
  24   12   23 1

#	End of record

