#	Name: ASD04500009
#	Creating user name:	WinNT
#	Creation time:	15. 06. 2019 20:49

#	Modifying user name:	WinNT
#	Modification time:	15. 06. 2019 20:49

#	Program:	/corina/corina34_cracker 3.40 0067  02.08.2006

@<TRIPOS>MOLECULE
ASD04500009
  89   93    0    0    0
SMALL
NO_CHARGES


@<TRIPOS>ATOM
   1 N1            -0.0241     1.3221    -0.0680 N.2     
   2 C2             0.0153    -0.0078     0.1480 C.ar    
   3 C3             1.2330    -0.6062     0.5458 C.ar    
   4 C4             2.4113     0.2584     0.7070 C.2     
   5 N5             2.2544     1.5803     0.4628 N.am    
   6 C6             1.0367     2.0744     0.0812 C.2     
   7 C7            -1.1198    -0.8077    -0.0120 C.ar    
   8 C8            -1.0376    -2.1622     0.2190 C.ar    
   9 C9             0.1602    -2.7460     0.6100 C.ar    
  10 C10            1.2936    -1.9793     0.7732 C.ar    
  11 C11            0.9138     3.5233    -0.1747 C.ar    
  12 C12            0.4234     3.9788    -1.4010 C.ar    
  13 C13            0.3098     5.3314    -1.6356 C.ar    
  14 C14            0.6826     6.2423    -0.6547 C.ar    
  15 C15            1.1708     5.7933     0.5663 C.ar    
  16 C16            1.2820     4.4423     0.8109 C.ar    
  17 C17            3.3951     2.4880     0.6085 C.3     
  18 C18            4.1546     2.5693    -0.7172 C.3     
  19 C19            5.3459     3.5173    -0.5651 C.3     
  20 C20            6.1054     3.5986    -1.8908 C.3     
  21 C21            7.2967     4.5466    -1.7387 C.3     
  22 C22            8.0562     4.6280    -3.0644 C.3     
  23 N23            9.1969     5.5356    -2.9187 N.pl3   
  24 C24           10.4880     5.2364    -3.1916 C.2     
  25 N25            9.1424     6.7564    -2.5145 N.2     
  26 N26           10.3207     7.2724    -2.5012 N.2     
  27 C27           11.2000     6.3547    -2.9186 C.2     
  28 C28           12.6898     6.5321    -3.0602 C.3     
  29 N29           12.9870     7.1519    -4.3539 N.am    
  30 C30           13.0808     6.3734    -5.4754 C.2     
  31 C31           13.1618     8.4917    -4.4337 C.2     
  32 C32           13.4579     9.0596    -5.7569 C.ar    
  33 N33           13.3432     6.8594    -6.6622 N.2     
  34 C34           13.6548    10.4266    -5.9432 C.ar    
  35 C35           13.9301    10.9048    -7.2058 C.ar    
  36 C36           14.0116    10.0375    -8.2877 C.ar    
  37 C37           13.8221     8.6940    -8.1276 C.ar    
  38 C38           13.5416     8.1780    -6.8588 C.ar    
  39 C39           12.8769     4.9173    -5.3404 C.ar    
  40 C40           11.9087     4.2711    -6.1129 C.ar    
  41 C41           11.7220     2.9124    -5.9843 C.ar    
  42 C42           12.4951     2.1847    -5.0879 C.ar    
  43 C43           13.4592     2.8237    -4.3178 C.ar    
  44 C44           13.6558     4.1812    -4.4442 C.ar    
  45 O45           13.0766     9.1996    -3.4471 O.2     
  46 O46           12.3077     0.8457    -4.9638 O.3     
  47 O47            0.5700     7.5747    -0.8902 O.3     
  48 O48            3.4873    -0.1975     1.0477 O.2     
  49 S49           13.1660     0.0108    -5.9034 S.o2    
  50 S50           -0.7750     8.1628    -0.4880 S.o2    
  51 O51           -0.8672     9.4696    -1.1204 O.co2   
  52 O52           -1.7955     7.2475    -0.9747 O.co2   
  53 O53           -0.7741     8.2577     0.9635 O.co2   
  54 O54           12.6014    -1.3298    -5.9073 O.co2   
  55 O55           13.0882     0.6397    -7.2128 O.co2   
  56 O56           14.5179     0.0323    -5.3669 O.co2   
  57 H57           -2.0571    -0.3650    -0.3150 H       
  58 H58           -1.9157    -2.7786     0.0949 H       
  59 H59            0.2042    -3.8105     0.7867 H       
  60 H60            2.2221    -2.4395     1.0772 H       
  61 H61            0.1342     3.2715    -2.1642 H       
  62 H62           -0.0691     5.6844    -2.5834 H       
  63 H63            1.4594     6.5045     1.3261 H       
  64 H64            1.6573     4.0940     1.7619 H       
  65 H65            3.0371     3.4801     0.8836 H       
  66 H66            4.0606     2.1132     1.3861 H       
  67 H67            4.5125     1.5772    -0.9924 H       
  68 H68            3.4890     2.9441    -1.4949 H       
  69 H69            4.9879     4.5094    -0.2900 H       
  70 H70            6.0114     3.1425     0.2125 H       
  71 H71            6.4633     2.6065    -2.1660 H       
  72 H72            5.4398     3.9734    -2.6684 H       
  73 H73            6.9387     5.5387    -1.4635 H       
  74 H74            7.9622     4.1718    -0.9611 H       
  75 H75            8.4141     3.6359    -3.3396 H       
  76 H76            7.3906     5.0027    -3.8420 H       
  77 H77           10.8730     4.2947    -3.5539 H       
  78 H78           13.0573     7.1719    -2.2578 H       
  79 H79           13.1786     5.5596    -3.0023 H       
  80 H80           13.5917    11.1053    -5.1054 H       
  81 H81           14.0835    11.9633    -7.3556 H       
  82 H82           14.2277    10.4310    -9.2699 H       
  83 H83           13.8884     8.0325    -8.9787 H       
  84 H84           11.3072     4.8361    -6.8095 H       
  85 H85           10.9734     2.4121    -6.5808 H       
  86 H86           14.0578     2.2546    -3.6220 H       
  87 H87           14.4081     4.6764    -3.8483 H       
  88 Na88          19.5179    16.9633     6.7619 Du      
  89 Na89          24.5179    21.9633    11.7619 Du      
@<TRIPOS>BOND
   1    1    2 1
   2    1    6 2
   3    2    3 ar
   4    2    7 ar
   5    3    4 1
   6    3   10 ar
   7    4    5 am
   8    4   48 2
   9    5    6 1
  10    5   17 1
  11    6   11 1
  12    7    8 ar
  13    7   57 1
  14    8    9 ar
  15    8   58 1
  16    9   10 ar
  17    9   59 1
  18   10   60 1
  19   11   12 ar
  20   11   16 ar
  21   12   13 ar
  22   12   61 1
  23   13   14 ar
  24   13   62 1
  25   14   15 ar
  26   14   47 1
  27   15   16 ar
  28   15   63 1
  29   16   64 1
  30   17   18 1
  31   17   65 1
  32   17   66 1
  33   18   19 1
  34   18   67 1
  35   18   68 1
  36   19   20 1
  37   19   69 1
  38   19   70 1
  39   20   21 1
  40   20   71 1
  41   20   72 1
  42   21   22 1
  43   21   73 1
  44   21   74 1
  45   22   23 1
  46   22   75 1
  47   22   76 1
  48   23   25 1
  49   23   24 1
  50   24   27 2
  51   24   77 1
  52   25   26 2
  53   26   27 1
  54   27   28 1
  55   28   29 1
  56   28   78 1
  57   28   79 1
  58   29   31 am
  59   29   30 1
  60   30   33 2
  61   30   39 1
  62   31   32 1
  63   31   45 2
  64   32   34 ar
  65   32   38 ar
  66   33   38 1
  67   34   35 ar
  68   34   80 1
  69   35   36 ar
  70   35   81 1
  71   36   37 ar
  72   36   82 1
  73   37   38 ar
  74   37   83 1
  75   39   40 ar
  76   39   44 ar
  77   40   41 ar
  78   40   84 1
  79   41   42 ar
  80   41   85 1
  81   42   43 ar
  82   42   46 1
  83   43   44 ar
  84   43   86 1
  85   44   87 1
  86   46   49 1
  87   47   50 1
  88   49   54 ar
  89   49   55 ar
  90   49   56 ar
  91   50   51 ar
  92   50   52 ar
  93   50   53 ar

#	End of record

