#	Name: ASD00510008
#	Creating user name:	WinNT
#	Creation time:	15. 06. 2019 18:36

#	Modifying user name:	WinNT
#	Modification time:	15. 06. 2019 18:36

#	Program:	/corina/corina34_cracker 3.40 0067  02.08.2006

@<TRIPOS>MOLECULE
ASD00510008
  44   47    0    0    0
SMALL
NO_CHARGES


@<TRIPOS>ATOM
   1 C1            -0.0169     1.3952     0.0097 C.ar    
   2 C2             0.0021    -0.0041     0.0020 C.ar    
   3 C3             1.1964    -0.6620    -0.0129 C.ar    
   4 C4             2.3990     0.0400    -0.0205 C.ar    
   5 C5             2.4162     1.4019    -0.0134 C.ar    
   6 C6             1.2039     2.1123     0.0019 C.ar    
   7 C7             1.1825     3.5186     0.0091 C.ar    
   8 C8             0.0048     4.1971     0.0239 C.ar    
   9 C9            -1.2230     3.5371     0.0326 C.ar    
  10 C10           -1.2751     2.1411     0.0196 C.ar    
  11 N11           -2.4684     1.4904     0.0218 N.2     
  12 N12           -3.5695     2.1624     0.0306 N.2     
  13 C13           -4.7629     1.5117     0.0327 C.ar    
  14 C14           -7.2419     1.5406     0.0444 C.ar    
  15 C15           -7.2205     0.1342     0.0373 C.ar    
  16 C16           -6.0427    -0.5443     0.0334 C.ar    
  17 C17           -4.8149     0.1157     0.0312 C.ar    
  18 C18           -6.0211     2.2576     0.0426 C.ar    
  19 C19           -6.0402     3.6569     0.0508 C.ar    
  20 C20           -7.2347     4.3147     0.0603 C.ar    
  21 C21           -8.4372     3.6127     0.0620 C.ar    
  22 C22           -8.4542     2.2509     0.0547 C.ar    
  23 O23           -2.3746     4.2549     0.0479 O.3     
  24 S24            2.7013     4.4120    -0.0007 S.o2    
  25 O25            2.9820     4.7409     1.3529 O.2     
  26 O26            3.5953     3.6745    -0.8229 O.2     
  27 O27            2.4445     5.7292    -0.7188 O.3     
  28 N28            3.6784    -0.7054    -0.0361 N.pl3   
  29 O29            3.6736    -1.9233    -0.0422 O.2     
  30 O30            4.7356    -0.1005    -0.0429 O.2     
  31 O31           -3.6632    -0.6022     0.0273 O.3     
  32 H32           -0.9240    -0.5598     0.0082 H       
  33 H33            1.2099    -1.7419    -0.0184 H       
  34 H34            3.3565     1.9329    -0.0191 H       
  35 H35            0.0207     5.2770     0.0294 H       
  36 H36           -8.1514    -0.4134     0.0386 H       
  37 H37           -6.0586    -1.6242     0.0282 H       
  38 H38           -5.1142     4.2127     0.0499 H       
  39 H39           -7.2482     5.3946     0.0670 H       
  40 H40           -9.3705     4.1563     0.0696 H       
  41 H41           -9.3946     1.7197     0.0558 H       
  42 H42           -2.7171     4.4677    -0.8310 H       
  43 H43            3.2215     6.3016    -0.7803 H       
  44 H44           -3.3317    -0.8089    -0.8573 H       
@<TRIPOS>BOND
   1    1    2 ar
   2    1    6 ar
   3    1   10 ar
   4    2    3 ar
   5    2   32 1
   6    3    4 ar
   7    3   33 1
   8    4    5 ar
   9    4   28 1
  10    5    6 ar
  11    5   34 1
  12    6    7 ar
  13    7    8 ar
  14    7   24 1
  15    8    9 ar
  16    8   35 1
  17    9   10 ar
  18    9   23 1
  19   10   11 1
  20   11   12 2
  21   12   13 1
  22   13   18 ar
  23   13   17 ar
  24   14   15 ar
  25   14   18 ar
  26   14   22 ar
  27   15   16 ar
  28   15   36 1
  29   16   17 ar
  30   16   37 1
  31   17   31 1
  32   18   19 ar
  33   19   20 ar
  34   19   38 1
  35   20   21 ar
  36   20   39 1
  37   21   22 ar
  38   21   40 1
  39   22   41 1
  40   23   42 1
  41   24   25 2
  42   24   26 2
  43   24   27 1
  44   27   43 1
  45   28   29 2
  46   28   30 2
  47   31   44 1

#	End of record

