#	Name: ASD01940307
#	Creating user name:	WinNT
#	Creation time:	15. 06. 2019 20:12

#	Modifying user name:	WinNT
#	Modification time:	15. 06. 2019 20:12

#	Program:	/corina/corina34_cracker 3.40 0067  02.08.2006

@<TRIPOS>MOLECULE
ASD01940307
  24   23    0    0    0
SMALL
NO_CHARGES


@<TRIPOS>ATOM
   1 C1            -0.0184     1.5028     0.0103 C.2     
   2 C2             0.0021    -0.0041     0.0020 C.3     
   3 C3             1.4295    -0.4870    -0.0142 C.2     
   4 O4             1.0197     2.1211     0.0037 O.2     
   5 O5            -1.1898     2.1580     0.0194 O.3     
   6 O6             2.3371     0.3106    -0.0186 O.2     
   7 O7             1.6926    -1.8032    -0.0238 O.3     
   8 C8            -0.7002    -0.5305     1.2552 C.3     
   9 C9            -2.1581    -0.1513     1.2108 C.2     
  10 C10           -3.0418    -0.9983     0.7405 C.2     
  11 Br11          -2.7130     1.5458     1.8333 Br      
  12 C12           -1.1335     3.6089     0.0270 C.3     
  13 C13            3.0904    -2.1959    -0.0392 C.3     
  14 H14           -0.5153    -0.3696    -0.8850 H       
  15 H15           -0.6082    -1.6159     1.2944 H       
  16 H16           -0.2382    -0.0945     2.1409 H       
  17 H17           -2.7249    -1.9676     0.3850 H       
  18 H18           -4.0865    -0.7265     0.7087 H       
  19 H19           -0.6017     3.9472     0.9164 H       
  20 H20           -0.6102     3.9569    -0.8636 H       
  21 H21           -2.1463     4.0118     0.0340 H       
  22 H22            3.5707    -1.7947    -0.9317 H       
  23 H23            3.5877    -1.8043     0.8481 H       
  24 H24            3.1622    -3.2835    -0.0458 H       
@<TRIPOS>BOND
   1    1    2 1
   2    1    4 2
   3    1    5 1
   4    2    3 1
   5    2    8 1
   6    2   14 1
   7    3    6 2
   8    3    7 1
   9    5   12 1
  10    7   13 1
  11    8    9 1
  12    8   15 1
  13    8   16 1
  14    9   10 2
  15    9   11 1
  16   10   17 1
  17   10   18 1
  18   12   19 1
  19   12   20 1
  20   12   21 1
  21   13   22 1
  22   13   23 1
  23   13   24 1

#	End of record

