#	Name: ASD08390026
#	Creating user name:	WinNT
#	Creation time:	15. 06. 2019 21:19

#	Modifying user name:	WinNT
#	Modification time:	15. 06. 2019 21:19

#	Program:	/corina/corina34_cracker 3.40 0067  02.08.2006

@<TRIPOS>MOLECULE
ASD08390026
  57   61    0    0    0
SMALL
NO_CHARGES


@<TRIPOS>ATOM
   1 N1            -0.0690     1.5454    -0.4107 N.2     
   2 C2             0.0045     0.1010    -0.1512 C.3     
   3 C3             1.4984    -0.1528     0.1323 C.3     
   4 N4             2.0997     1.1847    -0.0005 N.pl3   
   5 C5             1.1053     2.0752    -0.3130 C.2     
   6 C6             3.5181     1.5084     0.1717 C.3     
   7 C7             1.6915    -0.6863     1.5284 C.ar    
   8 C8             1.3555     3.5199    -0.5206 C.ar    
   9 C9             0.7504     4.1896    -1.5837 C.ar    
  10 C10            0.9875     5.5358    -1.7720 C.ar    
  11 C11            1.8239     6.2210    -0.9090 C.ar    
  12 C12            2.4274     5.5621     0.1471 C.ar    
  13 C13            2.1928     4.2175     0.3497 C.ar    
  14 C14            1.8934    -2.0390     1.7296 C.ar    
  15 C15            1.6722     0.1777     2.6073 C.ar    
  16 C16            1.8493    -0.3117     3.8879 C.ar    
  17 C17            2.0452    -1.6651     4.0897 C.ar    
  18 C18            2.0705    -2.5283     3.0103 C.ar    
  19 C19            4.2533     1.2465    -1.1174 C.ar    
  20 C20            4.4668     2.2775    -2.0131 C.ar    
  21 C21            5.1412     2.0372    -3.1956 C.ar    
  22 C22            5.6025     0.7660    -3.4822 C.ar    
  23 C23            5.3898    -0.2648    -2.5861 C.ar    
  24 C24            4.7192    -0.0236    -1.4016 C.ar    
  25 C25           -1.3087     0.7290     1.8851 C.ar    
  26 C26           -2.0731     0.3951     2.9873 C.ar    
  27 C27           -0.8302    -0.2629     1.0496 C.ar    
  28 C28           -1.1177    -1.5887     1.3154 C.ar    
  29 C29           -1.8833    -1.9225     2.4169 C.ar    
  30 C30           -2.3610    -0.9306     3.2529 C.ar    
  31 C31           -0.4428    -0.6766    -1.3621 C.2     
  32 O32            0.1011    -1.7173    -1.6466 O.2     
  33 O33           -1.4455    -0.2130    -2.1247 O.3     
  34 H34            1.9185    -0.8382    -0.6039 H       
  35 H35            3.6207     2.5596     0.4414 H       
  36 H36            3.9390     0.8877     0.9627 H       
  37 H37            0.0979     3.6555    -2.2585 H       
  38 H38            0.5195     6.0555    -2.5949 H       
  39 H39            2.0067     7.2746    -1.0606 H       
  40 H40            3.0796     6.1023     0.8173 H       
  41 H41            2.6603     3.7053     1.1776 H       
  42 H42            1.9126    -2.7134     0.8864 H       
  43 H43            1.5192     1.2351     2.4496 H       
  44 H44            1.8350     0.3634     4.7308 H       
  45 H45            2.1840    -2.0474     5.0902 H       
  46 H46            2.2236    -3.5858     3.1679 H       
  47 H47            4.1064     3.2707    -1.7892 H       
  48 H48            5.3074     2.8425    -3.8958 H       
  49 H49            6.1287     0.5781    -4.4064 H       
  50 H50            5.7499    -1.2581    -2.8101 H       
  51 H51            4.5530    -0.8289    -0.7014 H       
  52 H52           -1.0875     1.7651     1.6751 H       
  53 H53           -2.4466     1.1700     3.6403 H       
  54 H54           -0.7444    -2.3636     0.6623 H       
  55 H55           -2.1085    -2.9582     2.6242 H       
  56 H56           -2.9594    -1.1914     4.1132 H       
  57 H57           -1.6971    -0.7465    -2.8909 H       
@<TRIPOS>BOND
   1    1    2 1
   2    1    5 2
   3    2    3 1
   4    2   27 1
   5    2   31 1
   6    3    4 1
   7    3    7 1
   8    3   34 1
   9    4    5 1
  10    4    6 1
  11    5    8 1
  12    6   19 1
  13    6   35 1
  14    6   36 1
  15    7   14 ar
  16    7   15 ar
  17    8    9 ar
  18    8   13 ar
  19    9   10 ar
  20    9   37 1
  21   10   11 ar
  22   10   38 1
  23   11   12 ar
  24   11   39 1
  25   12   13 ar
  26   12   40 1
  27   13   41 1
  28   14   18 ar
  29   14   42 1
  30   15   16 ar
  31   15   43 1
  32   16   17 ar
  33   16   44 1
  34   17   18 ar
  35   17   45 1
  36   18   46 1
  37   19   20 ar
  38   19   24 ar
  39   20   21 ar
  40   20   47 1
  41   21   22 ar
  42   21   48 1
  43   22   23 ar
  44   22   49 1
  45   23   24 ar
  46   23   50 1
  47   24   51 1
  48   25   26 ar
  49   25   27 ar
  50   25   52 1
  51   26   30 ar
  52   26   53 1
  53   27   28 ar
  54   28   29 ar
  55   28   54 1
  56   29   30 ar
  57   29   55 1
  58   30   56 1
  59   31   32 2
  60   31   33 1
  61   33   57 1

#	End of record

