#	Name: ASD03092790
#	Creating user name:	WinNT
#	Creation time:	15. 06. 2019 20:33

#	Modifying user name:	WinNT
#	Modification time:	15. 06. 2019 20:33

#	Program:	/corina/corina34_cracker 3.40 0067  02.08.2006

@<TRIPOS>MOLECULE
ASD03092790
  60   63    0    0    0
SMALL
NO_CHARGES


@<TRIPOS>ATOM
   1 C1            -0.0184     1.5028     0.0103 C.3     
   2 C2             0.0021    -0.0041     0.0020 C.ar    
   3 C3             0.0056    -0.6778    -1.2014 C.ar    
   4 C4             0.0251    -2.0761    -1.1959 C.ar    
   5 C5             0.0402    -2.7315     0.0394 C.ar    
   6 C6             0.0354    -1.9797     1.1956 C.ar    
   7 C7             0.0521    -2.6733     2.5334 C.3     
   8 N8             0.0219    -0.6611     1.1462 N.ar    
   9 C9             0.0291    -2.8426    -2.4646 C.ar    
  10 C10           -1.0695    -2.7779    -3.3245 C.ar    
  11 F11           -2.1375    -2.0162    -3.0016 F       
  12 C12           -1.0622    -3.4934    -4.5056 C.ar    
  13 C13            0.0369    -4.2764    -4.8374 C.ar    
  14 C14            1.1314    -4.3418    -3.9814 C.ar    
  15 C15            1.1322    -3.6252    -2.8046 C.ar    
  16 C16            2.3218    -3.6923    -1.8819 C.3     
  17 N17            2.0409    -4.6278    -0.7901 N.am    
  18 C18            2.9681    -4.8498     0.1625 C.2     
  19 O19            4.0350    -4.2750     0.1159 O.2     
  20 C20            2.6790    -5.8122     1.2856 C.3     
  21 C21            3.8868    -5.8803     2.2224 C.3     
  22 C22            3.6922    -5.4006     3.6621 C.3     
  23 C23            3.8370    -6.8948     3.3666 C.3     
  24 N24            0.0424    -4.9983    -6.0307 N.3     
  25 C25            0.2639    -6.4297    -5.7795 C.3     
  26 C26            0.3221    -7.1739    -7.1161 C.3     
  27 O27           -0.8854    -6.9324    -7.8435 O.3     
  28 C28           -1.1321    -5.5484    -8.1062 C.3     
  29 H29           -0.3230    -5.1434    -8.7140 H       
  30 C30           -1.2051    -4.7877    -6.7796 C.3     
  31 C31           -2.4578    -5.3990    -8.8554 C.3     
  32 F32           -3.4960    -5.9173    -8.0739 F       
  33 F33           -2.6985    -4.0450    -9.1120 F       
  34 F34           -2.3911    -6.0983   -10.0652 F       
  35 H35            1.0042     1.8801     0.0026 H       
  36 H36           -0.5455     1.8639    -0.8728 H       
  37 H37           -0.5286     1.8543     0.9071 H       
  38 H38           -0.0069    -0.1336    -2.1342 H       
  39 H39            0.0551    -3.8103     0.0872 H       
  40 H40            1.0837    -2.8259     2.8507 H       
  41 H41           -0.4668    -2.0578     3.2683 H       
  42 H42           -0.4485    -3.6378     2.4489 H       
  43 H43           -1.9111    -3.4448    -5.1715 H       
  44 H44            1.9838    -4.9518    -4.2418 H       
  45 H45            3.1943    -4.0347    -2.4383 H       
  46 H46            2.5189    -2.7023    -1.4705 H       
  47 H47            1.1875    -5.0875    -0.7528 H       
  48 H48            1.8065    -5.4697     1.8421 H       
  49 H49            2.4820    -6.8021     0.8742 H       
  50 H50            4.8544    -5.6946     1.7562 H       
  51 H51            4.5318    -4.8990     4.1434 H       
  52 H52            2.7036    -5.0364     3.9420 H       
  53 H53            2.9438    -7.5136     3.4521 H       
  54 H54            4.7719    -7.3762     3.6535 H       
  55 H55            1.2052    -6.5644    -5.2466 H       
  56 H56           -0.5551    -6.8248    -5.1783 H       
  57 H57            1.1735    -6.8162    -7.6951 H       
  58 H58            0.4290    -8.2431    -6.9331 H       
  59 H59           -2.0475    -5.1565    -6.1944 H       
  60 H60           -1.3361    -3.7238    -6.9768 H       
@<TRIPOS>BOND
   1    1    2 1
   2    1   35 1
   3    1   36 1
   4    1   37 1
   5    2    8 ar
   6    2    3 ar
   7    3    4 ar
   8    3   38 1
   9    4    5 ar
  10    4    9 1
  11    5    6 ar
  12    5   39 1
  13    6    7 1
  14    6    8 ar
  15    7   40 1
  16    7   41 1
  17    7   42 1
  18    9   15 ar
  19    9   10 ar
  20   10   11 1
  21   10   12 ar
  22   12   13 ar
  23   12   43 1
  24   13   14 ar
  25   13   24 1
  26   14   15 ar
  27   14   44 1
  28   15   16 1
  29   16   17 1
  30   16   45 1
  31   16   46 1
  32   17   18 am
  33   17   47 1
  34   18   19 2
  35   18   20 1
  36   20   21 1
  37   20   48 1
  38   20   49 1
  39   21   23 1
  40   21   22 1
  41   21   50 1
  42   22   23 1
  43   22   51 1
  44   22   52 1
  45   23   53 1
  46   23   54 1
  47   24   30 1
  48   24   25 1
  49   25   26 1
  50   25   55 1
  51   25   56 1
  52   26   27 1
  53   26   57 1
  54   26   58 1
  55   27   28 1
  56   28   29 1
  57   28   30 1
  58   28   31 1
  59   30   59 1
  60   30   60 1
  61   31   32 1
  62   31   33 1
  63   31   34 1

#	End of record

