#	Name: ASD01840060
#	Creating user name:	WinNT
#	Creation time:	15. 06. 2019 19:37

#	Modifying user name:	WinNT
#	Modification time:	15. 06. 2019 19:37

#	Program:	/corina/corina34_cracker 3.40 0067  02.08.2006

@<TRIPOS>MOLECULE
ASD01840060
  34   36    0    0    0
SMALL
NO_CHARGES


@<TRIPOS>ATOM
   1 C1            -0.1508     1.3691     0.7783 C.ar    
   2 C2            -0.1172    -0.0231     0.6973 C.ar    
   3 N3            -1.2109    -0.7137     0.4498 N.ar    
   4 C4            -2.3959    -0.1228     0.2659 C.ar    
   5 C5            -2.5018     1.2700     0.3339 C.ar    
   6 C6            -1.3350     2.0243     0.6045 C.ar    
   7 S7            -3.9698    -0.8330    -0.0731 S.3     
   8 C8            -4.7524     0.7342    -0.1205 C.2     
   9 C9            -3.8608     1.7308     0.1090 C.2     
  10 Cl10           1.3022     2.2611     1.1049 Cl      
  11 O11            1.0585    -0.6747     0.8756 O.3     
  12 C12            1.0310    -2.1003     0.7812 C.3     
  13 C13           -6.1325     0.9339    -0.3659 C.2     
  14 N14           -4.2161     3.0723     0.1276 N.pl3   
  15 N15           -6.9385    -0.1243    -0.5828 N.am    
  16 O16           -6.5914     2.0621    -0.3810 O.2     
  17 C17           -8.3665     0.0824    -0.8366 C.3     
  18 C18           -9.1071    -0.9981    -1.6273 C.3     
  19 C19           -9.3522    -0.8462    -0.1247 C.3     
  20 C20           -1.3974     3.5277     0.6878 C.3     
  21 H21            2.0342    -2.4946     0.9434 H       
  22 H22            0.3562    -2.5015     1.5373 H       
  23 H23            0.6817    -2.3921    -0.2092 H       
  24 H24           -3.6612     3.7145     0.5972 H       
  25 H25           -5.0194     3.3677    -0.3290 H       
  26 H26           -6.5731    -1.0228    -0.5707 H       
  27 H27           -8.6715     1.1173    -0.9913 H       
  28 H28           -9.8996    -0.6739    -2.3018 H       
  29 H29           -8.5319    -1.8626    -1.9585 H       
  30 H30           -8.9383    -1.6109     0.5326 H       
  31 H31          -10.3060    -0.4222     0.1893 H       
  32 H32           -1.7118     3.8234     1.6887 H       
  33 H33           -0.4122     3.9444     0.4785 H       
  34 H34           -2.1134     3.9027    -0.0436 H       
@<TRIPOS>BOND
   1    1    2 ar
   2    1   10 1
   3    1    6 ar
   4    2    3 ar
   5    2   11 1
   6    3    4 ar
   7    4    5 ar
   8    4    7 1
   9    5    6 ar
  10    5    9 1
  11    6   20 1
  12    7    8 1
  13    8    9 2
  14    8   13 1
  15    9   14 1
  16   11   12 1
  17   12   21 1
  18   12   22 1
  19   12   23 1
  20   13   15 am
  21   13   16 2
  22   14   24 1
  23   14   25 1
  24   15   17 1
  25   15   26 1
  26   17   18 1
  27   17   19 1
  28   17   27 1
  29   18   19 1
  30   18   28 1
  31   18   29 1
  32   19   30 1
  33   19   31 1
  34   20   32 1
  35   20   33 1
  36   20   34 1

#	End of record

