#	Name: ASD01910554
#	Creating user name:	WinNT
#	Creation time:	15. 06. 2019 19:56

#	Modifying user name:	WinNT
#	Modification time:	15. 06. 2019 19:56

#	Program:	/corina/corina34_cracker 3.40 0067  02.08.2006

@<TRIPOS>MOLECULE
ASD01910554
  41   44    0    0    0
SMALL
NO_CHARGES


@<TRIPOS>ATOM
   1 N1             0.1153     0.6670    -0.2258 N.2     
   2 C2             0.2547    -0.6355    -0.1938 C.2     
   3 N3             1.5830    -0.8928    -0.1469 N.2     
   4 C4             2.1685     0.2783    -0.1535 C.2     
   5 O5             1.2035     1.2022    -0.2031 O.3     
   6 C6            -0.8333    -1.6354    -0.2059 C.2     
   7 C7            -2.1692    -1.3670    -0.2529 C.2     
   8 C8            -2.8440    -2.5981    -0.2472 C.2     
   9 C9            -1.9120    -3.5772    -0.1973 C.2     
  10 N10           -0.6778    -2.9981    -0.1776 N.pl3   
  11 C11            3.9940     1.3618     1.1321 C.3     
  12 C12            3.6526     0.5365    -0.1126 C.3     
  13 C13            4.0709     1.3116    -1.3642 C.3     
  14 C14            5.5831     1.5457    -1.3397 C.3     
  15 C15            5.9463     2.3824    -0.1089 C.3     
  16 N16            5.4196     1.7146     1.0892 N.am    
  17 C17            6.2288     1.4307     2.1288 C.2     
  18 C18            5.6607     0.8771     3.3802 C.ar    
  19 O19            7.4244     1.6288     2.0399 O.2     
  20 C20            6.3189    -0.1394     4.0798 C.ar    
  21 C21            5.7554    -0.6271     5.2423 C.ar    
  22 N22            4.6133    -0.1481     5.6947 N.ar    
  23 C23            3.9588     0.8107     5.0665 C.ar    
  24 C24            4.4557     1.3603     3.8966 C.ar    
  25 F25           -4.1830    -2.7734    -0.2848 F       
  26 F26            2.7922     1.2651     5.5741 F       
  27 H27           -2.6242    -0.3882    -0.2878 H       
  28 H28           -2.1117    -4.6385    -0.1800 H       
  29 H29            0.1687    -3.4706    -0.1429 H       
  30 H30            3.3927     2.2708     1.1439 H       
  31 H31            3.7897     0.7744     2.0273 H       
  32 H32            4.1867    -0.4130    -0.0773 H       
  33 H33            3.8067     0.7373    -2.2522 H       
  34 H34            3.5551     2.2715    -1.3861 H       
  35 H35            6.0990     0.5867    -1.2928 H       
  36 H36            5.8836     2.0773    -2.2426 H       
  37 H37            7.0302     2.4685    -0.0325 H       
  38 H38            5.5043     3.3747    -0.1982 H       
  39 H39            7.2545    -0.5376     3.7159 H       
  40 H40            6.2570    -1.4123     5.7885 H       
  41 H41            3.9161     2.1449     3.3870 H       
@<TRIPOS>BOND
   1    1    2 2
   2    1    5 1
   3    2    3 1
   4    2    6 1
   5    3    4 2
   6    4    5 1
   7    4   12 1
   8    6    7 2
   9    6   10 1
  10    7    8 1
  11    7   27 1
  12    8    9 2
  13    8   25 1
  14    9   10 1
  15    9   28 1
  16   10   29 1
  17   11   12 1
  18   11   16 1
  19   11   30 1
  20   11   31 1
  21   12   13 1
  22   12   32 1
  23   13   14 1
  24   13   33 1
  25   13   34 1
  26   14   15 1
  27   14   35 1
  28   14   36 1
  29   15   16 1
  30   15   37 1
  31   15   38 1
  32   16   17 am
  33   17   18 1
  34   17   19 2
  35   18   20 ar
  36   18   24 ar
  37   20   21 ar
  38   20   39 1
  39   21   22 ar
  40   21   40 1
  41   22   23 ar
  42   23   24 ar
  43   23   26 1
  44   24   41 1

#	End of record

