#	Name: ASD01911103
#	Creating user name:	WinNT
#	Creation time:	15. 06. 2019 19:57

#	Modifying user name:	WinNT
#	Modification time:	15. 06. 2019 19:57

#	Program:	/corina/corina34_cracker 3.40 0067  02.08.2006

@<TRIPOS>MOLECULE
ASD01911103
  50   54    0    0    0
SMALL
NO_CHARGES


@<TRIPOS>ATOM
   1 C1             0.3341     1.4617    -0.4271 C.2     
   2 O2             1.2328     2.1964    -0.0608 O.2     
   3 S3            -0.6230    -1.2539    -0.4170 S.3     
   4 C4             0.5702    -2.4322    -0.7476 C.2     
   5 N5             1.7277    -1.8659    -0.9488 N.2     
   6 C6             1.7787    -0.5626    -0.8682 C.2     
   7 C7             0.5778     0.0255    -0.5773 C.2     
   8 N8            -0.8867     1.9690    -0.6890 N.am    
   9 C9            -1.9477     1.1178    -1.2445 C.3     
  10 C10           -2.4962     1.7785    -2.5132 C.3     
  11 C11           -2.9412     3.2063    -2.1885 C.3     
  12 C12           -1.7392     4.0189    -1.7018 C.3     
  13 C13           -1.1838     3.3823    -0.4187 C.3     
  14 O14           -4.8122     0.7456    -2.3662 O.3     
  15 N15           -5.5546     0.0803    -3.0571 N.2     
  16 C16           -4.9920    -0.1736    -4.2065 C.2     
  17 N17           -3.7754     0.4091    -4.1944 N.2     
  18 C18           -3.6738     0.9882    -3.0229 C.2     
  19 O19           -5.5301    -0.8902    -5.2244 O.3     
  20 C20           -6.8292    -1.2746    -5.1170 C.ar    
  21 C21           -7.6092    -0.8031    -4.0709 C.ar    
  22 C22           -8.9294    -1.1954    -3.9639 C.ar    
  23 C23           -9.4736    -2.0575    -4.8980 C.ar    
  24 C24           -8.6983    -2.5292    -5.9412 C.ar    
  25 C25           -7.3794    -2.1347    -6.0564 C.ar    
  26 O26            0.5326    -6.0350    -0.9906 O.3     
  27 N27           -0.6330    -5.8457    -0.7352 N.2     
  28 C28           -0.9025    -4.5828    -0.5912 C.2     
  29 C29            0.3250    -3.8875    -0.7980 C.2     
  30 C30            1.2232    -4.8902    -1.0545 C.2     
  31 C31            2.6931    -4.7352    -1.3485 C.3     
  32 H32            2.6880     0.0004    -1.0180 H       
  33 H33           -1.5387     0.1378    -1.4904 H       
  34 H34           -2.7490     1.0088    -0.5136 H       
  35 H35           -1.7175     1.8046    -3.2755 H       
  36 H36           -3.3547     3.6703    -3.0839 H       
  37 H37           -3.7022     3.1809    -1.4085 H       
  38 H38           -0.9677     4.0239    -2.4717 H       
  39 H39           -2.0521     5.0419    -1.4930 H       
  40 H40           -1.9240     3.4542     0.3782 H       
  41 H41           -0.2707     3.8969    -0.1195 H       
  42 H42           -7.1845    -0.1303    -3.3406 H       
  43 H43           -9.5370    -0.8287    -3.1498 H       
  44 H44          -10.5058    -2.3633    -4.8124 H       
  45 H45           -9.1254    -3.2030    -6.6691 H       
  46 H46           -6.7756    -2.4996    -6.8741 H       
  47 H47           -1.8636    -4.1471    -0.3611 H       
  48 H48            3.1371    -5.7177    -1.5090 H       
  49 H49            2.8224    -4.1273    -2.2439 H       
  50 H50            3.1829    -4.2486    -0.5051 H       
@<TRIPOS>BOND
   1    1    2 2
   2    1    7 1
   3    1    8 am
   4    3    4 1
   5    3    7 1
   6    4    5 2
   7    4   29 1
   8    5    6 1
   9    6    7 2
  10    6   32 1
  11    8    9 1
  12    8   13 1
  13    9   10 1
  14    9   33 1
  15    9   34 1
  16   10   11 1
  17   10   18 1
  18   10   35 1
  19   11   12 1
  20   11   36 1
  21   11   37 1
  22   12   13 1
  23   12   38 1
  24   12   39 1
  25   13   40 1
  26   13   41 1
  27   14   15 1
  28   14   18 1
  29   15   16 2
  30   16   17 1
  31   16   19 1
  32   17   18 2
  33   19   20 1
  34   20   21 ar
  35   20   25 ar
  36   21   22 ar
  37   21   42 1
  38   22   23 ar
  39   22   43 1
  40   23   24 ar
  41   23   44 1
  42   24   25 ar
  43   24   45 1
  44   25   46 1
  45   26   27 1
  46   26   30 1
  47   27   28 2
  48   28   29 1
  49   28   47 1
  50   29   30 2
  51   30   31 1
  52   31   48 1
  53   31   49 1
  54   31   50 1

#	End of record

