#	Name: ASD01410389
#	Creating user name:	WinNT
#	Creation time:	15. 06. 2019 19:17

#	Modifying user name:	WinNT
#	Modification time:	15. 06. 2019 19:17

#	Program:	/corina/corina34_cracker 3.40 0067  02.08.2006

@<TRIPOS>MOLECULE
ASD01410389
  36   38    0    0    0
SMALL
NO_CHARGES


@<TRIPOS>ATOM
   1 S1             0.0615     1.7566    -0.6227 S.3     
   2 C2             0.1471     0.0035    -0.8677 C.2     
   3 N3             1.4256    -0.3516    -0.6969 N.am    
   4 C4             2.3251     0.5724    -0.4027 C.2     
   5 C5             1.7960     1.9383    -0.2927 C.2     
   6 O6             3.5017     0.3108    -0.2358 O.2     
   7 S7            -1.1576    -1.0373    -1.2492 S.2     
   8 C8             2.4762     3.0763    -0.0057 C.2     
   9 C9             1.8032     4.3791    -0.1035 C.ar    
  10 C10            2.3160     5.4885     0.5785 C.ar    
  11 C11            1.6794     6.7070     0.4820 C.ar    
  12 C12            0.5345     6.8354    -0.2878 C.ar    
  13 C13            0.0209     5.7417    -0.9659 C.ar    
  14 C14            0.6497     4.5180    -0.8838 C.ar    
  15 Cl15          -0.2607     8.3742    -0.4029 Cl      
  16 N16            1.8089    -1.6927    -0.8283 N.am    
  17 S17            2.2801    -2.2784    -2.3038 S.o2    
  18 O18            2.7448    -3.6025    -2.0801 O.2     
  19 O19            1.2338    -1.9651    -3.2127 O.2     
  20 C20            3.6807    -1.3392    -2.8146 C.ar    
  21 C21            4.9539    -1.7551    -2.4725 C.ar    
  22 C22            6.0527    -1.0182    -2.8733 C.ar    
  23 C23            5.8783     0.1342    -3.6165 C.ar    
  24 C24            4.6052     0.5496    -3.9594 C.ar    
  25 C25            3.5067    -0.1896    -3.5623 C.ar    
  26 H26            3.5123     3.0248     0.2946 H       
  27 H27            3.2081     5.3898     1.1792 H       
  28 H28            2.0737     7.5639     1.0080 H       
  29 H29           -0.8721     5.8493    -1.5638 H       
  30 H30            0.2508     3.6675    -1.4165 H       
  31 H31            1.7982    -2.2781    -0.0550 H       
  32 H32            5.0901    -2.6554    -1.8919 H       
  33 H33            7.0473    -1.3427    -2.6054 H       
  34 H34            6.7368     0.7103    -3.9289 H       
  35 H35            4.4690     1.4501    -4.5397 H       
  36 H36            2.5120     0.1349    -3.8302 H       
@<TRIPOS>BOND
   1    1    2 1
   2    1    5 1
   3    2    3 am
   4    2    7 2
   5    3    4 am
   6    3   16 1
   7    4    5 1
   8    4    6 2
   9    5    8 2
  10    8    9 1
  11    8   26 1
  12    9   10 ar
  13    9   14 ar
  14   10   11 ar
  15   10   27 1
  16   11   12 ar
  17   11   28 1
  18   12   13 ar
  19   12   15 1
  20   13   14 ar
  21   13   29 1
  22   14   30 1
  23   16   17 am
  24   16   31 1
  25   17   18 2
  26   17   19 2
  27   17   20 1
  28   20   21 ar
  29   20   25 ar
  30   21   22 ar
  31   21   32 1
  32   22   23 ar
  33   22   33 1
  34   23   24 ar
  35   23   34 1
  36   24   25 ar
  37   24   35 1
  38   25   36 1

#	End of record

