#	Name: ASD00170275
#	Creating user name:	WinNT
#	Creation time:	15. 06. 2019 18:31

#	Modifying user name:	WinNT
#	Modification time:	15. 06. 2019 18:31

#	Program:	/corina/corina34_cracker 3.40 0067  02.08.2006

@<TRIPOS>MOLECULE
ASD00170275
  36   39    0    0    0
SMALL
NO_CHARGES


@<TRIPOS>ATOM
   1 C1            -0.1382     1.2903    -0.0887 C.2     
   2 C2            -0.0401    -0.0742    -0.0025 C.2     
   3 C3            -1.3268    -0.7345     0.1310 C.2     
   4 C4            -2.3458     0.1312     0.1425 C.2     
   5 S5            -1.7657     1.7822    -0.0025 S.3     
   6 C6             1.2346    -0.7943    -0.0417 C.2     
   7 C7             1.7738    -1.2657    -1.3264 C.2     
   8 O8             1.1710    -1.1142    -2.5238 O.3     
   9 C9             1.9166    -1.6533    -3.5081 C.ar    
  10 C10            3.0765    -2.1893    -2.9183 C.ar    
  11 C11            2.9565    -1.9143    -1.4869 C.2     
  12 O12            1.8487    -1.0028     0.9902 O.2     
  13 N13            0.9357     2.1481    -0.2212 N.pl3   
  14 C14            1.7455    -1.7587    -4.8835 C.ar    
  15 C15            2.7070    -2.3827    -5.6487 C.ar    
  16 C16            3.8493    -2.9098    -5.0617 C.ar    
  17 C17            4.0397    -2.8171    -3.7119 C.ar    
  18 C18           -1.5029    -2.2405     0.2444 C.3     
  19 C19           -2.9030    -2.5334     0.7884 C.3     
  20 C20           -3.9354    -1.7606    -0.0378 C.3     
  21 C21           -3.8040    -0.2666     0.2703 C.3     
  22 H22            3.6620    -2.1793    -0.7133 H       
  23 H23            1.8409     1.8024    -0.1772 H       
  24 H24            0.7848     3.0965    -0.3582 H       
  25 H25            0.8608    -1.3528    -5.3515 H       
  26 H26            2.5701    -2.4629    -6.7170 H       
  27 H27            4.5927    -3.3959    -5.6761 H       
  28 H28            4.9301    -3.2288    -3.2602 H       
  29 H29           -1.3903    -2.6965    -0.7392 H       
  30 H30           -0.7543    -2.6457     0.9251 H       
  31 H31           -3.1053    -3.6021     0.7168 H       
  32 H32           -2.9618    -2.2197     1.8306 H       
  33 H33           -3.7549    -1.9314    -1.0991 H       
  34 H34           -4.9382    -2.0997     0.2221 H       
  35 H35           -4.1487    -0.0712     1.2858 H       
  36 H36           -4.4025     0.3066    -0.4377 H       
@<TRIPOS>BOND
   1    1    2 2
   2    1   13 1
   3    1    5 1
   4    2    3 1
   5    2    6 1
   6    3    4 2
   7    3   18 1
   8    4    5 1
   9    4   21 1
  10    6    7 1
  11    6   12 2
  12    7    8 1
  13    7   11 2
  14    8    9 1
  15    9   10 ar
  16    9   14 ar
  17   10   11 1
  18   10   17 ar
  19   11   22 1
  20   13   23 1
  21   13   24 1
  22   14   15 ar
  23   14   25 1
  24   15   16 ar
  25   15   26 1
  26   16   17 ar
  27   16   27 1
  28   17   28 1
  29   18   19 1
  30   18   29 1
  31   18   30 1
  32   19   20 1
  33   19   31 1
  34   19   32 1
  35   20   21 1
  36   20   33 1
  37   20   34 1
  38   21   35 1
  39   21   36 1

#	End of record

