#	Name: ASD02198465
#	Creating user name:	WinNT
#	Creation time:	15. 06. 2019 20:19

#	Modifying user name:	WinNT
#	Modification time:	15. 06. 2019 20:19

#	Program:	/corina/corina34_cracker 3.40 0067  02.08.2006

@<TRIPOS>MOLECULE
ASD02198465
  41   44    0    0    0
SMALL
NO_CHARGES


@<TRIPOS>ATOM
   1 C1            -0.2820     1.6236    -0.2720 C.2     
   2 C2            -0.4279     0.2760    -0.2170 C.2     
   3 N3             0.6478    -0.5330    -0.0862 N.pl3   
   4 N4             1.8508    -0.0976    -0.0072 N.2     
   5 C5             2.1334     1.1865    -0.0481 C.2     
   6 C6             1.0295     2.1503    -0.1886 C.2     
   7 C7             0.4370    -1.9149    -0.0339 C.ar    
   8 C8            -1.0599    -3.7848     0.0829 C.ar    
   9 C9             0.0200    -4.6483     0.0694 C.ar    
  10 C10            1.3084    -4.1486     0.0101 C.ar    
  11 C11            1.5201    -2.7852    -0.0415 C.ar    
  12 C12            3.5317     1.6527     0.0461 C.2     
  13 N13            4.1830     2.4525    -0.8501 N.pl3   
  14 N14            5.4868     2.6488    -0.3779 N.2     
  15 C15            5.6274     2.0015     0.7515 C.2     
  16 C16            4.4232     1.3677     1.0573 C.2     
  17 C17            3.6434     2.9810    -2.0304 C.ar    
  18 C18            2.8452     2.1892    -2.8454 C.ar    
  19 O19            1.2364     3.3537    -0.2321 O.2     
  20 C20           -0.8553    -2.4199     0.0315 C.ar    
  21 C21            3.9014     4.2988    -2.3837 C.ar    
  22 C22            3.3683     4.8179    -3.5471 C.ar    
  23 C23            2.5764     4.0251    -4.3610 C.ar    
  24 C24            2.3140     2.7119    -4.0079 C.ar    
  25 F25            2.0554     4.5348    -5.4985 F       
  26 C26           -2.4618    -4.3339     0.1476 C.3     
  27 F27           -2.4140    -5.7315     0.1853 F       
  28 F28           -3.0964    -3.8577     1.2999 F       
  29 F29           -3.1765    -3.9221    -0.9824 F       
  30 H30           -1.1379     2.2733    -0.3804 H       
  31 H31           -1.4158    -0.1563    -0.2780 H       
  32 H32           -0.1429    -5.7154     0.1056 H       
  33 H33            2.1497    -4.8258    -0.0003 H       
  34 H34            2.5263    -2.3957    -0.0882 H       
  35 H35            6.5260     1.9677     1.3497 H       
  36 H36            4.2270     0.7576     1.9266 H       
  37 H37            2.6403     1.1651    -2.5704 H       
  38 H38           -1.6992    -1.7460     0.0425 H       
  39 H39            4.5183     4.9176    -1.7490 H       
  40 H40            3.5688     5.8428    -3.8223 H       
  41 H41            1.6965     2.0952    -4.6441 H       
@<TRIPOS>BOND
   1    1    2 2
   2    1    6 1
   3    1   30 1
   4    2    3 1
   5    2   31 1
   6    3    4 1
   7    3    7 1
   8    4    5 2
   9    5    6 1
  10    5   12 1
  11    6   19 2
  12    7   20 ar
  13    7   11 ar
  14    8    9 ar
  15    8   26 1
  16    8   20 ar
  17    9   10 ar
  18    9   32 1
  19   10   11 ar
  20   10   33 1
  21   11   34 1
  22   12   13 1
  23   12   16 2
  24   13   14 1
  25   13   17 1
  26   14   15 2
  27   15   16 1
  28   15   35 1
  29   16   36 1
  30   17   21 ar
  31   17   18 ar
  32   18   24 ar
  33   18   37 1
  34   20   38 1
  35   21   22 ar
  36   21   39 1
  37   22   23 ar
  38   22   40 1
  39   23   24 ar
  40   23   25 1
  41   24   41 1
  42   26   27 1
  43   26   28 1
  44   26   29 1

#	End of record

