#	Name: ASD03430023
#	Creating user name:	WinNT
#	Creation time:	15. 06. 2019 20:40

#	Modifying user name:	WinNT
#	Modification time:	15. 06. 2019 20:40

#	Program:	/corina/corina34_cracker 3.40 0067  02.08.2006

@<TRIPOS>MOLECULE
ASD03430023
  71   76    0    0    0
SMALL
NO_CHARGES


@<TRIPOS>ATOM
   1 C1            -0.0167     1.3799     0.0096 C.ar    
   2 C2             0.0021    -0.0041     0.0020 C.ar    
   3 C3             1.2035    -0.6800    -0.0138 C.ar    
   4 C4             2.4083     0.0167    -0.0091 C.ar    
   5 C5             2.3825     1.4082    -0.0064 C.ar    
   6 C6             1.1781     2.0840     0.0020 C.ar    
   7 O7             3.4722    -0.8356     0.0057 O.3     
   8 C8             1.5543    -2.1432    -0.0522 C.3     
   9 C9             3.0423    -2.1397    -0.4294 C.3     
  10 C10            0.4280    -3.8679     0.9861 C.ar    
  11 C11            1.3111    -2.8260     1.2605 C.ar    
  12 C12            0.7281    -2.8991    -1.0533 C.2     
  13 N13            0.1075    -3.8835    -0.3734 N.am    
  14 O14            0.6374    -2.6688    -2.2406 O.2     
  15 C15            1.7659    -2.6142     2.5426 C.ar    
  16 C16            1.3481    -3.4394     3.5719 C.ar    
  17 C17            0.4730    -4.4777     3.3108 C.ar    
  18 C18            0.0135    -4.6935     2.0278 C.ar    
  19 C19           -0.7976    -4.8573    -0.9889 C.3     
  20 F20           -1.1942     2.0422     0.0188 F       
  21 F21            1.1638     3.4350     0.0028 F       
  22 C22           -2.2076    -4.3267    -0.9506 C.ar    
  23 C23           -2.6865    -3.5642    -2.0001 C.ar    
  24 C24           -3.9782    -3.0765    -1.9682 C.ar    
  25 C25           -4.7965    -3.3526    -0.8802 C.ar    
  26 C26           -4.3122    -4.1189     0.1724 C.ar    
  27 C27           -3.0214    -4.6083     0.1314 C.ar    
  28 N28           -6.1032    -2.8605    -0.8444 N.pl3   
  29 C29           -6.9648    -3.1527     0.3038 C.3     
  30 C30           -8.0655    -2.0708     0.4628 C.3     
  31 C31           -9.1989    -2.8335     1.1805 C.3     
  32 N32           -8.9967    -4.2656     0.9163 N.am    
  33 C33           -7.8129    -4.4244     0.0522 C.3     
  34 C34           -9.7657    -5.2674     1.3870 C.2     
  35 O35           -9.5034    -6.4195     1.1032 O.2     
  36 O36          -10.8246    -4.9917     2.1716 O.3     
  37 C37          -11.6079    -6.1201     2.6421 C.3     
  38 C38          -10.7168    -7.0512     3.4665 C.3     
  39 C39          -12.7597    -5.6137     3.5126 C.3     
  40 C40          -12.1727    -6.8843     1.4430 C.3     
  41 H41           -0.9265    -0.5556     0.0089 H       
  42 H42            3.3094     1.9625    -0.0108 H       
  43 H43            3.1687    -2.2494    -1.5065 H       
  44 H44            3.5791    -2.9228     0.1061 H       
  45 H45            2.4492    -1.8028     2.7453 H       
  46 H46            1.7053    -3.2730     4.5775 H       
  47 H47            0.1477    -5.1220     4.1142 H       
  48 H48           -0.6703    -5.5058     1.8308 H       
  49 H49           -0.5007    -5.0255    -2.0241 H       
  50 H50           -0.7480    -5.7973    -0.4393 H       
  51 H51           -2.0497    -3.3496    -2.8455 H       
  52 H52           -4.3515    -2.4807    -2.7880 H       
  53 H53           -4.9459    -4.3354     1.0198 H       
  54 H54           -2.6444    -5.2044     0.9493 H       
  55 H55           -6.4402    -2.3253    -1.5799 H       
  56 H56           -6.3767    -3.2489     1.2165 H       
  57 H57           -7.7079    -1.2442     1.0768 H       
  58 H58           -8.3982    -1.7130    -0.5116 H       
  59 H59           -9.1520    -2.6442     2.2529 H       
  60 H60          -10.1652    -2.5170     0.7880 H       
  61 H61           -8.1120    -4.4800    -0.9945 H       
  62 H62           -7.2532    -5.3158     0.3355 H       
  63 H63          -10.3144    -6.5068     4.3208 H       
  64 H64          -11.3048    -7.8983     3.8198 H       
  65 H65           -9.8962    -7.4120     2.8464 H       
  66 H66          -13.3946    -4.9503     2.9253 H       
  67 H67          -13.3478    -6.4607     3.8659 H       
  68 H68          -12.3574    -5.0692     4.3669 H       
  69 H69          -11.3521    -7.2451     0.8228 H       
  70 H70          -12.7608    -7.7314     1.7962 H       
  71 H71          -12.8076    -6.2209     0.8557 H       
@<TRIPOS>BOND
   1    1    2 ar
   2    1    6 ar
   3    1   20 1
   4    2    3 ar
   5    2   41 1
   6    3    4 ar
   7    3    8 1
   8    4    5 ar
   9    4    7 1
  10    5    6 ar
  11    5   42 1
  12    6   21 1
  13    7    9 1
  14    8    9 1
  15    8   11 1
  16    8   12 1
  17    9   43 1
  18    9   44 1
  19   10   11 ar
  20   10   13 1
  21   10   18 ar
  22   11   15 ar
  23   12   13 am
  24   12   14 2
  25   13   19 1
  26   15   16 ar
  27   15   45 1
  28   16   17 ar
  29   16   46 1
  30   17   18 ar
  31   17   47 1
  32   18   48 1
  33   19   22 1
  34   19   49 1
  35   19   50 1
  36   22   23 ar
  37   22   27 ar
  38   23   24 ar
  39   23   51 1
  40   24   25 ar
  41   24   52 1
  42   25   26 ar
  43   25   28 1
  44   26   27 ar
  45   26   53 1
  46   27   54 1
  47   28   29 1
  48   28   55 1
  49   29   30 1
  50   29   33 1
  51   29   56 1
  52   30   31 1
  53   30   57 1
  54   30   58 1
  55   31   32 1
  56   31   59 1
  57   31   60 1
  58   32   33 1
  59   32   34 am
  60   33   61 1
  61   33   62 1
  62   34   35 2
  63   34   36 1
  64   36   37 1
  65   37   38 1
  66   37   39 1
  67   37   40 1
  68   38   63 1
  69   38   64 1
  70   38   65 1
  71   39   66 1
  72   39   67 1
  73   39   68 1
  74   40   69 1
  75   40   70 1
  76   40   71 1

#	End of record

