#	Name: ASD02038699
#	Creating user name:	WinNT
#	Creation time:	15. 06. 2019 20:17

#	Modifying user name:	WinNT
#	Modification time:	15. 06. 2019 20:17

#	Program:	/corina/corina34_cracker 3.40 0067  02.08.2006

@<TRIPOS>MOLECULE
ASD02038699
  45   47    0    0    0
SMALL
NO_CHARGES


@<TRIPOS>ATOM
   1 C1             0.3358     2.1275    -0.6271 C.2     
   2 S2             0.2677     0.3769    -0.4392 S.3     
   3 C3             2.0360    -0.0092    -0.4482 C.3     
   4 C4             2.2291    -1.5191    -0.2933 C.3     
   5 C5             3.7219    -1.8329    -0.1757 C.3     
   6 O6             3.8965    -3.2270     0.0852 O.3     
   7 C7             5.1737    -3.6750     0.2185 C.ar    
   8 C8             6.7111    -5.4730     0.6077 C.ar    
   9 C9             5.4144    -5.0171     0.4727 C.ar    
  10 O10            1.6902    -2.1879    -1.4354 O.3     
  11 C11            7.7739    -4.5874     0.4885 C.ar    
  12 N12            9.0881    -5.0485     0.6251 N.am    
  13 C13            6.2349    -2.7906     0.0945 C.ar    
  14 N14            1.4361     2.8312    -0.7334 N.2     
  15 N15           -0.7509     2.9535    -0.6896 N.pl3   
  16 C16           -0.2756     4.2467    -0.8388 C.ar    
  17 C17            1.1251     4.1478    -0.8648 C.ar    
  18 C18           -0.8851     5.4867    -0.9563 C.ar    
  19 C19           -0.1121     6.6221    -1.0953 C.ar    
  20 C20            1.2736     6.5304    -1.1182 C.ar    
  21 C21            1.8944     5.3054    -1.0075 C.ar    
  22 Cl22          -0.8767     8.1736    -1.2429 Cl      
  23 Cl23           2.2299     7.9685    -1.2943 Cl      
  24 C24            7.5322    -3.2449     0.2288 C.ar    
  25 S25            9.9376    -4.7298     2.0105 S.o2    
  26 O26           11.1963    -5.3551     1.8014 O.2     
  27 O27            9.8364    -3.3211     2.1674 O.2     
  28 C28            9.0116    -5.5838     3.3158 C.3     
  29 H29            2.4746     0.3183    -1.3908 H       
  30 H30            2.5247     0.5063     0.3785 H       
  31 H31            1.7141    -1.8610     0.6045 H       
  32 H32            4.2225    -1.5724    -1.1083 H       
  33 H33            4.1517    -1.2537     0.6415 H       
  34 H34            6.8982    -6.5173     0.8097 H       
  35 H35            4.5876    -5.7058     0.5654 H       
  36 H36            2.1024    -1.9318    -2.2719 H       
  37 H37            9.5014    -5.5548    -0.0916 H       
  38 H38            6.0467    -1.7465    -0.1075 H       
  39 H39           -1.6816     2.6848    -0.6389 H       
  40 H40           -1.9622     5.5640    -0.9395 H       
  41 H41            2.9723     5.2407    -1.0256 H       
  42 H42            8.3584    -2.5561     0.1322 H       
  43 H43            8.8985    -6.6355     3.0524 H       
  44 H44            9.5527    -5.5016     4.2584 H       
  45 H45            8.0273    -5.1277     3.4209 H       
@<TRIPOS>BOND
   1    1    2 1
   2    1   14 2
   3    1   15 1
   4    2    3 1
   5    3    4 1
   6    3   29 1
   7    3   30 1
   8    4    5 1
   9    4   10 1
  10    4   31 1
  11    5    6 1
  12    5   32 1
  13    5   33 1
  14    6    7 1
  15    7    9 ar
  16    7   13 ar
  17    8   11 ar
  18    8    9 ar
  19    8   34 1
  20    9   35 1
  21   10   36 1
  22   11   12 1
  23   11   24 ar
  24   12   25 am
  25   12   37 1
  26   13   24 ar
  27   13   38 1
  28   14   17 1
  29   15   16 1
  30   15   39 1
  31   16   17 ar
  32   16   18 ar
  33   17   21 ar
  34   18   19 ar
  35   18   40 1
  36   19   20 ar
  37   19   22 1
  38   20   21 ar
  39   20   23 1
  40   21   41 1
  41   24   42 1
  42   25   26 2
  43   25   27 2
  44   25   28 1
  45   28   43 1
  46   28   44 1
  47   28   45 1

#	End of record

