#	Name: ASD01150966
#	Creating user name:	WinNT
#	Creation time:	15. 06. 2019 19:05

#	Modifying user name:	WinNT
#	Modification time:	15. 06. 2019 19:05

#	Program:	/corina/corina34_cracker 3.40 0067  02.08.2006

@<TRIPOS>MOLECULE
ASD01150966
  28   28    0    0    0
SMALL
NO_CHARGES


@<TRIPOS>ATOM
   1 C1            -0.0153     1.2797     0.0091 C.2     
   2 N2             0.0021    -0.0041     0.0020 N.2     
   3 C3            -1.1770    -0.6344     0.0099 C.2     
   4 C4            -2.2682     0.2049     0.0248 C.2     
   5 S5            -1.6751     1.8641     0.0357 S.3     
   6 C6             1.2086     2.1590     0.0021 C.3     
   7 C7             1.1901     3.0490    -1.2422 C.3     
   8 C8             1.2139     3.0356     1.2561 C.3     
   9 N9            -3.5928    -0.1847     0.0349 N.pl3   
  10 C10           -1.2973    -2.0920     0.0032 C.2     
  11 O11           -2.3974    -2.6116     0.0104 O.2     
  12 O12           -0.1883    -2.8603    -0.0110 O.3     
  13 C13           -0.3803    -4.2764    -0.0168 C.3     
  14 C14            0.9806    -4.9754    -0.0329 C.3     
  15 H15            2.1032     1.5363    -0.0098 H       
  16 H16            0.2955     3.6716    -1.2304 H       
  17 H17            2.0753     3.6849    -1.2473 H       
  18 H18            1.1863     2.4245    -2.1356 H       
  19 H19            1.2271     2.4015     2.1426 H       
  20 H20            2.0992     3.6715     1.2510 H       
  21 H21            0.3193     3.6582     1.2680 H       
  22 H22           -3.8212    -1.1274     0.0317 H       
  23 H23           -4.2951     0.4844     0.0452 H       
  24 H24           -0.9301    -4.5722     0.8767 H       
  25 H25           -0.9463    -4.5627    -0.9032 H       
  26 H26            1.5304    -4.6796    -0.9264 H       
  27 H27            1.5467    -4.6891     0.8535 H       
  28 H28            0.8342    -6.0555    -0.0374 H       
@<TRIPOS>BOND
   1    1    2 2
   2    1    6 1
   3    1    5 1
   4    2    3 1
   5    3    4 2
   6    3   10 1
   7    4    5 1
   8    4    9 1
   9    6    7 1
  10    6    8 1
  11    6   15 1
  12    7   16 1
  13    7   17 1
  14    7   18 1
  15    8   19 1
  16    8   20 1
  17    8   21 1
  18    9   22 1
  19    9   23 1
  20   10   11 2
  21   10   12 1
  22   12   13 1
  23   13   14 1
  24   13   24 1
  25   13   25 1
  26   14   26 1
  27   14   27 1
  28   14   28 1

#	End of record

