#	Name: ASD04910175
#	Creating user name:	WinNT
#	Creation time:	15. 06. 2019 20:55

#	Modifying user name:	WinNT
#	Modification time:	15. 06. 2019 20:55

#	Program:	/corina/corina34_cracker 3.40 0067  02.08.2006

@<TRIPOS>MOLECULE
ASD04910175
  22   22    0    0    0
SMALL
NO_CHARGES


@<TRIPOS>ATOM
   1 C1             0.1154     1.5203    -0.1836 C.2     
   2 C2             0.3557     0.0839    -0.4348 C.ar    
   3 C3            -0.6504    -0.7206    -0.9852 C.ar    
   4 C4            -0.3756    -2.0583    -1.2008 C.ar    
   5 C5             0.8743    -2.5557    -0.8688 C.ar    
   6 N6             1.8032    -1.7729    -0.3513 N.ar    
   7 C7             1.5902    -0.4918    -0.1331 C.ar    
   8 O8             1.0541     2.2712    -0.0033 O.2     
   9 N9            -1.1444     1.9987    -0.1598 N.am    
  10 C10           -1.3875     3.4061     0.1664 C.3     
  11 O11           -2.2331     1.1410    -0.4502 O.3     
  12 C12           -2.8543     0.5782     0.7071 C.3     
  13 Cl13           1.2243    -4.2348    -1.1370 Cl      
  14 H14           -1.6163    -0.3066    -1.2344 H       
  15 H15           -1.1272    -2.7088    -1.6232 H       
  16 H16            2.3765     0.1175     0.2875 H       
  17 H17           -1.3740     3.9986    -0.7484 H       
  18 H18           -2.3599     3.5045     0.6488 H       
  19 H19           -0.6093     3.7622     0.8414 H       
  20 H20           -2.1227    -0.0078     1.2635 H       
  21 H21           -3.2359     1.3791     1.3404 H       
  22 H22           -3.6782    -0.0661     0.4001 H       
@<TRIPOS>BOND
   1    1    2 1
   2    1    8 2
   3    1    9 am
   4    2    3 ar
   5    2    7 ar
   6    3    4 ar
   7    3   14 1
   8    4    5 ar
   9    4   15 1
  10    5    6 ar
  11    5   13 1
  12    6    7 ar
  13    7   16 1
  14    9   10 1
  15    9   11 1
  16   10   17 1
  17   10   18 1
  18   10   19 1
  19   11   12 1
  20   12   20 1
  21   12   21 1
  22   12   22 1

#	End of record

