#	Name: ASD01812855
#	Creating user name:	WinNT
#	Creation time:	15. 06. 2019 19:29

#	Modifying user name:	WinNT
#	Modification time:	15. 06. 2019 19:29

#	Program:	/corina/corina34_cracker 3.40 0067  02.08.2006

@<TRIPOS>MOLECULE
ASD01812855
  55   59    0    0    0
SMALL
NO_CHARGES


@<TRIPOS>ATOM
   1 C1             0.0048     1.3823    -0.2638 C.ar    
   2 C2             0.0364     0.0086    -0.3971 C.ar    
   3 C3             1.2473    -0.6674    -0.3896 C.ar    
   4 C4             2.4241     0.0277    -0.2493 C.ar    
   5 C5             2.4112     1.4192    -0.1131 C.ar    
   6 C6             1.1848     2.0980    -0.1212 C.ar    
   7 C7             3.8725    -0.3909    -0.2019 C.3     
   8 N8             4.6497     0.8423    -0.0331 N.am    
   9 C9             3.8018     1.8840     0.0176 C.2     
  10 C10            6.1092     0.9245     0.0638 C.3     
  11 C11            6.6954     1.0919    -1.3144 C.ar    
  12 C12            6.8934     2.3594    -1.8420 C.ar    
  13 C13            7.4350     2.4695    -3.1117 C.ar    
  14 C14            7.7605     1.3103    -3.8114 C.ar    
  15 N15            7.5554     0.1162    -3.2708 N.ar    
  16 C16            7.0468    -0.0169    -2.0633 C.ar    
  17 O17            1.1519     3.4477     0.0091 O.3     
  18 O18            4.1360     3.0454     0.1520 O.2     
  19 C19           -0.0542     4.0683    -0.0811 C.ar    
  20 C20           -0.8563     4.1979     1.0458 C.ar    
  21 C21           -2.0828     4.8305     0.9503 C.ar    
  22 C22           -2.5094     5.3329    -0.2651 C.ar    
  23 C23           -1.7124     5.2043    -1.3876 C.ar    
  24 C24           -0.4838     4.5784    -1.2971 C.ar    
  25 C25           -3.8459     6.0217    -0.3667 C.3     
  26 F26           -0.4393     3.7065     2.2332 F       
  27 C27            8.3412     1.4114    -5.1731 C.ar    
  28 C28            8.6635     2.6538    -5.7255 C.ar    
  29 C29            9.2072     2.7022    -6.9933 C.ar    
  30 N30            9.4225     1.5971    -7.6802 N.ar    
  31 C31            9.1326     0.4050    -7.1955 C.ar    
  32 C32            8.5862     0.2661    -5.9360 C.ar    
  33 C33            9.4018    -0.8218    -8.0285 C.3     
  34 F34           -4.3700     5.8357    -1.6505 F       
  35 F35           -4.7233     5.4790     0.5783 F       
  36 H36           -0.9417     1.9022    -0.2750 H       
  37 H37           -0.8861    -0.5421    -0.5073 H       
  38 H38            1.2653    -1.7422    -0.4939 H       
  39 H39            4.0420    -1.0593     0.6422 H       
  40 H40            4.1505    -0.8845    -1.1331 H       
  41 H41            6.3847     1.7788     0.6820 H       
  42 H42            6.4955     0.0103     0.5144 H       
  43 H43            6.6306     3.2405    -1.2754 H       
  44 H44            7.6022     3.4408    -3.5533 H       
  45 H45            6.8978    -1.0052    -1.6540 H       
  46 H46           -2.7076     4.9317     1.8254 H       
  47 H47           -2.0488     5.5972    -2.3357 H       
  48 H48            0.1396     4.4826    -2.1738 H       
  49 H49           -3.7208     7.0876    -0.1763 H       
  50 H50            8.4895     3.5628    -5.1688 H       
  51 H51            9.4592     3.6579    -7.4288 H       
  52 H52            8.3516    -0.7130    -5.5453 H       
  53 H53           10.4101    -1.1835    -7.8273 H       
  54 H54            8.6799    -1.5983    -7.7754 H       
  55 H55            9.3099    -0.5707    -9.0852 H       
@<TRIPOS>BOND
   1    1    2 ar
   2    1    6 ar
   3    1   36 1
   4    2    3 ar
   5    2   37 1
   6    3    4 ar
   7    3   38 1
   8    4    7 1
   9    4    5 ar
  10    5    6 ar
  11    5    9 1
  12    6   17 1
  13    7    8 1
  14    7   39 1
  15    7   40 1
  16    8    9 am
  17    8   10 1
  18    9   18 2
  19   10   11 1
  20   10   41 1
  21   10   42 1
  22   11   12 ar
  23   11   16 ar
  24   12   13 ar
  25   12   43 1
  26   13   14 ar
  27   13   44 1
  28   14   15 ar
  29   14   27 1
  30   15   16 ar
  31   16   45 1
  32   17   19 1
  33   19   20 ar
  34   19   24 ar
  35   20   21 ar
  36   20   26 1
  37   21   22 ar
  38   21   46 1
  39   22   23 ar
  40   22   25 1
  41   23   24 ar
  42   23   47 1
  43   24   48 1
  44   25   34 1
  45   25   35 1
  46   25   49 1
  47   27   28 ar
  48   27   32 ar
  49   28   29 ar
  50   28   50 1
  51   29   30 ar
  52   29   51 1
  53   30   31 ar
  54   31   32 ar
  55   31   33 1
  56   32   52 1
  57   33   53 1
  58   33   54 1
  59   33   55 1

#	End of record

