#	Name: ASD01814915
#	Creating user name:	WinNT
#	Creation time:	15. 06. 2019 19:33

#	Modifying user name:	WinNT
#	Modification time:	15. 06. 2019 19:33

#	Program:	/corina/corina34_cracker 3.40 0067  02.08.2006

@<TRIPOS>MOLECULE
ASD01814915
  52   56    0    0    0
SMALL
NO_CHARGES


@<TRIPOS>ATOM
   1 C1             0.0490     1.4780    -0.0126 C.2     
   2 C2             0.0445     0.0766    -0.0223 C.2     
   3 C3             1.2299    -0.5987    -0.0312 C.2     
   4 C4             2.4354     0.1225    -0.0306 C.2     
   5 N5             2.4104     1.4907    -0.0207 N.am    
   6 C6             1.2196     2.1548    -0.0121 C.2     
   7 C7             3.6549    -0.5691    -0.0397 C.2     
   8 C8             4.8318     0.1219    -0.0388 C.2     
   9 C9             4.8022     1.5288    -0.0290 C.2     
  10 C10            3.5599     2.1953    -0.0196 C.2     
  11 O11            3.5249     3.4143    -0.0116 O.2     
  12 C12            6.0510     2.2939    -0.0273 C.2     
  13 O13            6.0159     3.6424    -0.0180 O.3     
  14 O14            7.1199     1.7134    -0.0343 O.2     
  15 C15            3.6662    -2.0760    -0.0501 C.3     
  16 N16            3.7856    -2.5553    -1.4335 N.3     
  17 C17            4.0377    -4.0026    -1.4696 C.3     
  18 C18            4.0763    -4.4749    -2.9248 C.3     
  19 N19            5.1256    -3.7424    -3.6473 N.3     
  20 C20            4.8735    -2.2950    -3.6112 C.3     
  21 C21            4.8349    -1.8227    -2.1560 C.3     
  22 H22            4.9938    -4.2172    -0.9921 H       
  23 H23            4.2920    -5.5430    -2.9549 H       
  24 H24            3.1111    -4.2851    -3.3945 H       
  25 C25            5.2393    -4.1986    -4.9642 C.ar    
  26 C26            4.9150    -3.3646    -6.0196 C.ar    
  27 C27            5.0247    -3.8088    -7.3299 C.ar    
  28 C28            5.4546    -5.0769    -7.6003 C.ar    
  29 C29            5.7883    -5.9384    -6.5508 C.ar    
  30 C30            5.6864    -5.4971    -5.2214 C.ar    
  31 C31            6.2690    -7.3203    -6.4831 C.2     
  32 C32            6.4171    -7.6216    -5.1830 C.2     
  33 N33            6.0746    -6.5443    -4.4136 N.pl3   
  34 H34           -0.8856     2.0192    -0.0099 H       
  35 H35           -0.8901    -0.4646    -0.0223 H       
  36 H36            1.2413    -1.6786    -0.0384 H       
  37 H37            1.2113     3.2347    -0.0043 H       
  38 H38            5.7746    -0.4048    -0.0450 H       
  39 H39            6.8657     4.1037    -0.0173 H       
  40 H40            4.5128    -2.4370     0.5339 H       
  41 H41            2.7391    -2.4493     0.3850 H       
  42 H42            3.2409    -4.5239    -0.9390 H       
  43 H43            5.6703    -1.7738    -4.1418 H       
  44 H44            3.9174    -2.0805    -4.0887 H       
  45 H45            4.6193    -0.7547    -2.1259 H       
  46 H46            5.8001    -2.0125    -1.6863 H       
  47 H47            4.5732    -2.3593    -5.8220 H       
  48 H48            4.7674    -3.1462    -8.1430 H       
  49 H49            5.5364    -5.4136    -8.6232 H       
  50 H50            6.4664    -7.9734    -7.3202 H       
  51 H51            6.7586    -8.5726    -4.8018 H       
  52 H52            6.1001    -6.5209    -3.4442 H       
@<TRIPOS>BOND
   1    1    2 1
   2    1    6 2
   3    1   34 1
   4    2    3 2
   5    2   35 1
   6    3    4 1
   7    3   36 1
   8    4    5 1
   9    4    7 2
  10    5    6 1
  11    5   10 am
  12    6   37 1
  13    7   15 1
  14    7    8 1
  15    8    9 2
  16    8   38 1
  17    9   10 1
  18    9   12 1
  19   10   11 2
  20   12   13 1
  21   12   14 2
  22   13   39 1
  23   15   16 1
  24   15   40 1
  25   15   41 1
  26   16   17 1
  27   16   21 1
  28   17   18 1
  29   17   22 1
  30   17   42 1
  31   18   19 1
  32   18   23 1
  33   18   24 1
  34   19   20 1
  35   19   25 1
  36   20   21 1
  37   20   43 1
  38   20   44 1
  39   21   45 1
  40   21   46 1
  41   25   26 ar
  42   25   30 ar
  43   26   27 ar
  44   26   47 1
  45   27   28 ar
  46   27   48 1
  47   28   29 ar
  48   28   49 1
  49   29   30 ar
  50   29   31 1
  51   30   33 1
  52   31   32 2
  53   31   50 1
  54   32   33 1
  55   32   51 1
  56   33   52 1

#	End of record

