#	Name: ASD07100009
#	Creating user name:	WinNT
#	Creation time:	15. 06. 2019 21:08

#	Modifying user name:	WinNT
#	Modification time:	15. 06. 2019 21:08

#	Program:	/corina/corina34_cracker 3.40 0067  02.08.2006

@<TRIPOS>MOLECULE
ASD07100009
  30   29    0    0    0
SMALL
NO_CHARGES


@<TRIPOS>ATOM
   1 C1             0.0230     1.4297     0.0849 C.3     
   2 C2            -0.7391     2.0400     1.2629 C.3     
   3 C3             1.4081     2.0719    -0.0142 C.3     
   4 O4            -2.0722     1.5259     1.2855 O.3     
   5 C5             2.1700     1.4619    -1.1925 C.3     
   6 C6             1.2629     3.5220    -0.2218 C.1     
   7 O7             2.1311     1.8339     1.1951 O.3     
   8 P8            -3.1582     1.9534     2.3945 P.3     
   9 O9            -4.5001     1.0868     2.1936 O.3     
  10 O10           -2.5836     1.6936     3.8050 O.co2   
  11 O11           -3.4872     3.4552     2.2410 O.co2   
  12 P12           -5.7957     0.8036     3.1066 P.3     
  13 O13           -6.1395     2.0863     3.9377 O.co2   
  14 O14           -7.0107     0.4347     2.1889 O.co2   
  15 O15           -5.4975    -0.3860     4.0815 O.co2   
  16 C16            1.1471     4.6785    -0.3873 C.1     
  17 C17            1.0019     6.1285    -0.5948 C.3     
  18 C18            3.5436     2.0763    -1.2747 C.2     
  19 O19            3.9218     2.8424    -0.4049 O.co2   
  20 O20            4.2767     1.8073    -2.2110 O.co2   
  21 H21            0.1305     0.3560     0.2388 H       
  22 H22           -0.5285     1.6110    -0.8377 H       
  23 H23           -0.2347     1.7828     2.1943 H       
  24 H24           -0.7695     3.1240     1.1534 H       
  25 H25            2.2616     0.3854    -1.0477 H       
  26 H26            1.6277     1.6593    -2.1172 H       
  27 H27            1.7055     2.1940     1.9852 H       
  28 H28            1.9887     6.5860    -0.6654 H       
  29 H29            0.4503     6.3101    -1.5173 H       
  30 H30            0.4591     6.5631     0.2446 H       
@<TRIPOS>BOND
   1    1    2 1
   2    1    3 1
   3    1   21 1
   4    1   22 1
   5    2    4 1
   6    2   23 1
   7    2   24 1
   8    3    5 1
   9    3    6 1
  10    3    7 1
  11    4    8 1
  12    5   18 1
  13    5   25 1
  14    5   26 1
  15    6   16 3
  16    7   27 1
  17    8    9 1
  18    8   10 ar
  19    8   11 ar
  20    9   12 1
  21   12   13 ar
  22   12   14 ar
  23   12   15 ar
  24   16   17 1
  25   17   28 1
  26   17   29 1
  27   17   30 1
  28   18   19 ar
  29   18   20 ar

#	End of record

