#	Name: ASD02500519
#	Creating user name:	WinNT
#	Creation time:	15. 06. 2019 20:23

#	Modifying user name:	WinNT
#	Modification time:	15. 06. 2019 20:23

#	Program:	/corina/corina34_cracker 3.40 0067  02.08.2006

@<TRIPOS>MOLECULE
ASD02500519
  76   80    0    0    0
SMALL
NO_CHARGES


@<TRIPOS>ATOM
   1 N1            -0.9444     4.8251    -1.8338 N.ar    
   2 C2             0.2508     4.8176    -1.2955 C.ar    
   3 C3             1.3722     4.3941    -2.0059 C.ar    
   4 C4             1.2412     3.9719    -3.2981 C.ar    
   5 C5            -0.0439     3.9809    -3.8727 C.ar    
   6 C6            -0.2563     3.5618    -5.1956 C.ar    
   7 C7            -1.5148     3.5857    -5.7153 C.ar    
   8 C8            -2.5954     4.0214    -4.9515 C.ar    
   9 C9            -2.4255     4.4347    -3.6658 C.ar    
  10 C10           -1.1416     4.4245    -3.0939 C.ar    
  11 S11           -3.8096     4.9813    -2.7224 S.o2    
  12 O12           -3.4275     6.2134    -2.1263 O.2     
  13 O13           -4.9473     4.8444    -3.5628 O.2     
  14 N14           -4.0129     3.9044    -1.4810 N.am    
  15 C15           -4.3030     2.5727    -1.7564 C.ar    
  16 C16           -3.6064     1.5603    -1.1021 C.ar    
  17 C17           -3.8911     0.2414    -1.3725 C.ar    
  18 C18           -4.8810    -0.0814    -2.3053 C.ar    
  19 C19           -5.5787     0.9375    -2.9606 C.ar    
  20 C20           -5.2933     2.2544    -2.6817 C.ar    
  21 C21           -5.1884    -1.4942    -2.5978 C.2     
  22 O22           -6.3426    -1.8474    -2.7452 O.2     
  23 N23           -4.1900    -2.3936    -2.7017 N.am    
  24 C24           -4.5011    -3.7117    -3.0814 C.3     
  25 C25           -4.0381    -4.7137    -1.9932 C.3     
  26 N26           -2.5927    -4.8007    -2.0328 N.3     
  27 C27           -1.8816    -3.9061    -1.0960 C.3     
  28 C28           -2.4581    -2.4922    -1.0433 C.3     
  29 C29           -2.8070    -1.9586    -2.4186 C.3     
  30 C30           -2.1445    -6.1909    -1.8758 C.3     
  31 C31           -2.5135    -6.9796    -3.1057 C.ar    
  32 C32           -1.7394    -6.8776    -4.2519 C.ar    
  33 C33           -2.0805    -7.6052    -5.3855 C.ar    
  34 C34           -3.1971    -8.4329    -5.3656 C.ar    
  35 C35           -3.9657    -8.5293    -4.2157 C.ar    
  36 C36           -3.6197    -7.8080    -3.0882 C.ar    
  37 C37           -4.4545    -7.9205    -1.8386 C.3     
  38 O38           -3.5353    -9.1467    -6.4726 O.3     
  39 C39           -4.6951    -9.9765    -6.3801 C.3     
  40 O40           -1.3237    -7.5075    -6.5124 O.3     
  41 C41           -0.2386    -8.4276    -6.6469 C.3     
  42 O42           -0.6481    -6.0661    -4.2665 O.3     
  43 H43            0.3696     5.1488    -0.2745 H       
  44 H44            2.3442     4.4001    -1.5352 H       
  45 H45            2.0997     3.6407    -3.8636 H       
  46 H46            0.5736     3.2226    -5.7978 H       
  47 H47           -1.6772     3.2631    -6.7331 H       
  48 H48           -3.5838     4.0317    -5.3866 H       
  49 H49           -3.9296     4.2025    -0.5617 H       
  50 H50           -2.8415     1.8104    -0.3818 H       
  51 H51           -3.3502    -0.5434    -0.8648 H       
  52 H52           -6.3438     0.6912    -3.6820 H       
  53 H53           -5.8352     3.0420    -3.1842 H       
  54 H54           -5.5787    -3.8019    -3.2183 H       
  55 H55           -3.9990    -3.9435    -4.0207 H       
  56 H56           -4.3570    -4.3619    -1.0121 H       
  57 H57           -4.4696    -5.6948    -2.1916 H       
  58 H58           -1.9285    -4.3392    -0.0969 H       
  59 H59           -0.8360    -3.8453    -1.3978 H       
  60 H60           -3.3579    -2.5008    -0.4280 H       
  61 H61           -1.7251    -1.8292    -0.5837 H       
  62 H62           -2.1270    -2.3718    -3.1635 H       
  63 H63           -2.7505    -0.8701    -2.4245 H       
  64 H64           -1.0629    -6.2110    -1.7422 H       
  65 H65           -2.6267    -6.6317    -1.0033 H       
  66 H66           -4.8334    -9.1721    -4.1994 H       
  67 H67           -5.2410    -7.1660    -1.8579 H       
  68 H68           -4.9037    -8.9124    -1.7899 H       
  69 H69           -3.8226    -7.7644    -0.9643 H       
  70 H70           -4.5529   -10.7127    -5.5890 H       
  71 H71           -5.5650    -9.3609    -6.1515 H       
  72 H72           -4.8519   -10.4889    -7.3293 H       
  73 H73           -0.6239    -9.4472    -6.6404 H       
  74 H74            0.2811    -8.2416    -7.5868 H       
  75 H75            0.4546    -8.2959    -5.8162 H       
  76 H76            0.1699    -6.5020    -3.9911 H       
@<TRIPOS>BOND
   1    1    2 ar
   2    1   10 ar
   3    2    3 ar
   4    2   43 1
   5    3    4 ar
   6    3   44 1
   7    4    5 ar
   8    4   45 1
   9    5    6 ar
  10    5   10 ar
  11    6    7 ar
  12    6   46 1
  13    7    8 ar
  14    7   47 1
  15    8    9 ar
  16    8   48 1
  17    9   10 ar
  18    9   11 1
  19   11   12 2
  20   11   13 2
  21   11   14 am
  22   14   15 1
  23   14   49 1
  24   15   16 ar
  25   15   20 ar
  26   16   17 ar
  27   16   50 1
  28   17   18 ar
  29   17   51 1
  30   18   19 ar
  31   18   21 1
  32   19   20 ar
  33   19   52 1
  34   20   53 1
  35   21   22 2
  36   21   23 am
  37   23   24 1
  38   23   29 1
  39   24   25 1
  40   24   54 1
  41   24   55 1
  42   25   26 1
  43   25   56 1
  44   25   57 1
  45   26   27 1
  46   26   30 1
  47   27   28 1
  48   27   58 1
  49   27   59 1
  50   28   29 1
  51   28   60 1
  52   28   61 1
  53   29   62 1
  54   29   63 1
  55   30   31 1
  56   30   64 1
  57   30   65 1
  58   31   32 ar
  59   31   36 ar
  60   32   33 ar
  61   32   42 1
  62   33   34 ar
  63   33   40 1
  64   34   35 ar
  65   34   38 1
  66   35   36 ar
  67   35   66 1
  68   36   37 1
  69   37   67 1
  70   37   68 1
  71   37   69 1
  72   38   39 1
  73   39   70 1
  74   39   71 1
  75   39   72 1
  76   40   41 1
  77   41   73 1
  78   41   74 1
  79   41   75 1
  80   42   76 1

#	End of record

