#	Name: ASD01884000
#	Creating user name:	WinNT
#	Creation time:	15. 06. 2019 19:47

#	Modifying user name:	WinNT
#	Modification time:	15. 06. 2019 19:47

#	Program:	/corina/corina34_cracker 3.40 0067  02.08.2006

@<TRIPOS>MOLECULE
ASD01884000
  54   57    0    0    0
SMALL
NO_CHARGES


@<TRIPOS>ATOM
   1 Cl1            0.0000     0.0000     0.0000 Cl      
   2 H2             0.0000     1.3700     0.0000 H       
   3 N3             7.1249    20.1163     7.5003 N.pl3   
   4 C4             7.1437    18.7281     7.4927 C.ar    
   5 C5             5.9421    18.0247     7.4946 C.ar    
   6 C6             5.9689    16.6444     7.4865 C.ar    
   7 C7             7.2133    16.0027     7.4766 C.ar    
   8 C8             8.3729    16.7743     7.4753 C.ar    
   9 N9             8.3048    18.0901     7.4782 N.ar    
  10 C10            7.2955    14.5228     7.4682 C.ar    
  11 C11            6.1239    13.7613     7.4642 C.ar    
  12 C12            6.1865    12.3968     7.4565 C.ar    
  13 C13            7.4271    11.7580     7.4519 C.ar    
  14 C14            7.5282    10.2887     7.4424 C.2     
  15 O15            6.5263     9.5983     7.4389 O.2     
  16 N16            8.7528     9.7229     7.4373 N.am    
  17 C17            8.8725     8.2628     7.4273 C.3     
  18 C18            8.9126     7.7643     5.9813 C.3     
  19 F19           10.0122     8.3269     5.3244 F       
  20 F20            9.0269     6.3700     5.9718 F       
  21 F21            7.7353     8.1402     5.3257 F       
  22 C22            9.9001    10.5019     7.4408 C.2     
  23 C23           11.2206    10.1546     7.4369 C.2     
  24 C24           11.9739    11.3292     7.4436 C.2     
  25 N25           11.1538    12.3494     7.4513 N.2     
  26 N26            9.8395    11.8612     7.4497 N.pl3   
  27 C27            8.6114    12.5154     7.4553 C.ar    
  28 C28            8.5404    13.8977     7.4584 C.ar    
  29 C29           13.4787    11.4097     7.4426 C.3     
  30 C30           14.0547    10.2448     8.2535 C.3     
  31 C31           15.5833    10.2896     8.1815 C.3     
  32 O32           15.9962    10.2340     6.8146 O.3     
  33 C33           15.5266    11.3238     6.0184 C.3     
  34 C34           13.9958    11.3206     6.0035 C.3     
  35 H35            7.9582    20.6127     7.4950 H       
  36 H36            6.2783    20.5899     7.5069 H       
  37 H37            5.0000    18.5527     7.5027 H       
  38 H38            5.0522    16.0735     7.4881 H       
  39 H39            9.3378    16.2891     7.4677 H       
  40 H40            5.1631    14.2546     7.4677 H       
  41 H41            5.2776    11.8134     7.4542 H       
  42 H42            9.7897     7.9700     7.9381 H       
  43 H43            8.0157     7.8245     7.9391 H       
  44 H44           11.6129     9.1484     7.4301 H       
  45 H45            9.4447    14.4881     7.4573 H       
  46 H46           13.7936    12.3547     7.8853 H       
  47 H47           13.7363    10.3315     9.2924 H       
  48 H48           13.6980     9.3015     7.8398 H       
  49 H49           15.9414    11.2153     8.6321 H       
  50 H50           15.9977     9.4382     8.7214 H       
  51 H51           15.8840    12.2630     6.4407 H       
  52 H52           15.9003    11.2175     5.0000 H       
  53 H53           13.6379    10.3990     5.5444 H       
  54 H54           13.6352    12.1767     5.4332 H       
@<TRIPOS>BOND
   1    1    2 1
   2    3    4 1
   3    3   35 1
   4    3   36 1
   5    4    9 ar
   6    4    5 ar
   7    5    6 ar
   8    5   37 1
   9    6    7 ar
  10    6   38 1
  11    7    8 ar
  12    7   10 1
  13    8    9 ar
  14    8   39 1
  15   10   28 ar
  16   10   11 ar
  17   11   12 ar
  18   11   40 1
  19   12   13 ar
  20   12   41 1
  21   13   27 ar
  22   13   14 1
  23   14   15 2
  24   14   16 am
  25   16   17 1
  26   16   22 1
  27   17   18 1
  28   17   42 1
  29   17   43 1
  30   18   19 1
  31   18   20 1
  32   18   21 1
  33   22   26 1
  34   22   23 2
  35   23   24 1
  36   23   44 1
  37   24   25 2
  38   24   29 1
  39   25   26 1
  40   26   27 1
  41   27   28 ar
  42   28   45 1
  43   29   34 1
  44   29   30 1
  45   29   46 1
  46   30   31 1
  47   30   47 1
  48   30   48 1
  49   31   32 1
  50   31   49 1
  51   31   50 1
  52   32   33 1
  53   33   34 1
  54   33   51 1
  55   33   52 1
  56   34   53 1
  57   34   54 1

#	End of record

