#	Name: ASD08070678
#	Creating user name:	WinNT
#	Creation time:	15. 06. 2019 21:15

#	Modifying user name:	WinNT
#	Modification time:	15. 06. 2019 21:15

#	Program:	/corina/corina34_cracker 3.40 0067  02.08.2006

@<TRIPOS>MOLECULE
ASD08070678
  43   44    0    0    0
SMALL
NO_CHARGES


@<TRIPOS>ATOM
   1 C1            -0.0178     1.4582     0.0101 C.2     
   2 C2             0.0021    -0.0041     0.0020 C.2     
   3 C3             1.1802    -0.6631    -0.0128 C.2     
   4 O4             1.0280     2.0811     0.0034 O.2     
   5 N5            -1.1940     2.1162     0.0192 N.am    
   6 C6            -1.2138     3.5810     0.0273 C.3     
   7 C7            -2.5309     4.0765    -0.5734 C.3     
   8 C8            -2.5516     5.6063    -0.5650 C.3     
   9 C9            -2.4260     6.1102     0.8742 C.3     
  10 C10           -1.1090     5.6147     1.4749 C.3     
  11 C11           -1.0882     4.0848     1.4665 C.3     
  12 C12           -2.6565     3.5726    -2.0126 C.3     
  13 C13            1.2001    -2.1324    -0.0209 C.ar    
  14 C14            2.4230    -2.8224    -0.0362 C.ar    
  15 C15            2.4289    -4.2080    -0.0438 C.ar    
  16 C16            1.2367    -4.9063    -0.0362 C.ar    
  17 C17            0.0276    -4.2303    -0.0215 C.ar    
  18 C18            0.0010    -2.8527    -0.0075 C.ar    
  19 O19            3.5933    -2.1356    -0.0441 O.3     
  20 C20            4.7971    -2.9054    -0.0597 C.3     
  21 H21           -0.9258    -0.5567     0.0079 H       
  22 H22            2.1080    -0.1104    -0.0187 H       
  23 H23           -2.0274     1.6198     0.0205 H       
  24 H24           -0.3798     3.9589    -0.5641 H       
  25 H25           -3.3649     3.6985     0.0179 H       
  26 H26           -1.7176     5.9843    -1.1564 H       
  27 H27           -3.4899     5.9593    -0.9930 H       
  28 H28           -2.4408     7.2000     0.8802 H       
  29 H29           -3.2600     5.7322     1.4655 H       
  30 H30           -0.2750     5.9926     0.8835 H       
  31 H31           -1.0195     5.9736     2.5002 H       
  32 H32           -1.9222     3.7069     2.0578 H       
  33 H33           -0.1500     3.7318     1.8944 H       
  34 H34           -2.6417     2.4828    -2.0186 H       
  35 H35           -3.5947     3.9256    -2.4406 H       
  36 H36           -1.8225     3.9506    -2.6040 H       
  37 H37            3.3670    -4.7431    -0.0560 H       
  38 H38            1.2475    -5.9862    -0.0421 H       
  39 H39           -0.8986    -4.7858    -0.0164 H       
  40 H40           -0.9439    -2.3300     0.0088 H       
  41 H41            4.8178    -3.5295    -0.9531 H       
  42 H42            5.6568    -2.2353    -0.0647 H       
  43 H43            4.8351    -3.5385     0.8267 H       
@<TRIPOS>BOND
   1    1    2 1
   2    1    4 2
   3    1    5 am
   4    2    3 2
   5    2   21 1
   6    3   13 1
   7    3   22 1
   8    5    6 1
   9    5   23 1
  10    6    7 1
  11    6   11 1
  12    6   24 1
  13    7    8 1
  14    7   12 1
  15    7   25 1
  16    8    9 1
  17    8   26 1
  18    8   27 1
  19    9   10 1
  20    9   28 1
  21    9   29 1
  22   10   11 1
  23   10   30 1
  24   10   31 1
  25   11   32 1
  26   11   33 1
  27   12   34 1
  28   12   35 1
  29   12   36 1
  30   13   14 ar
  31   13   18 ar
  32   14   15 ar
  33   14   19 1
  34   15   16 ar
  35   15   37 1
  36   16   17 ar
  37   16   38 1
  38   17   18 ar
  39   17   39 1
  40   18   40 1
  41   19   20 1
  42   20   41 1
  43   20   42 1
  44   20   43 1

#	End of record

