#	Name: ASD02508187
#	Creating user name:	WinNT
#	Creation time:	15. 06. 2019 20:23

#	Modifying user name:	WinNT
#	Modification time:	15. 06. 2019 20:23

#	Program:	/corina/corina34_cracker 3.40 0067  02.08.2006

@<TRIPOS>MOLECULE
ASD02508187
  33   35    0    0    0
SMALL
NO_CHARGES


@<TRIPOS>ATOM
   1 C1             0.2700     0.6129    -0.3476 C.ar    
   2 C2             0.0223    -0.7463    -0.5431 C.ar    
   3 C3            -1.2528    -1.2721    -0.4365 C.ar    
   4 C4            -2.3158    -0.4448    -0.1301 C.ar    
   5 C5            -2.0911     0.9070     0.0676 C.ar    
   6 C6            -0.8245     1.4329    -0.0323 C.ar    
   7 S7            -3.9439    -1.1041     0.0074 S.o2    
   8 N8            -4.2119    -1.4180     1.6112 N.am    
   9 C9            -3.4097    -2.3413     2.2856 C.ar    
  10 N10            1.5962     0.9799    -0.4889 N.am    
  11 C11            2.4935     0.0361    -0.7894 C.2     
  12 S12            1.5884    -1.4819    -0.9109 S.3     
  13 O13           -4.8332    -0.0551    -0.3502 O.2     
  14 O14           -3.9236    -2.3638    -0.6500 O.2     
  15 C15            2.0086     2.3747    -0.3132 C.3     
  16 O16            3.6906     0.1888    -0.9483 O.2     
  17 C17           -2.8928    -2.0309     3.5374 C.ar    
  18 C18           -3.1319    -3.5737     1.7090 C.ar    
  19 C19           -2.3380    -4.4853     2.3796 C.ar    
  20 C20           -1.8211    -4.1705     3.6240 C.ar    
  21 C21           -2.1004    -2.9457     4.2023 C.ar    
  22 Cl22          -1.9896    -6.0263     1.6602 Cl      
  23 H23           -1.4171    -2.3279    -0.5931 H       
  24 H24           -2.9204     1.5559     0.3073 H       
  25 H25           -0.6713     2.4902     0.1261 H       
  26 H26           -4.9259    -0.9606     2.0822 H       
  27 H27            2.2651     2.5488     0.7318 H       
  28 H28            2.8772     2.5783    -0.9394 H       
  29 H29            1.1902     3.0346    -0.6013 H       
  30 H30           -3.1103    -1.0747     3.9899 H       
  31 H31           -3.5359    -3.8197     0.7381 H       
  32 H32           -1.2014    -4.8842     4.1464 H       
  33 H33           -1.6955    -2.7031     5.1736 H       
@<TRIPOS>BOND
   1    1    2 ar
   2    1   10 1
   3    1    6 ar
   4    2    3 ar
   5    2   12 1
   6    3    4 ar
   7    3   23 1
   8    4    5 ar
   9    4    7 1
  10    5    6 ar
  11    5   24 1
  12    6   25 1
  13    7    8 am
  14    7   13 2
  15    7   14 2
  16    8    9 1
  17    8   26 1
  18    9   17 ar
  19    9   18 ar
  20   10   11 am
  21   10   15 1
  22   11   12 1
  23   11   16 2
  24   15   27 1
  25   15   28 1
  26   15   29 1
  27   17   21 ar
  28   17   30 1
  29   18   19 ar
  30   18   31 1
  31   19   20 ar
  32   19   22 1
  33   20   21 ar
  34   20   32 1
  35   21   33 1

#	End of record

