#	Name: ASD01911328
#	Creating user name:	WinNT
#	Creation time:	15. 06. 2019 19:57

#	Modifying user name:	WinNT
#	Modification time:	15. 06. 2019 19:57

#	Program:	/corina/corina34_cracker 3.40 0067  02.08.2006

@<TRIPOS>MOLECULE
ASD01911328
  42   44    0    0    0
SMALL
NO_CHARGES


@<TRIPOS>ATOM
   1 C1            -0.1540     1.4696     0.5697 C.ar    
   2 C2            -0.0291     0.1108     0.3152 C.ar    
   3 C3            -1.1820    -0.6345     0.1079 C.ar    
   4 C4            -2.4213    -0.0037     0.1650 C.ar    
   5 N5            -2.4911     1.3003     0.4097 N.ar    
   6 C6            -1.4137     2.0317     0.6140 C.ar    
   7 O7            -1.0694    -1.9645    -0.1529 O.3     
   8 C8            -2.2659    -2.7431    -0.0415 C.3     
   9 C9            -3.3956    -1.9715    -0.7359 C.3     
  10 N10           -3.6082    -0.7069    -0.0227 N.3     
  11 C11            1.0694     2.3186     0.8008 C.3     
  12 O12            1.5293     2.8411    -0.4472 O.3     
  13 C13            2.6327     3.6338    -0.4152 C.ar    
  14 C14            3.1338     4.1750    -1.5903 C.ar    
  15 C15            4.2556     4.9804    -1.5551 C.ar    
  16 C16            4.8790     5.2472    -0.3501 C.ar    
  17 C17            4.3818     4.7087     0.8223 C.ar    
  18 C18            3.2566     3.9077     0.7932 C.ar    
  19 C19           -4.6085     0.1223    -0.7081 C.3     
  20 C20           -5.9710    -0.5715    -0.6520 C.3     
  21 O21           -6.4051    -0.6596     0.7066 O.3     
  22 C22           -7.7111    -1.2176     0.8644 C.3     
  23 H23            0.9439    -0.3565     0.2789 H       
  24 H24           -1.5177     3.0888     0.8096 H       
  25 H25           -2.1249    -3.7081    -0.5282 H       
  26 H26           -2.5127    -2.8918     1.0097 H       
  27 H27           -3.1167    -1.7661    -1.7694 H       
  28 H28           -4.3109    -2.5630    -0.7122 H       
  29 H29            0.8191     3.1423     1.4694 H       
  30 H30            1.8539     1.7105     1.2513 H       
  31 H31            2.6475     3.9665    -2.5318 H       
  32 H32            4.6463     5.4016    -2.4696 H       
  33 H33            5.7559     5.8771    -0.3247 H       
  34 H34            4.8709     4.9181     1.7622 H       
  35 H35            2.8687     3.4873     1.7093 H       
  36 H36           -4.6745     1.0928    -0.2163 H       
  37 H37           -4.3141     0.2613    -1.7483 H       
  38 H38           -6.6956     0.0036    -1.2284 H       
  39 H39           -5.8859    -1.5738    -1.0719 H       
  40 H40           -8.4264    -0.6395     0.2794 H       
  41 H41           -7.7090    -2.2510     0.5176 H       
  42 H42           -7.9941    -1.1881     1.9166 H       
@<TRIPOS>BOND
   1    1    2 ar
   2    1   11 1
   3    1    6 ar
   4    2    3 ar
   5    2   23 1
   6    3    4 ar
   7    3    7 1
   8    4    5 ar
   9    4   10 1
  10    5    6 ar
  11    6   24 1
  12    7    8 1
  13    8    9 1
  14    8   25 1
  15    8   26 1
  16    9   10 1
  17    9   27 1
  18    9   28 1
  19   10   19 1
  20   11   12 1
  21   11   29 1
  22   11   30 1
  23   12   13 1
  24   13   14 ar
  25   13   18 ar
  26   14   15 ar
  27   14   31 1
  28   15   16 ar
  29   15   32 1
  30   16   17 ar
  31   16   33 1
  32   17   18 ar
  33   17   34 1
  34   18   35 1
  35   19   20 1
  36   19   36 1
  37   19   37 1
  38   20   21 1
  39   20   38 1
  40   20   39 1
  41   21   22 1
  42   22   40 1
  43   22   41 1
  44   22   42 1

#	End of record

