#	Name: ASD01030022
#	Creating user name:	WinNT
#	Creation time:	15. 06. 2019 18:58

#	Modifying user name:	WinNT
#	Modification time:	15. 06. 2019 18:58

#	Program:	/corina/corina34_cracker 3.40 0067  02.08.2006

@<TRIPOS>MOLECULE
ASD01030022
  26   25    0    0    0
SMALL
NO_CHARGES


@<TRIPOS>ATOM
   1 C1            -0.0184     1.5028     0.0103 C.3     
   2 C2             0.0021    -0.0041     0.0020 C.2     
   3 C3            -0.6308    -0.6728     0.9338 C.2     
   4 P4             1.6919     2.1338    -0.0026 P.3     
   5 O5             2.4706     1.6004     1.3017 O.3     
   6 O6             2.4455     1.6145    -1.3273 O.3     
   7 O7             1.6718     3.6136     0.0055 O.2     
   8 C8             3.8001     2.0053     1.6343 C.3     
   9 C9             4.2349     1.3146     2.9284 C.3     
  10 C10            3.7684     2.0231    -1.6808 C.3     
  11 C11            4.1784     1.3464    -2.9903 C.3     
  12 H12           -0.5455     1.8639    -0.8728 H       
  13 H13           -0.5286     1.8543     0.9071 H       
  14 H14            0.5385    -0.5326    -0.7721 H       
  15 H15           -0.6162    -1.7527     0.9279 H       
  16 H16           -1.1672    -0.1443     1.7080 H       
  17 H17            4.4776     1.7254     0.8276 H       
  18 H18            3.8268     3.0862     1.7726 H       
  19 H19            4.2082     0.2338     2.7900 H       
  20 H20            5.2490     1.6235     3.1820 H       
  21 H21            3.5573     1.5946     3.7350 H       
  22 H22            3.7926     3.1054    -1.8080 H       
  23 H23            4.4612     1.7346    -0.8903 H       
  24 H24            4.1542     0.2641    -2.8631 H       
  25 H25            3.4856     1.6349    -3.7808 H       
  26 H26            5.1875     1.6581    -3.2599 H       
@<TRIPOS>BOND
   1    1    2 1
   2    1    4 1
   3    1   12 1
   4    1   13 1
   5    2    3 2
   6    2   14 1
   7    3   15 1
   8    3   16 1
   9    4    5 1
  10    4    6 1
  11    4    7 2
  12    5    8 1
  13    6   10 1
  14    8    9 1
  15    8   17 1
  16    8   18 1
  17    9   19 1
  18    9   20 1
  19    9   21 1
  20   10   11 1
  21   10   22 1
  22   10   23 1
  23   11   24 1
  24   11   25 1
  25   11   26 1

#	End of record

