#	Name: ASD07931708
#	Creating user name:	WinNT
#	Creation time:	15. 06. 2019 21:13

#	Modifying user name:	WinNT
#	Modification time:	15. 06. 2019 21:13

#	Program:	/corina/corina34_cracker 3.40 0067  02.08.2006

@<TRIPOS>MOLECULE
ASD07931708
  54   58    0    0    0
SMALL
NO_CHARGES


@<TRIPOS>ATOM
   1 C1             0.1629     3.9165    -0.5972 C.2     
   2 C2            -0.3202     2.6667    -0.3215 C.2     
   3 C3             0.6305     1.5877    -0.0418 C.2     
   4 N4             1.9487     1.8507    -0.0608 N.am    
   5 C5             2.4101     3.1165    -0.3431 C.2     
   6 C6             1.5461     4.1346    -0.6061 C.2     
   7 C7             2.9289     0.7934     0.2213 C.3     
   8 C8             4.1061     0.9642    -0.7504 C.3     
   9 N9             4.6966     2.2934    -0.5389 N.am    
  10 C10            3.8709     3.3517    -0.3569 C.2     
  11 C11            6.1508     2.4705    -0.5250 C.3     
  12 O12            0.2302     0.4630     0.2061 O.2     
  13 N13           -1.6965     2.4235    -0.3065 N.pl3   
  14 C14           -2.5501     2.5023    -1.3769 C.2     
  15 C15           -2.4409     2.0586     0.7705 C.2     
  16 N16           -3.6825     1.9250     0.3912 N.2     
  17 C17           -3.7780     2.1912    -0.9202 C.2     
  18 C18           -5.0414     2.1491    -1.7406 C.3     
  19 O19            4.3207     4.4715    -0.2085 O.2     
  20 C20            6.8667     1.6055     0.5257 C.3     
  21 C21            7.9598     1.3676    -0.5294 C.3     
  22 C22            6.8826     1.6401    -1.5926 C.3     
  23 O23            7.3194     2.3435     1.6626 O.3     
  24 C24            7.5708     1.6373     2.7967 C.ar    
  25 C25            7.5025     0.2522     2.7812 C.ar    
  26 C26            7.7586    -0.4650     3.9343 C.ar    
  27 C27            8.0829     0.1981     5.1051 C.ar    
  28 C28            8.1517     1.5822     5.1225 C.ar    
  29 C29            7.9015     2.3013     3.9689 C.ar    
  30 F30            8.3322    -0.5044     6.2318 F       
  31 Cl31           8.5580     2.4125     6.5919 Cl      
  32 C32            7.9766     3.8064     3.9874 C.3     
  33 H33           -0.5173     4.7278    -0.8108 H       
  34 H34            1.9309     5.1199    -0.8240 H       
  35 H35            3.2830     0.8839     1.2482 H       
  36 H36            2.4690    -0.1839     0.0744 H       
  37 H37            4.8548     0.1959    -0.5573 H       
  38 H38            3.7487     0.8814    -1.7768 H       
  39 H39            6.4494     3.5186    -0.5047 H       
  40 H40           -2.2879     2.7638    -2.3914 H       
  41 H41           -2.0675     1.9045     1.7721 H       
  42 H42           -5.5178     3.1293    -1.7245 H       
  43 H43           -4.7983     1.8800    -2.7685 H       
  44 H44           -5.7218     1.4075    -1.3221 H       
  45 H45            6.3176     0.7037     0.7965 H       
  46 H46            8.7540     2.1139    -0.5113 H       
  47 H47            8.3382     0.3455    -0.5433 H       
  48 H48            6.3378     0.7478    -1.9009 H       
  49 H49            7.2408     2.2310    -2.4356 H       
  50 H50            7.2488    -0.2658     1.8682 H       
  51 H51            7.7054    -1.5436     3.9220 H       
  52 H52            8.9916     4.1225     3.7465 H       
  53 H53            7.2846     4.2138     3.2503 H       
  54 H54            7.7080     4.1714     4.9787 H       
@<TRIPOS>BOND
   1    1    2 2
   2    1    6 1
   3    1   33 1
   4    2    3 1
   5    2   13 1
   6    3    4 am
   7    3   12 2
   8    4    5 1
   9    4    7 1
  10    5    6 2
  11    5   10 1
  12    6   34 1
  13    7    8 1
  14    7   35 1
  15    7   36 1
  16    8    9 1
  17    8   37 1
  18    8   38 1
  19    9   10 am
  20    9   11 1
  21   10   19 2
  22   11   20 1
  23   11   22 1
  24   11   39 1
  25   13   14 1
  26   13   15 1
  27   14   17 2
  28   14   40 1
  29   15   16 2
  30   15   41 1
  31   16   17 1
  32   17   18 1
  33   18   42 1
  34   18   43 1
  35   18   44 1
  36   20   21 1
  37   20   23 1
  38   20   45 1
  39   21   22 1
  40   21   46 1
  41   21   47 1
  42   22   48 1
  43   22   49 1
  44   23   24 1
  45   24   25 ar
  46   24   29 ar
  47   25   26 ar
  48   25   50 1
  49   26   27 ar
  50   26   51 1
  51   27   28 ar
  52   27   30 1
  53   28   29 ar
  54   28   31 1
  55   29   32 1
  56   32   52 1
  57   32   53 1
  58   32   54 1

#	End of record

