#	Name: ASD03330921
#	Creating user name:	WinNT
#	Creation time:	15. 06. 2019 20:38

#	Modifying user name:	WinNT
#	Modification time:	15. 06. 2019 20:38

#	Program:	/corina/corina34_cracker 3.40 0067  02.08.2006

@<TRIPOS>MOLECULE
ASD03330921
  67   70    0    0    0
SMALL
NO_CHARGES


@<TRIPOS>ATOM
   1 N1            -0.1228     1.3683     0.4440 N.pl3   
   2 C2             0.1703     0.0434     0.3537 C.2     
   3 C3             1.5435    -0.5394     0.1442 C.3     
   4 N4             2.4872     0.1047     1.0711 N.3     
   5 C5             3.0700     1.3113     0.4810 C.3     
   6 C6             2.0648     2.0158    -0.4258 C.3     
   7 C7             0.8512     2.4624     0.3940 C.3     
   8 C8            -1.4740     1.4783     0.5995 C.2     
   9 N9            -1.9924     0.2726     0.6228 N.2     
  10 C10           -1.0030    -0.6362     0.4762 C.2     
  11 C11           -1.1653    -2.1005     0.4523 C.2     
  12 O12           -0.1931    -2.8179     0.3127 O.2     
  13 N13           -2.3910    -2.6450     0.5851 N.am    
  14 C14           -2.2282     2.7442     0.7220 C.ar    
  15 C15           -3.3963     2.9392    -0.0201 C.ar    
  16 C16           -4.0974     4.1239     0.0986 C.ar    
  17 C17           -3.6441     5.1172     0.9507 C.ar    
  18 C18           -2.4844     4.9288     1.6895 C.ar    
  19 C19           -1.7794     3.7461     1.5832 C.ar    
  20 F20           -2.0473     5.9021     2.5182 F       
  21 F21           -4.3331     6.2739     1.0627 F       
  22 F22           -3.8389     1.9713    -0.8522 F       
  23 C23           -3.9504    -4.4442     0.1161 C.2     
  24 C24           -2.5523    -4.1009     0.5614 C.3     
  25 C25           -2.3110    -4.6637     1.9635 C.3     
  26 C26           -3.3751    -4.1226     2.9204 C.3     
  27 O27           -4.8358    -3.6205     0.2086 O.2     
  28 N28           -4.2170    -5.6667    -0.3850 N.am    
  29 C29           -5.5955    -6.0397    -0.7118 C.3     
  30 C30           -2.3925    -6.1910     1.9210 C.3     
  31 C31           -0.9239    -4.2404     2.4512 C.3     
  32 C32            3.5354    -0.8344     1.4922 C.3     
  33 C33            4.6273    -0.0746     2.2481 C.3     
  34 C34            5.7370    -0.8989     2.9037 C.3     
  35 C35            6.0346    -0.0772     1.6479 C.3     
  36 H36            1.5176    -1.6118     0.3376 H       
  37 H37            1.8623    -0.3609    -0.8827 H       
  38 H38            3.3703     1.9908     1.2786 H       
  39 H39            3.9479     1.0361    -0.1034 H       
  40 H40            2.5357     2.8874    -0.8804 H       
  41 H41            1.7408     1.3303    -1.2089 H       
  42 H42            0.3958     3.3346    -0.0749 H       
  43 H43            1.1679     2.7149     1.4059 H       
  44 H44           -3.1663    -2.0729     0.6965 H       
  45 H45           -5.0002     4.2757    -0.4743 H       
  46 H46           -0.8795     3.5988     2.1620 H       
  47 H47           -1.8329    -4.5349    -0.1331 H       
  48 H48           -4.3633    -4.4242     2.5729 H       
  49 H49           -3.2032    -4.5235     3.9193 H       
  50 H50           -3.3170    -3.0346     2.9506 H       
  51 H51           -3.4962    -6.2995    -0.5291 H       
  52 H52           -6.2099    -5.9837     0.1868 H       
  53 H53           -5.9885    -5.3554    -1.4638 H       
  54 H54           -5.6138    -7.0574    -1.1017 H       
  55 H55           -1.7142    -6.5699     1.1566 H       
  56 H56           -2.1090    -6.5971     2.8920 H       
  57 H57           -3.4124    -6.4939     1.6843 H       
  58 H58           -0.8658    -3.1524     2.4815 H       
  59 H59           -0.7520    -4.6414     3.4501 H       
  60 H60           -0.1658    -4.6259     1.7695 H       
  61 H61            3.1028    -1.5932     2.1443 H       
  62 H62            3.9679    -1.3137     0.6139 H       
  63 H63            4.3009     0.8293     2.7625 H       
  64 H64            6.1409    -0.5372     3.8493 H       
  65 H65            5.6892    -1.9826     2.7965 H       
  66 H66            6.1826    -0.6203     0.7145 H       
  67 H67            6.6344     0.8251     1.7673 H       
@<TRIPOS>BOND
   1    1    2 1
   2    1    7 1
   3    1    8 1
   4    2    3 1
   5    2   10 2
   6    3    4 1
   7    3   36 1
   8    3   37 1
   9    4    5 1
  10    4   32 1
  11    5    6 1
  12    5   38 1
  13    5   39 1
  14    6    7 1
  15    6   40 1
  16    6   41 1
  17    7   42 1
  18    7   43 1
  19    8    9 2
  20    8   14 1
  21    9   10 1
  22   10   11 1
  23   11   12 2
  24   11   13 am
  25   13   24 1
  26   13   44 1
  27   14   15 ar
  28   14   19 ar
  29   15   16 ar
  30   15   22 1
  31   16   17 ar
  32   16   45 1
  33   17   18 ar
  34   17   21 1
  35   18   19 ar
  36   18   20 1
  37   19   46 1
  38   23   27 2
  39   23   28 am
  40   23   24 1
  41   24   25 1
  42   24   47 1
  43   25   26 1
  44   25   30 1
  45   25   31 1
  46   26   48 1
  47   26   49 1
  48   26   50 1
  49   28   29 1
  50   28   51 1
  51   29   52 1
  52   29   53 1
  53   29   54 1
  54   30   55 1
  55   30   56 1
  56   30   57 1
  57   31   58 1
  58   31   59 1
  59   31   60 1
  60   32   33 1
  61   32   61 1
  62   32   62 1
  63   33   34 1
  64   33   35 1
  65   33   63 1
  66   34   35 1
  67   34   64 1
  68   34   65 1
  69   35   66 1
  70   35   67 1

#	End of record

