#	Name: ASD03092635
#	Creating user name:	WinNT
#	Creation time:	15. 06. 2019 20:32

#	Modifying user name:	WinNT
#	Modification time:	15. 06. 2019 20:32

#	Program:	/corina/corina34_cracker 3.40 0067  02.08.2006

@<TRIPOS>MOLECULE
ASD03092635
  53   56    0    0    0
SMALL
NO_CHARGES


@<TRIPOS>ATOM
   1 C1             1.0910     1.6360    -0.8832 C.ar    
   2 C2             1.0103     0.2398    -1.0609 C.ar    
   3 C3             1.7578    -0.6023    -0.2081 C.ar    
   4 C4             2.5433    -0.0013     0.7738 C.ar    
   5 C5             2.5628     1.3811     0.8769 C.ar    
   6 N6             1.8573     2.1435     0.0707 N.ar    
   7 N7            -0.3022     1.1563    -2.5781 N.2     
   8 N8             0.2703     2.1938    -1.8328 N.pl3   
   9 C9             0.1282     0.0080    -2.1380 C.2     
  10 C10            1.7080    -2.0726    -0.3520 C.2     
  11 O11            0.6662    -2.6184    -0.6594 O.2     
  12 N12            2.8178    -2.8082    -0.1423 N.am    
  13 C13            3.6119    -4.9138    -1.0328 C.ar    
  14 C14            2.7534    -4.2039    -0.2029 C.ar    
  15 C15            1.8279    -4.9027     0.5682 C.ar    
  16 C16            1.8028    -6.2847     0.4742 C.ar    
  17 C17            2.6897    -6.9199    -0.3748 C.ar    
  18 N18            3.5541    -6.2290    -1.0924 N.ar    
  19 C19            0.8775    -4.1737     1.4828 C.3     
  20 C20            4.6149    -4.1721    -1.8783 C.3     
  21 C21            3.4138     2.0262     1.9403 C.3     
  22 C22           -0.2586    -1.3430    -2.6822 C.3     
  23 C23            0.0449     3.5630    -2.0222 C.ar    
  24 C24           -0.1499     4.0647    -3.3016 C.ar    
  25 C25           -0.3726     5.4201    -3.4851 C.ar    
  26 C26           -0.4004     6.2725    -2.3900 C.ar    
  27 C27           -0.2062     5.7713    -1.1171 C.ar    
  28 C28            0.0104     4.4197    -0.9296 C.ar    
  29 O29           -0.5633     5.9146    -4.7365 O.3     
  30 C30           -0.7874     7.3212    -4.8512 C.3     
  31 H31            3.1309    -0.6067     1.4481 H       
  32 H32            3.6611    -2.3695     0.0505 H       
  33 H33            1.0987    -6.8591     1.0578 H       
  34 H34            2.6743    -7.9970    -0.4518 H       
  35 H35           -0.0816    -4.0441     0.9815 H       
  36 H36            0.7353    -4.7527     2.3952 H       
  37 H37            1.2916    -3.1969     1.7331 H       
  38 H38            5.5698    -4.1280    -1.3545 H       
  39 H39            4.7449    -4.6918    -2.8276 H       
  40 H40            4.2555    -3.1600    -2.0645 H       
  41 H41            4.4095     2.2195     1.5411 H       
  42 H42            2.9576     2.9665     2.2498 H       
  43 H43            3.4898     1.3593     2.7990 H       
  44 H44           -1.0747    -1.7541    -2.0879 H       
  45 H45           -0.5804    -1.2388    -3.7184 H       
  46 H46            0.5995    -2.0134    -2.6340 H       
  47 H47           -0.1277     3.4000    -4.1526 H       
  48 H48           -0.5736     7.3289    -2.5330 H       
  49 H49           -0.2279     6.4367    -0.2667 H       
  50 H50            0.1571     4.0297     0.0668 H       
  51 H51           -1.6808     7.5938    -4.2893 H       
  52 H52            0.0717     7.8598    -4.4512 H       
  53 H53           -0.9241     7.5830    -5.9004 H       
@<TRIPOS>BOND
   1    1    2 ar
   2    1    6 ar
   3    1    8 1
   4    2    3 ar
   5    2    9 1
   6    3    4 ar
   7    3   10 1
   8    4    5 ar
   9    4   31 1
  10    5    6 ar
  11    5   21 1
  12    7    8 1
  13    7    9 2
  14    8   23 1
  15    9   22 1
  16   10   11 2
  17   10   12 am
  18   12   14 1
  19   12   32 1
  20   13   14 ar
  21   13   18 ar
  22   13   20 1
  23   14   15 ar
  24   15   16 ar
  25   15   19 1
  26   16   17 ar
  27   16   33 1
  28   17   18 ar
  29   17   34 1
  30   19   35 1
  31   19   36 1
  32   19   37 1
  33   20   38 1
  34   20   39 1
  35   20   40 1
  36   21   41 1
  37   21   42 1
  38   21   43 1
  39   22   44 1
  40   22   45 1
  41   22   46 1
  42   23   24 ar
  43   23   28 ar
  44   24   25 ar
  45   24   47 1
  46   25   26 ar
  47   25   29 1
  48   26   27 ar
  49   26   48 1
  50   27   28 ar
  51   27   49 1
  52   28   50 1
  53   29   30 1
  54   30   51 1
  55   30   52 1
  56   30   53 1

#	End of record

