#	Name: ASD02030627
#	Creating user name:	WinNT
#	Creation time:	15. 06. 2019 20:15

#	Modifying user name:	WinNT
#	Modification time:	15. 06. 2019 20:15

#	Program:	/corina/corina34_cracker 3.40 0067  02.08.2006

@<TRIPOS>MOLECULE
ASD02030627
  64   67    0    0    0
SMALL
NO_CHARGES


@<TRIPOS>ATOM
   1 C1             0.1561     1.1544    -0.0908 C.ar    
   2 C2             0.0173    -0.2172    -0.0945 C.ar    
   3 C3             1.1461    -1.0214    -0.1619 C.ar    
   4 C4             2.4005    -0.4394    -0.2190 C.ar    
   5 C5             2.5384     0.9426    -0.2088 C.ar    
   6 C6             1.4150     1.7374    -0.1537 C.ar    
   7 C7             1.4914     3.2436    -0.1730 C.3     
   8 C8             3.9354     1.5043    -0.2444 C.3     
   9 C9             3.9256     2.9574    -0.7161 C.3     
  10 N10            2.8793     3.6707     0.0333 N.am    
  11 C11            0.9949     3.7613    -1.5245 C.3     
  12 O12            1.7377     3.1392    -2.5749 O.3     
  13 C13            1.4189     3.4917    -3.8489 C.ar    
  14 C14            3.1847     4.6768     0.8764 C.2     
  15 O15            4.3476     4.9623     1.0861 O.2     
  16 C16            2.1059     5.4330     1.5461 C.ar    
  17 C17            0.7696     4.2089    -6.4427 C.ar    
  18 C18            0.0923     4.7793    -5.3752 C.ar    
  19 C19            0.4161     4.4212    -4.0810 C.ar    
  20 C20            2.1006     2.9259    -4.9162 C.ar    
  21 C21            1.7767     3.2840    -6.2104 C.ar    
  22 C22            2.2838     5.9024     2.8486 C.ar    
  23 C23            0.9071     5.6855     0.8763 C.ar    
  24 C24           -0.0961     6.3919     1.5055 C.ar    
  25 C25            0.0831     6.8511     2.7999 C.ar    
  26 C26            1.2726     6.6085     3.4685 C.ar    
  27 O27            0.4509     4.5615    -7.7167 O.3     
  28 C28            1.1892     3.9344    -8.7673 C.3     
  29 C29            0.6934     4.4529   -10.1188 C.3     
  30 O30            1.0205    -2.3746    -0.1713 O.3     
  31 C31           -0.2926    -2.9055     0.0181 C.3     
  32 C32           -0.9400    -3.1629    -1.3441 C.3     
  33 C33           -0.2040    -4.2194     0.7970 C.3     
  34 Cl34          -1.1846     7.7398     3.5853 Cl      
  35 Cl35           1.4909     7.1929     5.0885 Cl      
  36 H36           -0.7222     1.7811    -0.0431 H       
  37 H37           -0.9649    -0.6635    -0.0447 H       
  38 H38            3.2793    -1.0650    -0.2717 H       
  39 H39            0.8653     3.6487     0.6220 H       
  40 H40            4.3673     1.4547     0.7551 H       
  41 H41            4.5434     0.9100    -0.9266 H       
  42 H42            4.8957     3.4147    -0.5215 H       
  43 H43            3.7059     2.9972    -1.7830 H       
  44 H44           -0.0629     3.5244    -1.6379 H       
  45 H45            1.1326     4.8415    -1.5726 H       
  46 H46           -0.6920     5.4996    -5.5560 H       
  47 H47           -0.1119     4.8648    -3.2498 H       
  48 H48            2.8848     2.2057    -4.7353 H       
  49 H49            2.3042     2.8398    -7.0416 H       
  50 H50            3.2103     5.7133     3.3702 H       
  51 H51            0.7659     5.3284    -0.1332 H       
  52 H52           -1.0234     6.5879     0.9878 H       
  53 H53            2.2483     4.1662    -8.6556 H       
  54 H54            1.0463     2.8550    -8.7177 H       
  55 H55           -0.3657     4.2211   -10.2305 H       
  56 H56            0.8363     5.5323   -10.1684 H       
  57 H57            1.2566     3.9746   -10.9202 H       
  58 H58           -0.8961    -2.1912     0.5780 H       
  59 H59           -1.9416    -3.5679    -1.1997 H       
  60 H60           -1.0031    -2.2269    -1.8990 H       
  61 H61           -0.3365    -3.8773    -1.9041 H       
  62 H62            0.2572    -4.0361     1.7675 H       
  63 H63           -1.2056    -4.6244     0.9415 H       
  64 H64            0.3995    -4.9338     0.2371 H       
@<TRIPOS>BOND
   1    1    2 ar
   2    1    6 ar
   3    1   36 1
   4    2    3 ar
   5    2   37 1
   6    3    4 ar
   7    3   30 1
   8    4    5 ar
   9    4   38 1
  10    5    6 ar
  11    5    8 1
  12    6    7 1
  13    7   10 1
  14    7   11 1
  15    7   39 1
  16    8    9 1
  17    8   40 1
  18    8   41 1
  19    9   10 1
  20    9   42 1
  21    9   43 1
  22   10   14 am
  23   11   12 1
  24   11   44 1
  25   11   45 1
  26   12   13 1
  27   13   20 ar
  28   13   19 ar
  29   14   15 2
  30   14   16 1
  31   16   23 ar
  32   16   22 ar
  33   17   18 ar
  34   17   21 ar
  35   17   27 1
  36   18   19 ar
  37   18   46 1
  38   19   47 1
  39   20   21 ar
  40   20   48 1
  41   21   49 1
  42   22   26 ar
  43   22   50 1
  44   23   24 ar
  45   23   51 1
  46   24   25 ar
  47   24   52 1
  48   25   26 ar
  49   25   34 1
  50   26   35 1
  51   27   28 1
  52   28   29 1
  53   28   53 1
  54   28   54 1
  55   29   55 1
  56   29   56 1
  57   29   57 1
  58   30   31 1
  59   31   32 1
  60   31   33 1
  61   31   58 1
  62   32   59 1
  63   32   60 1
  64   32   61 1
  65   33   62 1
  66   33   63 1
  67   33   64 1

#	End of record

