#	Name: ASD01028157
#	Creating user name:	WinNT
#	Creation time:	15. 06. 2019 18:56

#	Modifying user name:	WinNT
#	Modification time:	15. 06. 2019 18:56

#	Program:	/corina/corina34_cracker 3.40 0067  02.08.2006

@<TRIPOS>MOLECULE
ASD01028157
  56   59    0    0    0
SMALL
NO_CHARGES


@<TRIPOS>ATOM
   1 C1            -0.3870     1.7200    -0.0933 C.2     
   2 C2            -0.2786     0.2505    -0.1294 C.ar    
   3 C3            -1.3906    -0.5533     0.1481 C.ar    
   4 C4            -1.2367    -1.9272     0.1005 C.ar    
   5 C5            -0.0015    -2.4642    -0.2167 C.ar    
   6 N6             1.0343    -1.6902    -0.4746 N.ar    
   7 C7             0.9415    -0.3694    -0.4488 C.ar    
   8 O8             0.6080     2.4065    -0.2259 O.2     
   9 N9            -1.5896     2.3029     0.0812 N.am    
  10 N10            2.0524     0.4037    -0.7318 N.pl3   
  11 C11            3.3539    -0.2342    -0.9448 C.3     
  12 C12            4.3894     0.8216    -1.2344 C.ar    
  13 C13            5.0997     1.3954    -0.1964 C.ar    
  14 C14            6.0499     2.3634    -0.4608 C.ar    
  15 C15            6.2905     2.7585    -1.7658 C.ar    
  16 C16            5.5785     2.1831    -2.8046 C.ar    
  17 C17            4.6324     1.2115    -2.5383 C.ar    
  18 F18            7.2189     3.7050    -2.0254 F       
  19 C19           -1.6797     3.6913     0.2227 C.ar    
  20 C20           -2.7850     4.3700    -0.2720 C.ar    
  21 C21           -2.8709     5.7457    -0.1295 C.ar    
  22 C22           -1.8524     6.4417     0.5071 C.ar    
  23 C23           -0.7527     5.7646     0.9984 C.ar    
  24 C24           -0.6660     4.3924     0.8634 C.ar    
  25 C25            0.3515     6.5237     1.6880 C.3     
  26 F26            0.0384     7.8871     1.7077 F       
  27 F27            0.4889     6.0578     2.9999 F       
  28 F28            1.5523     6.3310     0.9965 F       
  29 O29           -3.9514     6.4132    -0.6130 O.3     
  30 C30           -4.9610     5.6333    -1.2568 C.3     
  31 N31           -8.1743     6.6570    -1.8307 N.3     
  32 C32           -7.1777     5.8393    -2.5471 C.3     
  33 C33           -6.0893     6.5512    -1.7314 C.3     
  34 C34           -7.2196     6.7380    -0.7096 C.3     
  35 H35           -2.3450    -0.1117     0.3937 H       
  36 H36           -2.0744    -2.5760     0.3097 H       
  37 H37            0.1165    -3.5371    -0.2533 H       
  38 H38           -2.3925     1.7595     0.1087 H       
  39 H39            1.9699     1.3685    -0.7894 H       
  40 H40            3.6387    -0.7866    -0.0493 H       
  41 H41            3.2884    -0.9202    -1.7894 H       
  42 H42            4.9117     1.0874     0.8215 H       
  43 H43            6.6045     2.8118     0.3503 H       
  44 H44            5.7652     2.4905    -3.8229 H       
  45 H45            4.0799     0.7596    -3.3487 H       
  46 H46           -3.5763     3.8269    -0.7672 H       
  47 H47           -1.9195     7.5139     0.6181 H       
  48 H48            0.1925     3.8650     1.2523 H       
  49 H49           -4.5292     5.1156    -2.1133 H       
  50 H50           -5.3592     4.9021    -0.5532 H       
  51 H51           -8.2895     7.5564    -2.2732 H       
  52 H52           -7.2546     4.7736    -2.3316 H       
  53 H53           -7.1286     6.0516    -3.6151 H       
  54 H54           -5.7306     7.4780    -2.1790 H       
  55 H55           -7.2060     7.7119    -0.2203 H       
  56 H56           -7.3077     5.9121    -0.0037 H       
@<TRIPOS>BOND
   1    1    2 1
   2    1    8 2
   3    1    9 am
   4    2    3 ar
   5    2    7 ar
   6    3    4 ar
   7    3   35 1
   8    4    5 ar
   9    4   36 1
  10    5    6 ar
  11    5   37 1
  12    6    7 ar
  13    7   10 1
  14    9   19 1
  15    9   38 1
  16   10   11 1
  17   10   39 1
  18   11   12 1
  19   11   40 1
  20   11   41 1
  21   12   13 ar
  22   12   17 ar
  23   13   14 ar
  24   13   42 1
  25   14   15 ar
  26   14   43 1
  27   15   16 ar
  28   15   18 1
  29   16   17 ar
  30   16   44 1
  31   17   45 1
  32   19   20 ar
  33   19   24 ar
  34   20   21 ar
  35   20   46 1
  36   21   22 ar
  37   21   29 1
  38   22   23 ar
  39   22   47 1
  40   23   24 ar
  41   23   25 1
  42   24   48 1
  43   25   26 1
  44   25   27 1
  45   25   28 1
  46   29   30 1
  47   30   33 1
  48   30   49 1
  49   30   50 1
  50   31   32 1
  51   31   34 1
  52   31   51 1
  53   32   33 1
  54   32   52 1
  55   32   53 1
  56   33   34 1
  57   33   54 1
  58   34   55 1
  59   34   56 1

#	End of record

