#	Name: ASD01881885
#	Creating user name:	WinNT
#	Creation time:	15. 06. 2019 19:43

#	Modifying user name:	WinNT
#	Modification time:	15. 06. 2019 19:43

#	Program:	/corina/corina34_cracker 3.40 0067  02.08.2006

@<TRIPOS>MOLECULE
ASD01881885
  57   61    0    0    0
SMALL
NO_CHARGES


@<TRIPOS>ATOM
   1 C1            -0.0161     1.3337     0.0094 C.2     
   2 N2             0.0021    -0.0041     0.0020 N.am    
   3 C3             1.2613    -0.4841    -0.0126 C.2     
   4 C4             2.1640     0.7337    -0.0147 C.3     
   5 N5             1.2200     1.8645     0.0004 N.am    
   6 O6            -1.0354     1.9955     0.0180 O.2     
   7 O7             1.6013    -1.6477    -0.0215 O.2     
   8 C8            -1.1986    -0.8435     0.0097 C.3     
   9 C9            -1.6312    -1.1279    -1.4300 C.3     
  10 C10           -2.8089    -2.1046    -1.4251 C.3     
  11 C11           -2.0554     0.1791    -2.1027 C.3     
  12 C12            1.5609     3.2893     0.0041 C.3     
  13 C13            1.6916     3.7708     1.4261 C.ar    
  14 C14            2.9399     3.8057     2.0209 C.ar    
  15 C15            3.0554     4.2487     3.3270 C.ar    
  16 C16            1.8945     4.6463     3.9974 C.ar    
  17 C17            0.6740     4.5813     3.3279 C.ar    
  18 N18            0.6146     4.1575     2.0820 N.ar    
  19 C19            1.8481     6.5416     9.3834 C.2     
  20 N20            0.5397     6.7889     9.5656 N.am    
  21 C21           -0.1801     6.4571     8.3308 C.3     
  22 C22            0.8608     5.9690     7.3541 C.ar    
  23 C23            0.7953     5.5232     6.0572 C.ar    
  24 C24            1.9610     5.1288     5.3979 C.ar    
  25 C25            3.1885     5.1887     6.0585 C.ar    
  26 C26            3.2540     5.6351     7.3587 C.ar    
  27 C27            2.0882     6.0307     8.0212 C.ar    
  28 O28            2.7115     6.7189    10.2208 O.2     
  29 C29           -0.0680     7.3044    10.7949 C.3     
  30 C30            0.0962     6.4710    12.0674 C.3     
  31 C31            0.8738     7.7784    11.9036 C.3     
  32 H32            2.7924     0.7467     0.8759 H       
  33 H33            2.7753     0.7564    -0.9169 H       
  34 H34           -0.9813    -1.7838     0.5163 H       
  35 H35           -2.0010    -0.3250     0.5345 H       
  36 H36           -0.7983    -1.5659    -1.9799 H       
  37 H37           -3.6419    -1.6666    -0.8752 H       
  38 H38           -3.1172    -2.3073    -2.4507 H       
  39 H39           -2.5067    -3.0358    -0.9458 H       
  40 H40           -2.8884     0.6171    -1.5528 H       
  41 H41           -1.2164     0.8749    -2.1062 H       
  42 H42           -2.3637    -0.0236    -3.1284 H       
  43 H43            2.5060     3.4381    -0.5182 H       
  44 H44            0.7749     3.8522    -0.4994 H       
  45 H45            3.8150     3.4903     1.4722 H       
  46 H46            4.0176     4.2859     3.8161 H       
  47 H47           -0.2307     4.8850     3.8336 H       
  48 H48           -0.9111     5.6718     8.5228 H       
  49 H49           -0.6767     7.3438     7.9369 H       
  50 H50           -0.1562     5.4774     5.5482 H       
  51 H51            4.0900     4.8834     5.5481 H       
  52 H52            4.2057     5.6795     7.8673 H       
  53 H53           -1.0054     7.8452    10.6650 H       
  54 H54           -0.7330     6.4638    12.7749 H       
  55 H55            0.6564     5.5391    11.9900 H       
  56 H56            1.9456     7.7067    11.7183 H       
  57 H57            0.5562     8.6314    12.5032 H       
@<TRIPOS>BOND
   1    1    2 am
   2    1    5 am
   3    1    6 2
   4    2    3 am
   5    2    8 1
   6    3    4 1
   7    3    7 2
   8    4    5 1
   9    4   32 1
  10    4   33 1
  11    5   12 1
  12    8    9 1
  13    8   34 1
  14    8   35 1
  15    9   10 1
  16    9   11 1
  17    9   36 1
  18   10   37 1
  19   10   38 1
  20   10   39 1
  21   11   40 1
  22   11   41 1
  23   11   42 1
  24   12   13 1
  25   12   43 1
  26   12   44 1
  27   13   14 ar
  28   13   18 ar
  29   14   15 ar
  30   14   45 1
  31   15   16 ar
  32   15   46 1
  33   16   17 ar
  34   16   24 1
  35   17   18 ar
  36   17   47 1
  37   19   20 am
  38   19   27 1
  39   19   28 2
  40   20   21 1
  41   20   29 1
  42   21   22 1
  43   21   48 1
  44   21   49 1
  45   22   23 ar
  46   22   27 ar
  47   23   24 ar
  48   23   50 1
  49   24   25 ar
  50   25   26 ar
  51   25   51 1
  52   26   27 ar
  53   26   52 1
  54   29   30 1
  55   29   31 1
  56   29   53 1
  57   30   31 1
  58   30   54 1
  59   30   55 1
  60   31   56 1
  61   31   57 1

#	End of record

