#	Name: ASD01410107
#	Creating user name:	WinNT
#	Creation time:	15. 06. 2019 19:16

#	Modifying user name:	WinNT
#	Modification time:	15. 06. 2019 19:16

#	Program:	/corina/corina34_cracker 3.40 0067  02.08.2006

@<TRIPOS>MOLECULE
ASD01410107
  76   80    0    0    0
SMALL
NO_CHARGES


@<TRIPOS>ATOM
   1 C1            -0.0169     1.3986     0.0097 C.ar    
   2 C2             0.0021    -0.0041     0.0020 C.ar    
   3 C3            -1.1621    -0.7093     0.0089 C.ar    
   4 C4            -2.3912    -0.0347     0.0242 C.ar    
   5 C5            -2.4204     1.3751     0.0326 C.ar    
   6 C6            -1.2305     2.0850     0.0308 C.ar    
   7 C7            -3.7375    -0.4722     0.0343 C.2     
   8 C8            -4.5317     0.6283     0.0481 C.2     
   9 N9            -3.7465     1.7566     0.0472 N.pl3   
  10 C10           -6.0103     0.6156     0.0618 C.ar    
  11 C11           -6.7116    -0.2388    -0.7898 C.ar    
  12 C12           -8.0897     1.4373     0.9387 C.ar    
  13 C13           -6.7104     1.4540     0.9308 C.ar    
  14 C14           -4.2054    -1.9047     0.0301 C.3     
  15 C15           -3.6896    -2.6060    -1.2281 C.3     
  16 C16           -4.1647    -4.0603    -1.2324 C.3     
  17 C17           -3.6262    -4.7765     0.0078 C.3     
  18 C18           -4.1420    -4.0752     1.2659 C.3     
  19 C19           -3.6669    -2.6208     1.2702 C.3     
  20 C20            1.2513     2.1499     0.0017 C.2     
  21 O21            2.4258     1.4892    -0.0131 O.3     
  22 C22           -4.2368     3.1371     0.0604 C.3     
  23 C23           -4.3909     3.6018     1.4856 C.2     
  24 N24           -4.8320     4.8489     1.7439 N.am    
  25 O25            1.2377     3.3650     0.0083 O.2     
  26 O26           -4.1180     2.8536     2.4003 O.2     
  27 C27           -8.0913    -0.2458    -0.7721 C.ar    
  28 C28           -8.7792     0.5921     0.0872 C.ar    
  29 C29           -4.9818     5.3006     3.1294 C.3     
  30 C30           -5.1616     5.7527     0.6390 C.3     
  31 C31           -8.8472     2.3415     1.8766 C.3     
  32 N32           -9.1109     3.6252     1.2128 N.3     
  33 C33          -10.0453     4.4416     1.9982 C.3     
  34 C34          -10.1831     5.8231     1.3544 C.3     
  35 C35          -10.6962     5.6637    -0.0794 C.3     
  36 C36           -9.7304     4.7699    -0.8623 C.3     
  37 C37           -9.6057     3.4189    -0.1543 C.3     
  38 F38          -10.2209     4.5747    -2.1579 F       
  39 F39           -8.4741     5.3821    -0.9250 F       
  40 H40            0.9465    -0.5277    -0.0098 H       
  41 H41           -1.1391    -1.7891     0.0021 H       
  42 H42           -1.2430     3.1649     0.0371 H       
  43 H43           -6.1757    -0.8930    -1.4617 H       
  44 H44           -6.1734     2.1141     1.5959 H       
  45 H45           -5.2951    -1.9310     0.0398 H       
  46 H46           -4.0732    -2.0958    -2.1116 H       
  47 H47           -2.5999    -2.5797    -1.2378 H       
  48 H48           -5.2543    -4.0866    -1.2227 H       
  49 H49           -3.7972    -4.5600    -2.1287 H       
  50 H50           -3.9646    -5.8126     0.0047 H       
  51 H51           -2.5365    -4.7502    -0.0019 H       
  52 H52           -5.2317    -4.1015     1.2756 H       
  53 H53           -3.7584    -4.5854     2.1494 H       
  54 H54           -2.5773    -2.5945     1.2605 H       
  55 H55           -4.0344    -2.1212     2.1666 H       
  56 H56            3.2308     2.0250    -0.0179 H       
  57 H57           -3.5249     3.7805    -0.4566 H       
  58 H58           -5.2021     3.1846    -0.4437 H       
  59 H59           -8.6353    -0.9066    -1.4307 H       
  60 H60           -9.8591     0.5830     0.0970 H       
  61 H61           -4.0506     5.7567     3.4655 H       
  62 H62           -5.7869     6.0331     3.1877 H       
  63 H63           -5.2193     4.4482     3.7658 H       
  64 H64           -4.9885     5.2449    -0.3098 H       
  65 H65           -6.2094     6.0449     0.7089 H       
  66 H66           -4.5322     6.6408     0.6959 H       
  67 H67           -9.7926     1.8724     2.1490 H       
  68 H68           -8.2541     2.5121     2.7750 H       
  69 H69          -11.0199     3.9542     2.0243 H       
  70 H70           -9.6666     4.5506     3.0145 H       
  71 H71          -10.8887     6.4234     1.9288 H       
  72 H72           -9.2114     6.3167     1.3405 H       
  73 H73          -11.6851     5.2054    -0.0636 H       
  74 H74          -10.7547     6.6421    -0.5562 H       
  75 H75           -8.9077     2.7852    -0.7014 H       
  76 H76          -10.5824     2.9363    -0.1181 H       
@<TRIPOS>BOND
   1    1    2 ar
   2    1   20 1
   3    1    6 ar
   4    2    3 ar
   5    2   40 1
   6    3    4 ar
   7    3   41 1
   8    4    5 ar
   9    4    7 1
  10    5    6 ar
  11    5    9 1
  12    6   42 1
  13    7    8 2
  14    7   14 1
  15    8    9 1
  16    8   10 1
  17    9   22 1
  18   10   11 ar
  19   10   13 ar
  20   11   27 ar
  21   11   43 1
  22   12   13 ar
  23   12   31 1
  24   12   28 ar
  25   13   44 1
  26   14   15 1
  27   14   19 1
  28   14   45 1
  29   15   16 1
  30   15   46 1
  31   15   47 1
  32   16   17 1
  33   16   48 1
  34   16   49 1
  35   17   18 1
  36   17   50 1
  37   17   51 1
  38   18   19 1
  39   18   52 1
  40   18   53 1
  41   19   54 1
  42   19   55 1
  43   20   21 1
  44   20   25 2
  45   21   56 1
  46   22   23 1
  47   22   57 1
  48   22   58 1
  49   23   24 am
  50   23   26 2
  51   24   29 1
  52   24   30 1
  53   27   28 ar
  54   27   59 1
  55   28   60 1
  56   29   61 1
  57   29   62 1
  58   29   63 1
  59   30   64 1
  60   30   65 1
  61   30   66 1
  62   31   32 1
  63   31   67 1
  64   31   68 1
  65   32   33 1
  66   32   37 1
  67   33   34 1
  68   33   69 1
  69   33   70 1
  70   34   35 1
  71   34   71 1
  72   34   72 1
  73   35   36 1
  74   35   73 1
  75   35   74 1
  76   36   37 1
  77   36   38 1
  78   36   39 1
  79   37   75 1
  80   37   76 1

#	End of record

