#	Name: ASD01120129
#	Creating user name:	WinNT
#	Creation time:	15. 06. 2019 18:59

#	Modifying user name:	WinNT
#	Modification time:	15. 06. 2019 18:59

#	Program:	/corina/corina34_cracker 3.40 0067  02.08.2006

@<TRIPOS>MOLECULE
ASD01120129
  21   22    0    0    0
SMALL
NO_CHARGES


@<TRIPOS>ATOM
   1 N1            -0.0167     1.3813     0.0096 N.pl3   
   2 C2             0.0021    -0.0041     0.0020 C.2     
   3 N3             1.0710    -0.7388    -0.0121 N.2     
   4 C4             0.8936    -2.0592    -0.0168 C.2     
   5 C5            -0.3868    -2.4666    -0.0061 C.2     
   6 S6            -1.4213    -1.0406     0.0177 S.3     
   7 C7             2.0298    -3.0126    -0.0331 C.ar    
   8 C8             3.3402    -2.5374    -0.0437 C.ar    
   9 C9             4.3946    -3.4266    -0.0590 C.ar    
  10 C10            4.1518    -4.7933    -0.0637 C.ar    
  11 C11            2.8481    -5.2696    -0.0532 C.ar    
  12 C12            1.7894    -4.3857    -0.0321 C.ar    
  13 O13            5.1929    -5.6669    -0.0792 O.3     
  14 H14            0.8166     1.8776     0.0043 H       
  15 H15           -0.8633     1.8548     0.0162 H       
  16 H16           -0.7240    -3.4926    -0.0077 H       
  17 H17            3.5298    -1.4742    -0.0404 H       
  18 H18            5.4101    -3.0591    -0.0676 H       
  19 H19            2.6625    -6.3335    -0.0569 H       
  20 H20            0.7753    -4.7569    -0.0239 H       
  21 H21            5.5033    -5.9244     0.7996 H       
@<TRIPOS>BOND
   1    1    2 1
   2    1   14 1
   3    1   15 1
   4    2    3 2
   5    2    6 1
   6    3    4 1
   7    4    5 2
   8    4    7 1
   9    5    6 1
  10    5   16 1
  11    7    8 ar
  12    7   12 ar
  13    8    9 ar
  14    8   17 1
  15    9   10 ar
  16    9   18 1
  17   10   11 ar
  18   10   13 1
  19   11   12 ar
  20   11   19 1
  21   12   20 1
  22   13   21 1

#	End of record

