#	Name: ASD01810776
#	Creating user name:	WinNT
#	Creation time:	15. 06. 2019 19:25

#	Modifying user name:	WinNT
#	Modification time:	15. 06. 2019 19:25

#	Program:	/corina/corina34_cracker 3.40 0067  02.08.2006

@<TRIPOS>MOLECULE
ASD01810776
  66   71    0    0    0
SMALL
NO_CHARGES


@<TRIPOS>ATOM
   1 C1             0.2696     1.5752     0.0403 C.ar    
   2 C2             0.1521     0.2261     0.0178 C.ar    
   3 C3             1.2840    -0.6034    -0.0058 C.ar    
   4 C4             2.5762    -0.0472    -0.0066 C.ar    
   5 C5             2.7101     1.4064     0.0180 C.ar    
   6 C6             3.9633     2.0273     0.0190 C.ar    
   7 C7             4.0424     3.3892     0.0429 C.ar    
   8 C8             2.8908     4.1694     0.0662 C.ar    
   9 C9             1.6545     3.5954     0.0659 C.ar    
  10 C10            1.5356     2.1974     0.0408 C.ar    
  11 C11           -0.9738     2.4265     0.0588 C.3     
  12 C12           -2.1580     2.0399    -2.1113 C.ar    
  13 C13           -1.3229     2.8364    -1.3488 C.ar    
  14 C14           -0.8074     4.0080    -1.8732 C.ar    
  15 C15           -1.1242     4.3885    -3.1615 C.ar    
  16 C16           -2.4814     2.4107    -3.4008 C.ar    
  17 C17           -1.9650     3.5899    -3.9342 C.ar    
  18 C18            1.1686    -2.0672    -0.0307 C.2     
  19 N19            2.3169    -2.7830    -0.0529 N.am    
  20 C20            3.5195    -2.1555    -0.0517 C.2     
  21 N21            3.6454    -0.8606    -0.0303 N.2     
  22 C22            2.2607    -4.2467    -0.0778 C.3     
  23 O23            0.0814    -2.6158    -0.0310 O.2     
  24 C24            1.4115    -4.7043    -1.2654 C.3     
  25 C25            1.3529    -6.2330    -1.2915 C.3     
  26 C26            0.7273    -6.7416     0.0089 C.3     
  27 C27            1.5765    -6.2839     1.1965 C.3     
  28 C28            1.6351    -4.7553     1.2225 C.3     
  29 O29            1.9958    -4.2293    -2.4799 O.3     
  30 C30            4.7688    -2.9979    -0.0765 C.3     
  31 C31           -2.3095     3.9939    -5.3196 C.ar    
  32 C32           -2.1754     3.0833    -6.3689 C.ar    
  33 C33           -2.4987     3.4664    -7.6572 C.ar    
  34 C34           -2.9533     4.7486    -7.9059 C.ar    
  35 C35           -3.0873     5.6543    -6.8692 C.ar    
  36 C36           -2.7736     5.2817    -5.5775 C.ar    
  37 F37           -1.7305     1.8310    -6.1262 F       
  38 H38           -0.8315    -0.2200     0.0185 H       
  39 H39            4.8640     1.4317     0.0014 H       
  40 H40            5.0108     3.8674     0.0440 H       
  41 H41            2.9777     5.2457     0.0852 H       
  42 H42            0.7696     4.2144     0.0841 H       
  43 H43           -1.7984     1.8561     0.4862 H       
  44 H44           -0.7960     3.3163     0.6628 H       
  45 H45           -2.5541     1.1239    -1.6984 H       
  46 H46           -0.1562     4.6263    -1.2733 H       
  47 H47           -0.7215     5.3036    -3.5699 H       
  48 H48           -3.1338     1.7882    -3.9952 H       
  49 H49            3.2696    -4.6474    -0.1767 H       
  50 H50            0.4027    -4.3036    -1.1665 H       
  51 H51            0.7479    -6.5590    -2.1375 H       
  52 H52            2.3617    -6.6336    -1.3903 H       
  53 H53           -0.2816    -6.3409     0.1077 H       
  54 H54            0.6855    -7.8306    -0.0097 H       
  55 H55            1.1308    -6.6463     2.1228 H       
  56 H56            2.5853    -6.6846     1.0976 H       
  57 H57            2.2401    -4.4293     2.0686 H       
  58 H58            0.6263    -4.3546     1.3214 H       
  59 H59            1.5089    -4.4826    -3.2760 H       
  60 H60            5.0062    -3.2656    -1.1061 H       
  61 H61            5.5965    -2.4329     0.3521 H       
  62 H62            4.6073    -3.9045     0.5066 H       
  63 H63           -2.3957     2.7635    -8.4706 H       
  64 H64           -3.2045     5.0441    -8.9139 H       
  65 H65           -3.4422     6.6543    -7.0701 H       
  66 H66           -2.8789     5.9905    -4.7695 H       
@<TRIPOS>BOND
   1    1    2 ar
   2    1   10 ar
   3    1   11 1
   4    2    3 ar
   5    2   38 1
   6    3    4 ar
   7    3   18 1
   8    4    5 ar
   9    4   21 1
  10    5    6 ar
  11    5   10 ar
  12    6    7 ar
  13    6   39 1
  14    7    8 ar
  15    7   40 1
  16    8    9 ar
  17    8   41 1
  18    9   10 ar
  19    9   42 1
  20   11   13 1
  21   11   43 1
  22   11   44 1
  23   12   13 ar
  24   12   16 ar
  25   12   45 1
  26   13   14 ar
  27   14   15 ar
  28   14   46 1
  29   15   17 ar
  30   15   47 1
  31   16   17 ar
  32   16   48 1
  33   17   31 1
  34   18   19 am
  35   18   23 2
  36   19   20 1
  37   19   22 1
  38   20   21 2
  39   20   30 1
  40   22   24 1
  41   22   28 1
  42   22   49 1
  43   24   25 1
  44   24   29 1
  45   24   50 1
  46   25   26 1
  47   25   51 1
  48   25   52 1
  49   26   27 1
  50   26   53 1
  51   26   54 1
  52   27   28 1
  53   27   55 1
  54   27   56 1
  55   28   57 1
  56   28   58 1
  57   29   59 1
  58   30   60 1
  59   30   61 1
  60   30   62 1
  61   31   32 ar
  62   31   36 ar
  63   32   33 ar
  64   32   37 1
  65   33   34 ar
  66   33   63 1
  67   34   35 ar
  68   34   64 1
  69   35   36 ar
  70   35   65 1
  71   36   66 1

#	End of record

