#	Name: ASD01120380
#	Creating user name:	WinNT
#	Creation time:	15. 06. 2019 18:59

#	Modifying user name:	WinNT
#	Modification time:	15. 06. 2019 18:59

#	Program:	/corina/corina34_cracker 3.40 0067  02.08.2006

@<TRIPOS>MOLECULE
ASD01120380
  34   36    0    0    0
SMALL
NO_CHARGES


@<TRIPOS>ATOM
   1 P1            -1.3204    -1.3558    -0.3525 P.3     
   2 C2            -0.2259    -0.2163     4.7702 C.ar    
   3 C3             0.4643    -0.5169     3.6099 C.ar    
   4 C4            -0.0599    -0.1302     2.3681 C.ar    
   5 C5            -1.2682     0.5520     2.3089 C.ar    
   6 C6            -1.9551     0.8510     3.4643 C.ar    
   7 C7            -1.4382     0.4688     4.7074 C.ar    
   8 C8             0.5750    -0.7594     5.9252 C.3     
   9 C9             1.7974    -1.4036     5.3104 C.2     
  10 C10            1.7317    -1.2530     3.9396 C.2     
  11 S11            3.0977    -2.1712     5.7179 S.o     
  12 C12            3.7495    -2.4089     4.0277 C.3     
  13 N13            2.7220    -1.7542     3.2103 N.2     
  14 O14            0.6122    -0.4215     1.2268 O.3     
  15 C15           -0.0374    -0.1077    -0.0067 C.3     
  16 O16           -2.2424    -1.4484     0.8016 O.2     
  17 C17           -2.1740     0.7889     5.9465 C.2     
  18 N18           -3.3459     1.4515     5.8823 N.am    
  19 O19           -1.7228     0.4548     7.0250 O.2     
  20 O20           -2.1464    -0.9267    -1.6661 O.3     
  21 O21           -0.6246    -2.7865    -0.5996 O.3     
  22 H22           -1.6709     0.8497     1.3520 H       
  23 H23           -2.8942     1.3818     3.4112 H       
  24 H24            0.8716     0.0508     6.5913 H       
  25 H25           -0.0073    -1.5019     6.4708 H       
  26 H26            3.8827    -1.1965     6.2106 H       
  27 H27            4.7113    -1.9104     3.9076 H       
  28 H28            3.8291    -3.4690     3.7866 H       
  29 H29            0.6955    -0.1070    -0.8135 H       
  30 H30           -0.4988     0.8771     0.0658 H       
  31 H31           -3.7058     1.7180     5.0220 H       
  32 H32           -3.8294     1.6618     6.6965 H       
  33 H33           -2.8474    -1.5466    -1.9099 H       
  34 H34           -0.0657    -2.8212    -1.3880 H       
@<TRIPOS>BOND
   1    1   15 1
   2    1   16 2
   3    1   20 1
   4    1   21 1
   5    2    3 ar
   6    2    7 ar
   7    2    8 1
   8    3    4 ar
   9    3   10 1
  10    4    5 ar
  11    4   14 1
  12    5    6 ar
  13    5   22 1
  14    6    7 ar
  15    6   23 1
  16    7   17 1
  17    8    9 1
  18    8   24 1
  19    8   25 1
  20    9   10 1
  21    9   11 2
  22   10   13 2
  23   11   12 1
  24   11   26 1
  25   12   13 1
  26   12   27 1
  27   12   28 1
  28   14   15 1
  29   15   29 1
  30   15   30 1
  31   17   18 am
  32   17   19 2
  33   18   31 1
  34   18   32 1
  35   20   33 1
  36   21   34 1

#	End of record

