#	Name: ASD01912298
#	Creating user name:	WinNT
#	Creation time:	15. 06. 2019 19:59

#	Modifying user name:	WinNT
#	Modification time:	15. 06. 2019 19:59

#	Program:	/corina/corina34_cracker 3.40 0067  02.08.2006

@<TRIPOS>MOLECULE
ASD01912298
  52   54    0    0    0
SMALL
NO_CHARGES


@<TRIPOS>ATOM
   1 C1            -0.0169     1.3937     0.0097 C.ar    
   2 C2             0.0021    -0.0041     0.0020 C.ar    
   3 C3             1.2200    -0.6586    -0.0132 C.ar    
   4 C4             2.3820     0.1017    -0.0202 C.ar    
   5 C5             2.2917     1.4816    -0.0120 C.ar    
   6 N6             1.1202     2.0835     0.0026 N.ar    
   7 C7             3.5515     2.3086    -0.0196 C.3     
   8 C8            -1.2694     2.0877     0.0194 C.1     
   9 C9            -2.2963     2.6567     0.0274 C.1     
  10 C10           -3.5488     3.3508     0.0371 C.2     
  11 N11           -3.6111     7.1939     1.1690 N.am    
  12 C12           -4.8645     6.4304     1.2214 C.3     
  13 C13           -4.8852     5.4347     0.0547 C.3     
  14 C14           -3.5723     4.6828     0.0444 C.2     
  15 C15           -2.2866     5.4804     0.0422 C.3     
  16 C16           -2.3311     6.4750     1.2091 C.3     
  17 S17           -3.6407     8.8460     1.0592 S.o2    
  18 O18           -2.3991     9.2324     0.4863 O.2     
  19 O19           -4.8981     9.1880     0.4924 O.2     
  20 C20           -3.6480     9.4780     2.7039 C.ar    
  21 C21           -4.7305     9.2338     3.5366 C.ar    
  22 C22           -4.7337     9.7320     4.8311 C.ar    
  23 C23           -3.6592    10.4702     5.2889 C.ar    
  24 C24           -2.5809    10.7130     4.4569 C.ar    
  25 C25           -2.5734    10.2120     3.1669 C.ar    
  26 C26           -3.6622    11.0117     6.6952 C.3     
  27 O27           -5.7868     8.5078     3.0844 O.3     
  28 C28           -6.8663     8.2957     3.9963 C.3     
  29 Cl29          -1.2326    11.6419     5.0340 Cl      
  30 H30           -0.9211    -0.5645     0.0082 H       
  31 H31            1.2665    -1.7376    -0.0191 H       
  32 H32            3.3483    -0.3807    -0.0317 H       
  33 H33            3.8454     2.5135    -1.0490 H       
  34 H34            3.3719     3.2492     0.5010 H       
  35 H35            4.3485     1.7612     0.4837 H       
  36 H36           -4.4745     2.7944     0.0384 H       
  37 H37           -4.9231     5.8885     2.1653 H       
  38 H38           -5.7111     7.1115     1.1355 H       
  39 H39           -5.7089     4.7329     0.1857 H       
  40 H40           -5.0071     5.9731    -0.8852 H       
  41 H41           -1.4375     4.8082     0.1651 H       
  42 H42           -2.1928     6.0227    -0.8988 H       
  43 H43           -1.5099     7.1856     1.1152 H       
  44 H44           -2.2443     5.9358     2.1524 H       
  45 H45           -5.5756     9.5433     5.4807 H       
  46 H46           -1.7288    10.3988     2.5203 H       
  47 H47           -3.2126    10.2806     7.3670 H       
  48 H48           -3.0881    11.9377     6.7293 H       
  49 H49           -4.6880    11.2087     7.0066 H       
  50 H50           -7.6415     7.7034     3.5102 H       
  51 H51           -6.5006     7.7645     4.8751 H       
  52 H52           -7.2803     9.2575     4.2992 H       
@<TRIPOS>BOND
   1    1    2 ar
   2    1    6 ar
   3    1    8 1
   4    2    3 ar
   5    2   30 1
   6    3    4 ar
   7    3   31 1
   8    4    5 ar
   9    4   32 1
  10    5    6 ar
  11    5    7 1
  12    7   33 1
  13    7   34 1
  14    7   35 1
  15    8    9 3
  16    9   10 1
  17   10   14 2
  18   10   36 1
  19   11   12 1
  20   11   16 1
  21   11   17 am
  22   12   13 1
  23   12   37 1
  24   12   38 1
  25   13   14 1
  26   13   39 1
  27   13   40 1
  28   14   15 1
  29   15   16 1
  30   15   41 1
  31   15   42 1
  32   16   43 1
  33   16   44 1
  34   17   18 2
  35   17   19 2
  36   17   20 1
  37   20   21 ar
  38   20   25 ar
  39   21   22 ar
  40   21   27 1
  41   22   23 ar
  42   22   45 1
  43   23   24 ar
  44   23   26 1
  45   24   25 ar
  46   24   29 1
  47   25   46 1
  48   26   47 1
  49   26   48 1
  50   26   49 1
  51   27   28 1
  52   28   50 1
  53   28   51 1
  54   28   52 1

#	End of record

