#	Name: ASD03091449
#	Creating user name:	WinNT
#	Creation time:	15. 06. 2019 20:30

#	Modifying user name:	WinNT
#	Modification time:	15. 06. 2019 20:30

#	Program:	/corina/corina34_cracker 3.40 0067  02.08.2006

@<TRIPOS>MOLECULE
ASD03091449
  30   32    0    0    0
SMALL
NO_CHARGES


@<TRIPOS>ATOM
   1 C1             1.2309     3.5598    -0.1026 C.3     
   2 C2             0.4392     2.3442    -0.5888 C.3     
   3 N3             0.4284     1.3146     0.4582 N.3     
   4 C4            -0.2329     1.8027     1.6750 C.3     
   5 C5             0.5378     3.0022     2.2305 C.3     
   6 C6             1.9688     2.5720     2.5703 C.3     
   7 N7             2.6536     2.1875     1.3285 N.am    
   8 C8             2.6708     3.1364     0.2069 C.3     
   9 C9             0.5842     4.1088     1.1727 C.3     
  10 C10            3.2546     0.9861     1.2201 C.2     
  11 O11            3.3200     0.2499     2.1853 O.2     
  12 S12            3.1305     0.7067    -1.6349 S.3     
  13 N13            4.3286     0.0578    -2.4068 N.2     
  14 C14            5.2442    -0.2665    -1.5426 C.2     
  15 N15            5.0067    -0.0070    -0.2814 N.2     
  16 C16            3.8336     0.5641    -0.0710 C.2     
  17 H17            1.2342     4.3271    -0.8768 H       
  18 H18           -0.5843     2.6438    -0.8141 H       
  19 H19            0.9062     1.9427    -1.4882 H       
  20 H20           -0.0053     0.4661     0.1265 H       
  21 H21           -1.2529     2.1049     1.4377 H       
  22 H22           -0.2541     1.0079     2.4206 H       
  23 H23            0.0434     3.3692     3.1300 H       
  24 H24            2.4986     3.4018     3.0380 H       
  25 H25            1.9428     1.7216     3.2517 H       
  26 H26            3.1075     2.6580    -0.6698 H       
  27 H27            3.2591     4.0129     0.4787 H       
  28 H28            1.1721     4.9466     1.5476 H       
  29 H29           -0.4292     4.4441     0.9518 H       
  30 H30            6.1671    -0.7333    -1.8537 H       
@<TRIPOS>BOND
   1    1    2 1
   2    1    8 1
   3    1    9 1
   4    1   17 1
   5    2    3 1
   6    2   18 1
   7    2   19 1
   8    3    4 1
   9    3   20 1
  10    4    5 1
  11    4   21 1
  12    4   22 1
  13    5    6 1
  14    5    9 1
  15    5   23 1
  16    6    7 1
  17    6   24 1
  18    6   25 1
  19    7    8 1
  20    7   10 am
  21    8   26 1
  22    8   27 1
  23    9   28 1
  24    9   29 1
  25   10   11 2
  26   10   16 1
  27   12   13 1
  28   12   16 1
  29   13   14 2
  30   14   15 1
  31   14   30 1
  32   15   16 2

#	End of record

