#	Name: ASD01870239
#	Creating user name:	WinNT
#	Creation time:	15. 06. 2019 19:38

#	Modifying user name:	WinNT
#	Modification time:	15. 06. 2019 19:38

#	Program:	/corina/corina34_cracker 3.40 0067  02.08.2006

@<TRIPOS>MOLECULE
ASD01870239
  52   56    0    0    0
SMALL
NO_CHARGES


@<TRIPOS>ATOM
   1 C1            -0.0169     1.3884    -0.0635 C.ar    
   2 C2             0.0020    -0.0041    -0.0532 C.ar    
   3 C3             1.1791    -0.6916    -0.0372 C.ar    
   4 C4             2.3911     0.0116    -0.0315 C.ar    
   5 C5             2.3718     1.4326    -0.0425 C.ar    
   6 C6             1.1418     2.1060    -0.0584 C.ar    
   7 C7             3.6357    -0.6449    -0.0155 C.ar    
   8 N8             4.7484     0.0415    -0.0106 N.ar    
   9 C9             4.7765     1.3812    -0.0207 C.ar    
  10 C10            3.5984     2.1088    -0.0370 C.ar    
  11 C11            5.9063     2.3359    -0.0182 C.2     
  12 N12            5.4506     3.5999    -0.0323 N.am    
  13 C13            3.9835     3.5653    -0.0452 C.3     
  14 C14            6.2785     4.8085    -0.0336 C.3     
  15 C15            5.9833     5.6325     1.2235 C.3     
  16 C16            6.3737     4.8159     2.4592 C.3     
  17 C17            7.8495     4.4222     2.3558 C.3     
  18 O18            8.0612     3.6853     1.1499 O.3     
  19 C19            7.7580     4.4152    -0.0407 C.3     
  20 C20            3.6864    -2.1510    -0.0035 C.3     
  21 C21            3.7157    -2.6640    -1.4202 C.ar    
  22 C22            4.9200    -2.8618    -2.0673 C.ar    
  23 N23            4.9544    -3.3105    -3.3073 N.ar    
  24 C24            3.8508    -3.5871    -3.9755 C.ar    
  25 C25            2.6081    -3.4134    -3.3916 C.ar    
  26 C26            2.5339    -2.9486    -2.0883 C.ar    
  27 O27            7.0804     2.0215    -0.0052 O.2     
  28 O28            4.5892     5.9420     1.2758 O.3     
  29 Cl29           3.9588    -4.1750    -5.6054 Cl      
  30 C30            3.4522     4.2430    -1.3098 C.3     
  31 H31           -0.9639     1.9074    -0.0804 H       
  32 H32           -0.9310    -0.5481    -0.0575 H       
  33 H33            1.1775    -1.7716    -0.0286 H       
  34 H34            1.1129     3.1856    -0.0673 H       
  35 H35            3.5890     4.0623     0.8411 H       
  36 H36            6.0543     5.4027    -0.9195 H       
  37 H37            6.5624     6.5557     1.1987 H       
  38 H38            6.2186     5.4157     3.3561 H       
  39 H39            5.7596     3.9168     2.5105 H       
  40 H40            8.4656     5.3213     2.3453 H       
  41 H41            8.1218     3.8047     3.2117 H       
  42 H42            7.9644     3.7925    -0.9113 H       
  43 H43            8.3729     5.3142    -0.0825 H       
  44 H44            4.5835    -2.4802     0.5207 H       
  45 H45            2.8046    -2.5401     0.5056 H       
  46 H46            5.8444    -2.6462    -1.5521 H       
  47 H47            1.7080    -3.6407    -3.9434 H       
  48 H48            1.5780    -2.8038    -1.6068 H       
  49 H49            4.3308     6.4635     2.0480 H       
  50 H50            3.8299     3.7199    -2.1884 H       
  51 H51            2.3627     4.2114    -1.3086 H       
  52 H52            3.7856     5.2805    -1.3335 H       
@<TRIPOS>BOND
   1    1    2 ar
   2    1    6 ar
   3    1   31 1
   4    2    3 ar
   5    2   32 1
   6    3    4 ar
   7    3   33 1
   8    4    5 ar
   9    4    7 ar
  10    5    6 ar
  11    5   10 ar
  12    6   34 1
  13    7    8 ar
  14    7   20 1
  15    8    9 ar
  16    9   10 ar
  17    9   11 1
  18   10   13 1
  19   11   12 am
  20   11   27 2
  21   12   13 1
  22   12   14 1
  23   13   30 1
  24   13   35 1
  25   14   15 1
  26   14   19 1
  27   14   36 1
  28   15   16 1
  29   15   28 1
  30   15   37 1
  31   16   17 1
  32   16   38 1
  33   16   39 1
  34   17   18 1
  35   17   40 1
  36   17   41 1
  37   18   19 1
  38   19   42 1
  39   19   43 1
  40   20   21 1
  41   20   44 1
  42   20   45 1
  43   21   22 ar
  44   21   26 ar
  45   22   23 ar
  46   22   46 1
  47   23   24 ar
  48   24   25 ar
  49   24   29 1
  50   25   26 ar
  51   25   47 1
  52   26   48 1
  53   28   49 1
  54   30   50 1
  55   30   51 1
  56   30   52 1

#	End of record

