#	Name: ASD06590076
#	Creating user name:	WinNT
#	Creation time:	15. 06. 2019 21:06

#	Modifying user name:	WinNT
#	Modification time:	15. 06. 2019 21:06

#	Program:	/corina/corina34_cracker 3.40 0067  02.08.2006

@<TRIPOS>MOLECULE
ASD06590076
 336  337    0    0    0
SMALL
NO_CHARGES


@<TRIPOS>ATOM
   1 C1            -3.3601    14.8461    -3.7902 C.2     
   2 O2            -3.1467    14.8439    -4.9841 O.2     
   3 N3            -1.2029    15.9395    -3.5901 N.am    
   4 C4            -2.4090    15.5487    -2.8560 C.3     
   5 C5            -3.0846    16.7966    -2.2840 C.3     
   6 C6            -2.1258    17.4996    -1.3209 C.3     
   7 O7            -3.4251    17.6850    -3.3502 O.3     
   8 C8            -6.8168    14.1369    -3.8323 C.2     
   9 O9            -6.9554    14.8860    -2.8887 O.2     
  10 N10           -4.4509    14.2249    -3.2995 N.am    
  11 C11           -5.4418    13.6528    -4.2145 C.3     
  12 C12           -5.3958    12.1260    -4.1262 C.3     
  13 C13           -4.0350    11.6389    -4.5529 C.2     
  14 O14           -3.1736    12.4364    -4.8580 O.2     
  15 N15           -3.7752    10.3171    -4.5955 N.am    
  16 C16          -10.2606    13.2176    -4.6436 C.2     
  17 O17           -9.9133    12.2171    -5.2348 O.2     
  18 N18           -7.8925    13.7374    -4.5393 N.am    
  19 C19           -9.2292    14.2079    -4.1678 C.3     
  20 C20           -9.4900    15.5681    -4.8182 C.3     
  21 C21          -13.9467    12.9649    -4.4925 C.2     
  22 O22          -14.0763    14.0111    -3.8929 O.2     
  23 N23          -11.5689    13.4436    -4.4122 N.am    
  24 C24          -12.5716    12.4808    -4.8747 C.3     
  25 C25          -17.3052    11.5293    -4.3430 C.2     
  26 O26          -16.8961    10.4082    -4.5589 O.2     
  27 N27          -15.0323    12.2352    -4.8172 N.am    
  28 C28          -16.3690    12.7058    -4.4457 C.3     
  29 C29          -16.8831    13.6751    -5.5120 C.3     
  30 C30          -16.0036    14.9270    -5.5298 C.3     
  31 C31          -16.5177    15.8963    -6.5961 C.3     
  32 N32          -15.6756    17.0950    -6.6131 N.pl3   
  33 C33          -15.9468    18.1131    -7.4964 C.2     
  34 N34          -15.1976    19.1796    -7.5115 N.2     
  35 N35          -17.0081    18.0062    -8.3637 N.pl3   
  36 C36          -20.9226    11.0421    -4.1428 C.2     
  37 O37          -21.1489    12.2120    -4.3687 O.2     
  38 N38          -18.5971    11.7231    -4.0113 N.am    
  39 C39          -19.5072    10.5794    -3.9115 C.3     
  40 C40          -19.3949     9.9584    -2.5177 C.3     
  41 O41          -19.8552    10.8942    -1.5408 O.3     
  42 C42          -23.9800    11.0986    -3.1894 C.2     
  43 O43          -23.3872    11.1077    -2.1314 O.2     
  44 N44          -21.9370    10.1559    -4.0985 N.am    
  45 C45          -23.2983    10.5835    -4.4307 C.3     
  46 C46          -24.0843     9.3952    -4.9884 C.3     
  47 C47          -23.4690     8.9527    -6.2909 C.2     
  48 O48          -22.5663     9.5899    -6.7799 O.2     
  49 O49          -23.9237     7.8507    -6.9079 O.3     
  50 C50          -27.4041    11.9120    -2.2009 C.2     
  51 O51          -27.8787    11.6136    -3.2764 O.2     
  52 N52          -25.2485    11.5493    -3.2549 N.am    
  53 C53          -25.9113    12.0500    -2.0482 C.3     
  54 C54          -25.5536    13.5236    -1.8441 C.3     
  55 C55          -24.0359    13.6666    -1.7131 C.3     
  56 O56          -26.0087    14.2839    -2.9652 O.3     
  57 C57          -30.3868    12.7187    -0.2475 C.2     
  58 O58          -29.7682    13.4449     0.5013 O.2     
  59 N59          -28.2120    12.1201    -1.1423 N.am    
  60 C60          -29.6523    11.8803    -1.2617 C.3     
  61 C61          -29.9456    10.4002    -1.0085 C.3     
  62 C62          -29.3021     9.5569    -2.1111 C.3     
  63 C63          -29.5955     8.0768    -1.8579 C.3     
  64 N64          -28.9793     7.2693    -2.9136 N.pl3   
  65 C65          -29.1094     5.9007    -2.8966 C.2     
  66 N66          -28.5612     5.1823    -3.8359 N.2     
  67 N67          -29.8177     5.2900    -1.8889 N.pl3   
  68 C68          -33.7698    12.8323     1.1329 C.2     
  69 O69          -34.0861    11.7947     0.5905 O.2     
  70 N70          -31.7313    12.6614    -0.1726 N.am    
  71 C71          -32.4454    13.4763     0.8134 C.3     
  72 C72          -32.6833    14.8756     0.2422 C.3     
  73 C73          -31.3395    15.5770     0.0344 C.3     
  74 C74          -31.5739    16.9552    -0.5282 C.2     
  75 O75          -32.7044    17.3388    -0.7419 O.2     
  76 N76          -30.5272    17.7616    -0.7939 N.am    
  77 C77          -36.8558    13.8338     2.8172 C.2     
  78 O78          -36.5031    14.9915     2.8958 O.2     
  79 N79          -34.6028    13.4093     2.0215 N.am    
  80 C80          -35.8904    12.7832     2.3321 C.3     
  81 C81          -35.6945    11.7281     3.4226 C.3     
  82 C82          -34.8137    10.5978     2.8863 C.3     
  83 C83          -34.6208     9.5586     3.9604 C.2     
  84 O84          -35.1369     9.7072     5.0478 O.2     
  85 N85          -33.8746     8.4639     3.7127 N.am    
  86 C86          -40.0984    13.8635     4.5047 C.2     
  87 O87          -40.0652    12.6687     4.7101 O.2     
  88 N88          -38.1111    13.4868     3.1638 N.am    
  89 C89          -39.0497    14.5081     3.6354 C.3     
  90 C90          -39.7226    15.1758     2.4345 C.3     
  91 C91          -38.6897    15.9239     1.6316 C.ar    
  92 C92          -38.0171    15.2850     0.6063 C.ar    
  93 C93          -37.0695    15.9684    -0.1308 C.ar    
  94 C94          -36.7933    17.2969     0.1580 C.ar    
  95 O95          -35.8619    17.9715    -0.5660 O.3     
  96 C96          -37.4700    17.9358     1.1869 C.ar    
  97 C97          -38.4204    17.2495     1.9178 C.ar    
  98 C98          -43.3443    14.8276     5.8823 C.2     
  99 O99          -43.3810    15.8486     5.2289 O.2     
 100 N100         -41.0733    14.6148     5.0539 N.am    
 101 C101         -42.0928    13.9882     5.8990 C.3     
 102 C102         -41.5704    13.8799     7.3330 C.3     
 103 C103         -40.3735    12.9276     7.3692 C.3     
 104 C104         -39.8511    12.8192     8.8031 C.3     
 105 N105         -38.7050    11.9074     8.8378 N.pl3   
 106 C106         -38.0654    11.6521    10.0277 C.2     
 107 N107         -37.0457    10.8408    10.0585 N.2     
 108 N108         -38.5014    12.2526    11.1851 N.pl3   
 109 C109         -46.4274    15.0115     7.8378 C.2     
 110 O110         -46.0134    14.2301     8.6679 O.2     
 111 N111         -44.4228    14.4435     6.5936 N.am    
 112 C112         -45.6394    15.2595     6.5774 C.3     
 113 C113         -46.4895    14.8834     5.3621 C.3     
 114 C114         -45.7385    15.2511     4.0809 C.3     
 115 C115         -46.5886    14.8750     2.8656 C.3     
 116 C116         -45.8376    15.2427     1.5844 C.3     
 117 N117         -46.6538    14.8816     0.4176 N.3     
 118 C118         -49.8125    15.7239     9.0196 C.2     
 119 O119         -50.1736    16.1063     7.9268 O.2     
 120 N120         -47.5921    15.6580     8.0426 N.am    
 121 C121         -48.3581    15.4170     9.2679 C.3     
 122 C122         -47.8300    16.3189    10.3852 C.3     
 123 C123         -46.3912    15.9233    10.7230 C.3     
 124 C124         -45.8208    16.9028    11.7506 C.3     
 125 C125         -46.3744    14.5078    11.3034 C.3     
 126 C126         -52.8297    16.2286    10.9993 C.2     
 127 O127         -52.3091    16.0467    12.0795 O.2     
 128 N128         -50.7119    15.5733    10.0120 N.am    
 129 C129         -52.1390    15.7654     9.7425 C.3     
 130 C130         -52.7535    14.4424     9.2810 C.3     
 131 C131         -54.1960    14.6800     8.8299 C.3     
 132 C132         -54.2013    15.5712     7.5863 C.3     
 133 C133         -54.8543    13.3390     8.4991 C.3     
 134 C134         -55.5493    16.0156    12.6198 C.2     
 135 O135         -55.5224    14.9807    11.9968 O.2     
 136 N136         -54.0257    16.8451    10.9229 N.am    
 137 C137         -54.7463    17.2003    12.1479 C.3     
 138 C138         -55.6867    18.3735    11.8645 C.3     
 139 C139         -54.8756    19.5934    11.5112 C.ar    
 140 C140         -54.5414    19.8433    10.1933 C.ar    
 141 C141         -53.7973    20.9623     9.8692 C.ar    
 142 C142         -53.3878    21.8317    10.8629 C.ar    
 143 C143         -53.7227    21.5822    12.1806 C.ar    
 144 C144         -54.4705    20.4655    12.5043 C.ar    
 145 O145         -56.2944    16.1100    13.7323 O.3     
 146 C146          -0.0391    16.1101    -2.9321 C.2     
 147 O147           0.0096    15.9402    -1.7322 O.2     
 148 C148          18.2261    20.2422    -2.2287 C.3     
 149 C149          16.9665    19.8341    -1.4621 C.3     
 150 C150          15.7940    19.7093    -2.4371 C.3     
 151 C151          14.5344    19.3012    -1.6704 C.3     
 152 C152          13.3620    19.1764    -2.6454 C.3     
 153 C153          12.1024    18.7683    -1.8788 C.3     
 154 C154          10.9299    18.6436    -2.8538 C.3     
 155 C155           9.6703    18.2355    -2.0871 C.3     
 156 C156           8.4978    18.1107    -3.0621 C.3     
 157 C157           7.2382    17.7026    -2.2955 C.3     
 158 C158           6.0657    17.5778    -3.2705 C.3     
 159 C159           4.8061    17.1697    -2.5038 C.3     
 160 C160           3.6336    17.0449    -3.4788 C.3     
 161 C161           2.3740    16.6368    -2.7122 C.3     
 162 C162           1.2015    16.5121    -3.6872 C.3     
 163 H163          -1.2419    16.0754    -4.5497 H       
 164 H164          -2.1371    14.8772    -2.0416 H       
 165 H165          -3.9893    16.5072    -1.7493 H       
 166 H166          -1.2695    17.8827    -1.8759 H       
 167 H167          -2.6421    18.3264    -0.8332 H       
 168 H168          -1.7828    16.7904    -0.5676 H       
 169 H169          -4.0316    17.3049    -4.0004 H       
 170 H170          -4.5799    14.1566    -2.3406 H       
 171 H171          -5.2172    13.9647    -5.2345 H       
 172 H172          -5.5872    11.8155    -3.0991 H       
 173 H173          -6.1558    11.7012    -4.7819 H       
 174 H174          -4.4641     9.6794    -4.3515 H       
 175 H175          -2.8993    10.0036    -4.8702 H       
 176 H176          -7.7816    13.1382    -5.2940 H       
 177 H177          -9.2918    14.3054    -3.0840 H       
 178 H178         -10.4845    15.9182    -4.5418 H       
 179 H179          -8.7440    16.2844    -4.4741 H       
 180 H180          -9.4273    15.4706    -5.9020 H       
 181 H181         -11.8467    14.2437    -3.9393 H       
 182 H182         -12.3858    11.5118    -4.4113 H       
 183 H183         -12.5089    12.3833    -5.9585 H       
 184 H184         -14.9286    11.3984    -5.2967 H       
 185 H185         -16.3202    13.2163    -3.4839 H       
 186 H186         -16.8480    13.1926    -6.4888 H       
 187 H187         -17.9108    13.9563    -5.2823 H       
 188 H188         -16.0387    15.4095    -4.5530 H       
 189 H189         -14.9759    14.6458    -5.7595 H       
 190 H190         -16.4827    15.4138    -7.5729 H       
 191 H191         -17.5454    16.1774    -6.3664 H       
 192 H192         -14.9268    17.1703    -6.0012 H       
 193 H193         -15.3889    19.8979    -8.1346 H       
 194 H194         -17.5657    17.2125    -8.3524 H       
 195 H195         -17.1994    18.7245    -8.9869 H       
 196 H196         -18.9242    12.6198    -3.8387 H       
 197 H197         -19.2405     9.8362    -4.6630 H       
 198 H198         -20.0044     9.0559    -2.4719 H       
 199 H199         -18.3543     9.7046    -2.3158 H       
 200 H200         -19.8125    10.5669    -0.6319 H       
 201 H201         -21.7658     9.2349    -3.8467 H       
 202 H202         -23.2580    11.3756    -5.1784 H       
 203 H203         -24.0542     8.5723    -4.2743 H       
 204 H204         -25.1195     9.6916    -5.1578 H       
 205 H205         -23.4976     7.6065    -7.7409 H       
 206 H206         -25.7227    11.5420    -4.1011 H       
 207 H207         -25.5794    11.4727    -1.1852 H       
 208 H208         -26.0329    13.8915    -0.9369 H       
 209 H209         -23.5627    13.3968    -2.6572 H       
 210 H210         -23.7884    14.6985    -1.4643 H       
 211 H211         -23.6755    13.0062    -0.9243 H       
 212 H212         -26.9639    14.2394    -3.1090 H       
 213 H213         -27.8397    12.4286    -0.3014 H       
 214 H214         -29.9836    12.1500    -2.2645 H       
 215 H215         -29.5351    10.1087    -0.0418 H       
 216 H216         -31.0235    10.2381    -1.0094 H       
 217 H217         -29.7126     9.8484    -3.0778 H       
 218 H218         -28.2243     9.7190    -2.1102 H       
 219 H219         -29.1850     7.7852    -0.8911 H       
 220 H220         -30.6733     7.9147    -1.8588 H       
 221 H221         -28.4796     7.7002    -3.6246 H       
 222 H222         -28.6530     4.2167    -3.8240 H       
 223 H223         -30.2256     5.8246    -1.1899 H       
 224 H224         -29.9094     4.3244    -1.8770 H       
 225 H225         -32.2261    12.0805    -0.7715 H       
 226 H226         -31.8492    13.5517     1.7228 H       
 227 H227         -33.2025    14.7948    -0.7128 H       
 228 H228         -33.2910    15.4537     0.9384 H       
 229 H229         -30.8203    15.6578     0.9894 H       
 230 H230         -30.7318    14.9989    -0.6618 H       
 231 H231         -29.6230    17.4548    -0.6230 H       
 232 H232         -30.6780    18.6487    -1.1560 H       
 233 H233         -34.3499    14.2392     2.4553 H       
 234 H234         -36.2896    12.3092     1.4354 H       
 235 H235         -35.2133    12.1846     4.2876 H       
 236 H236         -36.6637    11.3252     3.7166 H       
 237 H237         -35.2949    10.1414     2.0213 H       
 238 H238         -33.8445    11.0008     2.5923 H       
 239 H239         -33.4618     8.3449     2.8430 H       
 240 H240         -33.7504     7.7949     4.4040 H       
 241 H241         -38.3933    12.5609     3.1010 H       
 242 H242         -38.5099    15.2585     4.2131 H       
 243 H243         -40.1876    14.4141     1.8086 H       
 244 H244         -40.4842    15.8722     2.7855 H       
 245 H245         -38.2324    14.2508     0.3819 H       
 246 H246         -36.5438    15.4687    -0.9311 H       
 247 H247         -36.2185    18.4206    -1.3446 H       
 248 H248         -37.2565    18.9698     1.4139 H       
 249 H249         -38.9506    17.7476     2.7160 H       
 250 H250         -41.0998    15.5705     4.8897 H       
 251 H251         -42.3183    12.9921     5.5182 H       
 252 H252         -41.2616    14.8650     7.6826 H       
 253 H253         -42.3598    13.4960     7.9792 H       
 254 H254         -40.6823    11.9424     7.0196 H       
 255 H255         -39.5841    13.3114     6.7229 H       
 256 H256         -39.5423    13.8044     9.1527 H       
 257 H257         -40.6405    12.4354     9.4494 H       
 258 H258         -38.3975    11.4837     8.0212 H       
 259 H259         -36.5945    10.6607    10.8981 H       
 260 H260         -39.2602    12.8563    11.1621 H       
 261 H261         -38.0501    12.0725    12.0246 H       
 262 H262         -44.3934    13.6269     7.1162 H       
 263 H263         -45.3690    16.3138     6.5194 H       
 264 H264         -46.6854    13.8112     5.3735 H       
 265 H265         -47.4344    15.4258     5.3978 H       
 266 H266         -45.5426    16.3233     4.0695 H       
 267 H267         -44.7937    14.7087     4.0452 H       
 268 H268         -46.7845    13.8028     2.8770 H       
 269 H269         -47.5334    15.4174     2.9013 H       
 270 H270         -45.6417    16.3149     1.5730 H       
 271 H271         -44.8928    14.7004     1.5487 H       
 272 H272         -46.1793    15.1147    -0.4418 H       
 273 H273         -46.9033    13.9042     0.4393 H       
 274 H274         -47.9231    16.2829     7.3787 H       
 275 H275         -48.2523    14.3730     9.5630 H       
 276 H276         -47.8534    17.3576    10.0553 H       
 277 H277         -48.4556    16.2048    11.2705 H       
 278 H278         -45.7845    15.9521     9.8179 H       
 279 H279         -46.4275    16.8740    12.6557 H       
 280 H280         -44.7957    16.6209    11.9913 H       
 281 H281         -45.8327    17.9112    11.3371 H       
 282 H282         -46.9811    14.4790    12.2085 H       
 283 H283         -46.7807    13.8100    10.5713 H       
 284 H284         -45.3493    14.2259    11.5440 H       
 285 H285         -50.4143    15.3378    10.9047 H       
 286 H286         -52.2636    16.5158     8.9618 H       
 287 H287         -52.1736    14.0432     8.4488 H       
 288 H288         -52.7434    13.7298    10.1058 H       
 289 H289         -54.7510    15.1696     9.6301 H       
 290 H290         -53.7065    15.0522     6.7653 H       
 291 H291         -55.2300    15.7974     7.3057 H       
 292 H292         -53.6711    16.4988     7.8018 H       
 293 H293         -54.8506    12.7041     9.3851 H       
 294 H294         -55.8820    13.5082     8.1777 H       
 295 H295         -54.2993    12.8494     7.6989 H       
 296 H296         -54.4094    17.0536    10.0567 H       
 297 H297         -54.0318    17.4857    12.9200 H       
 298 H298         -56.3432    18.1200    11.0321 H       
 299 H299         -56.2869    18.5803    12.7506 H       
 300 H300         -54.8614    19.1642     9.4169 H       
 301 H301         -53.5357    21.1572     8.8396 H       
 302 H302         -52.8059    22.7055    10.6097 H       
 303 H303         -53.4024    22.2612    12.9570 H       
 304 H304         -54.7353    20.2726    13.5334 H       
 305 H305         -56.7921    15.3238    13.9955 H       
 306 H306          19.0614    20.3310    -1.5341 H       
 307 H307          18.4562    19.4854    -2.9787 H       
 308 H308          18.0581    21.2008    -2.7195 H       
 309 H309          17.1345    18.8754    -0.9713 H       
 310 H310          16.7365    20.5908    -0.7121 H       
 311 H311          15.6261    20.6679    -2.9279 H       
 312 H312          16.0241    18.9525    -3.1870 H       
 313 H313          14.7024    18.3426    -1.1796 H       
 314 H314          14.3044    20.0580    -0.9205 H       
 315 H315          13.1940    20.1351    -3.1362 H       
 316 H316          13.5920    18.4196    -3.3954 H       
 317 H317          12.2703    17.8097    -1.3880 H       
 318 H318          11.8723    19.5251    -1.1288 H       
 319 H319          10.7619    19.6022    -3.3446 H       
 320 H320          11.1599    17.8868    -3.6037 H       
 321 H321           9.8383    17.2768    -1.5963 H       
 322 H322           9.4402    18.9922    -1.3372 H       
 323 H323           8.3298    19.0693    -3.5529 H       
 324 H324           8.7278    17.3539    -3.8121 H       
 325 H325           7.4062    16.7440    -1.8047 H       
 326 H326           7.0081    18.4594    -1.5455 H       
 327 H327           5.8977    18.5364    -3.7613 H       
 328 H328           6.2958    16.8210    -4.0204 H       
 329 H329           4.9741    16.2111    -2.0130 H       
 330 H330           4.5760    17.9265    -1.7539 H       
 331 H331           3.4656    18.0036    -3.9696 H       
 332 H332           3.8637    16.2882    -4.2288 H       
 333 H333           2.5420    15.6782    -2.2214 H       
 334 H334           2.1440    17.3936    -1.9622 H       
 335 H335           1.4316    15.7553    -4.4371 H       
 336 H336           1.0335    17.4707    -4.1780 H       
@<TRIPOS>BOND
   1    1    2 2
   2    1    4 1
   3    1   10 am
   4    3  146 am
   5    3    4 1
   6    3  163 1
   7    4    5 1
   8    4  164 1
   9    5    6 1
  10    5    7 1
  11    5  165 1
  12    6  166 1
  13    6  167 1
  14    6  168 1
  15    7  169 1
  16    8    9 2
  17    8   11 1
  18    8   18 am
  19   10   11 1
  20   10  170 1
  21   11   12 1
  22   11  171 1
  23   12   13 1
  24   12  172 1
  25   12  173 1
  26   13   14 2
  27   13   15 am
  28   15  174 1
  29   15  175 1
  30   16   17 2
  31   16   19 1
  32   16   23 am
  33   18   19 1
  34   18  176 1
  35   19   20 1
  36   19  177 1
  37   20  178 1
  38   20  179 1
  39   20  180 1
  40   21   22 2
  41   21   24 1
  42   21   27 am
  43   23   24 1
  44   23  181 1
  45   24  182 1
  46   24  183 1
  47   25   26 2
  48   25   28 1
  49   25   38 am
  50   27   28 1
  51   27  184 1
  52   28   29 1
  53   28  185 1
  54   29   30 1
  55   29  186 1
  56   29  187 1
  57   30   31 1
  58   30  188 1
  59   30  189 1
  60   31   32 1
  61   31  190 1
  62   31  191 1
  63   32   33 1
  64   32  192 1
  65   33   34 2
  66   33   35 1
  67   34  193 1
  68   35  194 1
  69   35  195 1
  70   36   37 2
  71   36   39 1
  72   36   44 am
  73   38   39 1
  74   38  196 1
  75   39   40 1
  76   39  197 1
  77   40   41 1
  78   40  198 1
  79   40  199 1
  80   41  200 1
  81   42   43 2
  82   42   45 1
  83   42   52 am
  84   44   45 1
  85   44  201 1
  86   45   46 1
  87   45  202 1
  88   46   47 1
  89   46  203 1
  90   46  204 1
  91   47   48 2
  92   47   49 1
  93   49  205 1
  94   50   51 2
  95   50   53 1
  96   50   59 am
  97   52   53 1
  98   52  206 1
  99   53   54 1
 100   53  207 1
 101   54   55 1
 102   54   56 1
 103   54  208 1
 104   55  209 1
 105   55  210 1
 106   55  211 1
 107   56  212 1
 108   57   58 2
 109   57   60 1
 110   57   70 am
 111   59   60 1
 112   59  213 1
 113   60   61 1
 114   60  214 1
 115   61   62 1
 116   61  215 1
 117   61  216 1
 118   62   63 1
 119   62  217 1
 120   62  218 1
 121   63   64 1
 122   63  219 1
 123   63  220 1
 124   64   65 1
 125   64  221 1
 126   65   66 2
 127   65   67 1
 128   66  222 1
 129   67  223 1
 130   67  224 1
 131   68   69 2
 132   68   71 1
 133   68   79 am
 134   70   71 1
 135   70  225 1
 136   71   72 1
 137   71  226 1
 138   72   73 1
 139   72  227 1
 140   72  228 1
 141   73   74 1
 142   73  229 1
 143   73  230 1
 144   74   75 2
 145   74   76 am
 146   76  231 1
 147   76  232 1
 148   77   78 2
 149   77   80 1
 150   77   88 am
 151   79   80 1
 152   79  233 1
 153   80   81 1
 154   80  234 1
 155   81   82 1
 156   81  235 1
 157   81  236 1
 158   82   83 1
 159   82  237 1
 160   82  238 1
 161   83   84 2
 162   83   85 am
 163   85  239 1
 164   85  240 1
 165   86   87 2
 166   86   89 1
 167   86  100 am
 168   88   89 1
 169   88  241 1
 170   89   90 1
 171   89  242 1
 172   90   91 1
 173   90  243 1
 174   90  244 1
 175   91   92 ar
 176   91   97 ar
 177   92   93 ar
 178   92  245 1
 179   93   94 ar
 180   93  246 1
 181   94   95 1
 182   94   96 ar
 183   95  247 1
 184   96   97 ar
 185   96  248 1
 186   97  249 1
 187   98   99 2
 188   98  101 1
 189   98  111 am
 190  100  101 1
 191  100  250 1
 192  101  102 1
 193  101  251 1
 194  102  103 1
 195  102  252 1
 196  102  253 1
 197  103  104 1
 198  103  254 1
 199  103  255 1
 200  104  105 1
 201  104  256 1
 202  104  257 1
 203  105  106 1
 204  105  258 1
 205  106  107 2
 206  106  108 1
 207  107  259 1
 208  108  260 1
 209  108  261 1
 210  109  110 2
 211  109  112 1
 212  109  120 am
 213  111  112 1
 214  111  262 1
 215  112  113 1
 216  112  263 1
 217  113  114 1
 218  113  264 1
 219  113  265 1
 220  114  115 1
 221  114  266 1
 222  114  267 1
 223  115  116 1
 224  115  268 1
 225  115  269 1
 226  116  117 1
 227  116  270 1
 228  116  271 1
 229  117  272 1
 230  117  273 1
 231  118  119 2
 232  118  121 1
 233  118  128 am
 234  120  121 1
 235  120  274 1
 236  121  122 1
 237  121  275 1
 238  122  123 1
 239  122  276 1
 240  122  277 1
 241  123  124 1
 242  123  125 1
 243  123  278 1
 244  124  279 1
 245  124  280 1
 246  124  281 1
 247  125  282 1
 248  125  283 1
 249  125  284 1
 250  126  127 2
 251  126  129 1
 252  126  136 am
 253  128  129 1
 254  128  285 1
 255  129  130 1
 256  129  286 1
 257  130  131 1
 258  130  287 1
 259  130  288 1
 260  131  132 1
 261  131  133 1
 262  131  289 1
 263  132  290 1
 264  132  291 1
 265  132  292 1
 266  133  293 1
 267  133  294 1
 268  133  295 1
 269  134  135 2
 270  134  137 1
 271  134  145 1
 272  136  137 1
 273  136  296 1
 274  137  138 1
 275  137  297 1
 276  138  139 1
 277  138  298 1
 278  138  299 1
 279  139  140 ar
 280  139  144 ar
 281  140  141 ar
 282  140  300 1
 283  141  142 ar
 284  141  301 1
 285  142  143 ar
 286  142  302 1
 287  143  144 ar
 288  143  303 1
 289  144  304 1
 290  145  305 1
 291  146  147 2
 292  146  162 1
 293  148  149 1
 294  148  306 1
 295  148  307 1
 296  148  308 1
 297  149  150 1
 298  149  309 1
 299  149  310 1
 300  150  151 1
 301  150  311 1
 302  150  312 1
 303  151  152 1
 304  151  313 1
 305  151  314 1
 306  152  153 1
 307  152  315 1
 308  152  316 1
 309  153  154 1
 310  153  317 1
 311  153  318 1
 312  154  155 1
 313  154  319 1
 314  154  320 1
 315  155  156 1
 316  155  321 1
 317  155  322 1
 318  156  157 1
 319  156  323 1
 320  156  324 1
 321  157  158 1
 322  157  325 1
 323  157  326 1
 324  158  159 1
 325  158  327 1
 326  158  328 1
 327  159  160 1
 328  159  329 1
 329  159  330 1
 330  160  161 1
 331  160  331 1
 332  160  332 1
 333  161  162 1
 334  161  333 1
 335  161  334 1
 336  162  335 1
 337  162  336 1

#	End of record

