#	Name: ASD07300589
#	Creating user name:	WinNT
#	Creation time:	15. 06. 2019 21:10

#	Modifying user name:	WinNT
#	Modification time:	15. 06. 2019 21:10

#	Program:	/corina/corina34_cracker 3.40 0067  02.08.2006

@<TRIPOS>MOLECULE
ASD07300589
  55   59    0    0    0
SMALL
NO_CHARGES


@<TRIPOS>ATOM
   1 C1            -0.0173     1.4131    -0.0100 C.2     
   2 C2             0.0021    -0.0041     0.0020 C.2     
   3 N3             1.1782     2.0870    -0.0172 N.pl3   
   4 N4             1.1570    -0.6390     0.0060 N.2     
   5 C5             2.3160     0.0274    -0.0010 C.2     
   6 C6             2.3491     1.3748    -0.0122 C.2     
   7 N7            -0.9984     2.3007    -0.0112 N.2     
   8 C8            -0.4873     3.5284    -0.0251 C.2     
   9 C9             0.8871     3.4238    -0.0283 C.2     
  10 N10           -1.1861    -0.7177     0.0100 N.pl3   
  11 C11           -1.1896    -2.1845    -0.1073 C.3     
  12 C12           -2.0522    -2.7579     1.0227 C.3     
  13 O13           -3.3301    -2.1170     1.0109 O.3     
  14 C14           -3.2810    -0.7091     1.2547 C.3     
  15 C15           -2.4810    -0.0313     0.1422 C.3     
  16 C16           -1.2753     4.8130    -0.0317 C.3     
  17 C17            2.9639     4.5216     0.8097 C.ar    
  18 C18            1.8576     4.5387    -0.0389 C.ar    
  19 C19            1.6794     5.6281    -0.9024 C.ar    
  20 C20            2.6126     6.6454    -0.8767 C.ar    
  21 C21            3.6912     6.5569    -0.0013 C.ar    
  22 N22            3.8313     5.5136     0.8026 N.ar    
  23 N23            4.6346     7.5779     0.0297 N.3     
  24 C24            5.6931     7.2915     1.0222 C.3     
  25 C25            6.1270     8.6418     1.6222 C.3     
  26 C26            5.2307     9.6964     0.9334 C.3     
  27 C27            4.0173     8.8603     0.4546 C.3     
  28 O28            7.5031     8.8944     1.3315 O.3     
  29 C29            8.1716     9.6792     2.3210 C.3     
  30 H30            3.2442    -0.5248     0.0029 H       
  31 H31            3.2969     1.8925    -0.0174 H       
  32 H32           -1.6072    -2.4747    -1.0714 H       
  33 H33           -0.1709    -2.5622    -0.0194 H       
  34 H34           -2.1812    -3.8299     0.8742 H       
  35 H35           -1.5638    -2.5784     1.9805 H       
  36 H36           -4.2941    -0.3073     1.2730 H       
  37 H37           -2.7971    -0.5223     2.2133 H       
  38 H38           -2.3172     1.0162     0.3953 H       
  39 H39           -3.0310    -0.1010    -0.7963 H       
  40 H40           -1.4586     5.1321     0.9943 H       
  41 H41           -0.7099     5.5834    -0.5562 H       
  42 H42           -2.2272     4.6528    -0.5380 H       
  43 H43            3.1089     3.6893     1.4825 H       
  44 H44            0.8330     5.6707    -1.5719 H       
  45 H45            2.5070     7.4999    -1.5286 H       
  46 H46            5.3009     6.6452     1.8074 H       
  47 H47            6.5413     6.8129     0.5328 H       
  48 H48            5.9596     8.6485     2.6992 H       
  49 H49            4.9164    10.4597     1.6452 H       
  50 H50            5.7470    10.1471     0.0858 H       
  51 H51            3.5228     9.3465    -0.3863 H       
  52 H52            3.3157     8.6971     1.2727 H       
  53 H53            9.2108     9.8263     2.0269 H       
  54 H54            7.6789    10.6473     2.4109 H       
  55 H55            8.1351     9.1625     3.2801 H       
@<TRIPOS>BOND
   1    1    2 1
   2    1    3 1
   3    1    7 2
   4    2    4 2
   5    2   10 1
   6    3    6 1
   7    3    9 1
   8    4    5 1
   9    5    6 2
  10    5   30 1
  11    6   31 1
  12    7    8 1
  13    8    9 2
  14    8   16 1
  15    9   18 1
  16   10   11 1
  17   10   15 1
  18   11   12 1
  19   11   32 1
  20   11   33 1
  21   12   13 1
  22   12   34 1
  23   12   35 1
  24   13   14 1
  25   14   15 1
  26   14   36 1
  27   14   37 1
  28   15   38 1
  29   15   39 1
  30   16   40 1
  31   16   41 1
  32   16   42 1
  33   17   18 ar
  34   17   22 ar
  35   17   43 1
  36   18   19 ar
  37   19   20 ar
  38   19   44 1
  39   20   21 ar
  40   20   45 1
  41   21   22 ar
  42   21   23 1
  43   23   24 1
  44   23   27 1
  45   24   25 1
  46   24   46 1
  47   24   47 1
  48   25   26 1
  49   25   28 1
  50   25   48 1
  51   26   27 1
  52   26   49 1
  53   26   50 1
  54   27   51 1
  55   27   52 1
  56   28   29 1
  57   29   53 1
  58   29   54 1
  59   29   55 1

#	End of record

