#	Name: ASD01915498
#	Creating user name:	WinNT
#	Creation time:	15. 06. 2019 20:05

#	Modifying user name:	WinNT
#	Modification time:	15. 06. 2019 20:05

#	Program:	/corina/corina34_cracker 3.40 0067  02.08.2006

@<TRIPOS>MOLECULE
ASD01915498
  46   49    0    0    0
SMALL
NO_CHARGES


@<TRIPOS>ATOM
   1 C1             0.0654     1.4328     0.1179 C.ar    
   2 C2             0.0680     0.0486     0.0946 C.ar    
   3 C3             1.2691    -0.6400     0.0642 C.ar    
   4 C4             2.4633     0.0550     0.0572 C.ar    
   5 C5             2.4595     1.4375     0.0804 C.ar    
   6 C6             1.2613     2.1259     0.1108 C.ar    
   7 C7             3.7706    -0.6941     0.0246 C.3     
   8 O8             4.1629    -0.9087    -1.3326 O.3     
   9 C9             5.3289    -1.5756    -1.5397 C.ar    
  10 C10            6.0898    -2.0199    -0.4683 C.ar    
  11 N11            7.2206    -2.6592    -0.6703 N.ar    
  12 C12            7.6906    -2.9111    -1.8860 C.ar    
  13 C13            6.9807    -2.5103    -2.9958 C.ar    
  14 C14            5.7798    -1.8309    -2.8289 C.ar    
  15 C15            9.0145    -3.6245    -1.9833 C.3     
  16 C16            9.1834    -4.2721    -3.3565 C.3     
  17 N17            8.8297    -3.2724    -4.3776 N.am    
  18 C18            7.4424    -2.7957    -4.4014 C.3     
  19 C19            9.7438    -2.8131    -5.2551 C.2     
  20 C20            9.3290    -1.9106    -6.3503 C.ar    
  21 O21           10.9092    -3.1408    -5.1460 O.2     
  22 C22           10.1848    -0.8978    -6.7856 C.ar    
  23 F23           -1.1002    -0.6298     0.1019 F       
  24 C24            8.0824    -2.0718    -6.9568 C.ar    
  25 C25            7.7014    -1.2251    -7.9801 C.ar    
  26 C26            8.5550    -0.2187    -8.4034 C.ar    
  27 C27            9.7931    -0.0585    -7.8084 C.ar    
  28 F28            6.4953    -1.3789    -8.5690 F       
  29 H29           -0.8708     1.9710     0.1371 H       
  30 H30            1.2724    -1.7198     0.0464 H       
  31 H31            3.3934     1.9798     0.0753 H       
  32 H32            1.2595     3.2057     0.1289 H       
  33 H33            4.5363    -0.1111     0.5363 H       
  34 H34            3.6511    -1.6553     0.5246 H       
  35 H35            5.7503    -1.8387     0.5409 H       
  36 H36            5.2117    -1.5000    -3.6857 H       
  37 H37            9.8204    -2.9082    -1.8232 H       
  38 H38            9.0635    -4.3958    -1.2147 H       
  39 H39           10.2185    -4.5859    -3.4911 H       
  40 H40            8.5223    -5.1347    -3.4409 H       
  41 H41            6.8038    -3.5597    -4.8449 H       
  42 H42            7.3823    -1.8837    -4.9953 H       
  43 H43           11.1521    -0.7709    -6.3223 H       
  44 H44            7.4175    -2.8565    -6.6274 H       
  45 H45            8.2537     0.4406    -9.2041 H       
  46 H46           10.4537     0.7277    -8.1428 H       
@<TRIPOS>BOND
   1    1    2 ar
   2    1    6 ar
   3    1   29 1
   4    2    3 ar
   5    2   23 1
   6    3    4 ar
   7    3   30 1
   8    4    5 ar
   9    4    7 1
  10    5    6 ar
  11    5   31 1
  12    6   32 1
  13    7    8 1
  14    7   33 1
  15    7   34 1
  16    8    9 1
  17    9   10 ar
  18    9   14 ar
  19   10   11 ar
  20   10   35 1
  21   11   12 ar
  22   12   13 ar
  23   12   15 1
  24   13   14 ar
  25   13   18 1
  26   14   36 1
  27   15   16 1
  28   15   37 1
  29   15   38 1
  30   16   17 1
  31   16   39 1
  32   16   40 1
  33   17   18 1
  34   17   19 am
  35   18   41 1
  36   18   42 1
  37   19   20 1
  38   19   21 2
  39   20   24 ar
  40   20   22 ar
  41   22   27 ar
  42   22   43 1
  43   24   25 ar
  44   24   44 1
  45   25   26 ar
  46   25   28 1
  47   26   27 ar
  48   26   45 1
  49   27   46 1

#	End of record

