#	Name: ASD08150932
#	Creating user name:	WinNT
#	Creation time:	15. 06. 2019 21:16

#	Modifying user name:	WinNT
#	Modification time:	15. 06. 2019 21:16

#	Program:	/corina/corina34_cracker 3.40 0067  02.08.2006

@<TRIPOS>MOLECULE
ASD08150932
  52   56    0    0    0
SMALL
NO_CHARGES


@<TRIPOS>ATOM
   1 N1            -0.2170     1.2338    -0.0418 N.3     
   2 C2            -0.3834    -0.2197    -0.1679 C.3     
   3 C3             0.1922    -0.9098     1.0709 C.3     
   4 C4             1.6763    -0.5567     1.2026 C.3     
   5 C5             1.8256     0.9651     1.2835 C.3     
   6 C6             1.2027     1.6008     0.0386 C.3     
   7 C7             2.2213    -1.1701     2.4247 C.1     
   8 N8             2.6419    -1.6435     3.3678 N.1     
   9 N9             0.5117     0.7843    -2.7121 N.ar    
  10 C10            0.8762     0.5508    -3.9495 C.ar    
  11 C11            0.2723     1.1979    -5.0255 C.ar    
  12 C12           -0.7273     2.1016    -4.8034 C.ar    
  13 C13           -1.1158     2.3490    -3.4730 C.ar    
  14 C14           -2.1368     3.2650    -3.1691 C.ar    
  15 C15           -2.4903     3.4820    -1.8707 C.ar    
  16 C16           -1.8536     2.8076    -0.8333 C.ar    
  17 C17           -0.8475     1.9023    -1.0917 C.ar    
  18 C18           -0.4591     1.6562    -2.4267 C.ar    
  19 C19           -2.2689     3.0717     0.5911 C.3     
  20 C20           -1.3956     4.1817     1.1794 C.3     
  21 N21           -3.6733     3.4875     0.6211 N.pl3   
  22 N22           -6.6328     4.2592     0.9317 N.2     
  23 C23           -7.8043     4.3828     1.4849 C.2     
  24 N24           -7.7862     3.8474     2.7384 N.pl3   
  25 C25           -6.5209     3.3668     2.9622 C.ar    
  26 N26           -5.9150     2.7539     3.9738 N.ar    
  27 C27           -4.6489     2.4045     3.8853 C.ar    
  28 N28           -3.9225     2.6392     2.8079 N.ar    
  29 C29           -4.4423     3.2466     1.7462 C.ar    
  30 C30           -5.7909     3.6385     1.7926 C.ar    
  31 Cl31          -2.9464     4.1196    -4.4451 Cl      
  32 H32           -1.4434    -0.4576    -0.2565 H       
  33 H33            0.1428    -0.5698    -1.0560 H       
  34 H34           -0.3427    -0.5705     1.9580 H       
  35 H35            0.0826    -1.9895     0.9700 H       
  36 H36            2.2181    -0.9301     0.3337 H       
  37 H37            1.3164     1.3339     2.1739 H       
  38 H38            2.8829     1.2248     1.3344 H       
  39 H39            1.7213     1.2422    -0.8505 H       
  40 H40            1.2946     2.6852     0.0999 H       
  41 H41            1.6654    -0.1615    -4.1398 H       
  42 H42            0.5945     0.9853    -6.0342 H       
  43 H43           -1.2062     2.6127    -5.6255 H       
  44 H44           -3.2759     4.1875    -1.6438 H       
  45 H45           -2.1464     2.1626     1.1798 H       
  46 H46           -1.6960     4.3728     2.2097 H       
  47 H47           -0.3507     3.8724     1.1571 H       
  48 H48           -1.5181     5.0909     0.5908 H       
  49 H49           -4.0642     3.9317    -0.1475 H       
  50 H50           -8.6638     4.8424     1.0197 H       
  51 H51           -8.5313     3.8129     3.3586 H       
  52 H52           -4.1868     1.9079     4.7257 H       
@<TRIPOS>BOND
   1    1    2 1
   2    1    6 1
   3    1   17 1
   4    2    3 1
   5    2   32 1
   6    2   33 1
   7    3    4 1
   8    3   34 1
   9    3   35 1
  10    4    5 1
  11    4    7 1
  12    4   36 1
  13    5    6 1
  14    5   37 1
  15    5   38 1
  16    6   39 1
  17    6   40 1
  18    7    8 3
  19    9   10 ar
  20    9   18 ar
  21   10   11 ar
  22   10   41 1
  23   11   12 ar
  24   11   42 1
  25   12   13 ar
  26   12   43 1
  27   13   14 ar
  28   13   18 ar
  29   14   15 ar
  30   14   31 1
  31   15   16 ar
  32   15   44 1
  33   16   17 ar
  34   16   19 1
  35   17   18 ar
  36   19   20 1
  37   19   21 1
  38   19   45 1
  39   20   46 1
  40   20   47 1
  41   20   48 1
  42   21   29 1
  43   21   49 1
  44   22   23 2
  45   22   30 1
  46   23   24 1
  47   23   50 1
  48   24   25 1
  49   24   51 1
  50   25   26 ar
  51   25   30 ar
  52   26   27 ar
  53   27   28 ar
  54   27   52 1
  55   28   29 ar
  56   29   30 ar

#	End of record

