#	Name: ASD05490230
#	Creating user name:	WinNT
#	Creation time:	15. 06. 2019 21:01

#	Modifying user name:	WinNT
#	Modification time:	15. 06. 2019 21:01

#	Program:	/corina/corina34_cracker 3.40 0067  02.08.2006

@<TRIPOS>MOLECULE
ASD05490230
  62   66    0    0    0
SMALL
NO_CHARGES


@<TRIPOS>ATOM
   1 N1            -0.0140     1.3235    -0.0018 N.ar    
   2 C2             0.0026    -0.0005    -0.0086 C.ar    
   3 C3             1.1990    -0.7004    -0.0178 C.ar    
   4 C4             2.3953     0.0106    -0.0206 C.ar    
   5 C5             2.3404     1.4047    -0.0168 C.ar    
   6 C6             1.1047     2.0380    -0.0056 C.ar    
   7 N7             3.6186    -0.6479    -0.0229 N.3     
   8 C8             3.4706    -2.0318    -0.4926 C.3     
   9 C9             4.7908    -2.7480    -0.3696 C.ar    
  10 C10            5.1057    -3.4216     0.7954 C.ar    
  11 C11            6.3170    -4.0785     0.9083 C.ar    
  12 C12            7.2128    -4.0621    -0.1442 C.ar    
  13 C13            6.8974    -3.3890    -1.3099 C.ar    
  14 C14            5.6847    -2.7359    -1.4243 C.ar    
  15 N15            7.6154    -4.5166    -3.3392 N.3     
  16 C16            8.3864    -4.4047    -4.5910 C.3     
  17 C17            9.2451    -5.6809    -4.7146 C.3     
  18 C18            8.4903    -6.6982    -3.8190 C.3     
  19 C19            7.9763    -5.7877    -2.6760 C.3     
  20 N20            1.0388     3.4288     0.0012 N.pl3   
  21 O21           -1.1706    -0.6833    -0.0060 O.3     
  22 C22           -2.3717     0.0908     0.0041 C.3     
  23 C23           -3.5636    -0.8313     0.0055 C.ar    
  24 C24           -4.1042    -1.2603     1.2033 C.ar    
  25 C25           -5.1975    -2.1062     1.2046 C.ar    
  26 N26            3.5364     2.1439    -0.0281 N.am    
  27 C27            4.6274     0.0692    -0.8097 C.3     
  28 C28            4.6764     1.5173    -0.3970 C.2     
  29 O29            5.7309     2.1170    -0.3961 O.2     
  30 C30            7.8743    -3.3707    -2.4572 C.3     
  31 C31           -5.7506    -2.5227     0.0082 C.ar    
  32 C32           -5.2106    -2.0930    -1.1896 C.ar    
  33 C33           -4.1200    -1.2436    -1.1909 C.ar    
  34 H34            1.2028    -1.7804    -0.0225 H       
  35 H35            2.7222    -2.5430     0.1130 H       
  36 H36            3.1542    -2.0297    -1.5357 H       
  37 H37            4.4058    -3.4344     1.6178 H       
  38 H38            6.5634    -4.6043     1.8189 H       
  39 H39            8.1593    -4.5746    -0.0557 H       
  40 H40            5.4383    -2.2102    -2.3350 H       
  41 H41            7.7066    -4.3315    -5.4399 H       
  42 H42            9.0308    -3.5265    -4.5523 H       
  43 H43            9.2760    -6.0260    -5.7481 H       
  44 H44           10.2519    -5.5063    -4.3353 H       
  45 H45            7.6600    -7.1532    -4.3591 H       
  46 H46            9.1692    -7.4602    -3.4359 H       
  47 H47            8.7631    -5.6218    -1.9401 H       
  48 H48            7.1002    -6.2309    -2.2026 H       
  49 H49            1.8549     3.9530    -0.0019 H       
  50 H50            0.1768     3.8735     0.0091 H       
  51 H51           -2.3941     0.7150     0.8974 H       
  52 H52           -2.4033     0.7241    -0.8825 H       
  53 H53           -3.6720    -0.9349     2.1381 H       
  54 H54           -5.6193    -2.4420     2.1404 H       
  55 H55            3.5435     3.0810     0.2224 H       
  56 H56            5.6040    -0.3863    -0.6458 H       
  57 H57            4.3737     0.0035    -1.8678 H       
  58 H58            7.7561    -2.4449    -3.0203 H       
  59 H59            8.8912    -3.4329    -2.0697 H       
  60 H60           -6.6043    -3.1842     0.0092 H       
  61 H61           -5.6425    -2.4187    -2.1244 H       
  62 H62           -3.6981    -0.9079    -2.1267 H       
@<TRIPOS>BOND
   1    1    2 ar
   2    1    6 ar
   3    2    3 ar
   4    2   21 1
   5    3    4 ar
   6    3   34 1
   7    4    5 ar
   8    4    7 1
   9    5    6 ar
  10    5   26 1
  11    6   20 1
  12    7    8 1
  13    7   27 1
  14    8    9 1
  15    8   35 1
  16    8   36 1
  17    9   10 ar
  18    9   14 ar
  19   10   11 ar
  20   10   37 1
  21   11   12 ar
  22   11   38 1
  23   12   13 ar
  24   12   39 1
  25   13   14 ar
  26   13   30 1
  27   14   40 1
  28   15   16 1
  29   15   19 1
  30   15   30 1
  31   16   17 1
  32   16   41 1
  33   16   42 1
  34   17   18 1
  35   17   43 1
  36   17   44 1
  37   18   19 1
  38   18   45 1
  39   18   46 1
  40   19   47 1
  41   19   48 1
  42   20   49 1
  43   20   50 1
  44   21   22 1
  45   22   23 1
  46   22   51 1
  47   22   52 1
  48   23   24 ar
  49   23   33 ar
  50   24   25 ar
  51   24   53 1
  52   25   31 ar
  53   25   54 1
  54   26   28 am
  55   26   55 1
  56   27   28 1
  57   27   56 1
  58   27   57 1
  59   28   29 2
  60   30   58 1
  61   30   59 1
  62   31   32 ar
  63   31   60 1
  64   32   33 ar
  65   32   61 1
  66   33   62 1

#	End of record

