#	Name: ASD00170710
#	Creating user name:	WinNT
#	Creation time:	15. 06. 2019 18:32

#	Modifying user name:	WinNT
#	Modification time:	15. 06. 2019 18:32

#	Program:	/corina/corina34_cracker 3.40 0067  02.08.2006

@<TRIPOS>MOLECULE
ASD00170710
  45   47    0    0    0
SMALL
NO_CHARGES


@<TRIPOS>ATOM
   1 Cl1            1.4631     3.3902    -4.4694 Cl      
   2 C2             1.0941     4.0618    -2.9117 C.ar    
   3 C3             2.0551     4.0593    -1.9142 C.ar    
   4 C4             1.7678     4.5914    -0.6749 C.ar    
   5 C5             0.5053     5.1334    -0.4266 C.ar    
   6 C6            -0.4592     5.1331    -1.4361 C.ar    
   7 C7            -0.1584     4.6033    -2.6732 C.ar    
   8 C8             0.1908     5.7050     0.9003 C.2     
   9 O9             0.9987     5.6188     1.8075 O.2     
  10 C10           -1.0908     6.3741     1.1233 C.2     
  11 C11           -2.1791     5.7622     1.7035 C.2     
  12 N12           -2.2001     4.4552     2.1437 N.pl3   
  13 S13           -3.4962     6.8386     1.8052 S.3     
  14 C14           -2.5914     8.1437     1.0595 C.2     
  15 C15           -1.3482     7.7505     0.7637 C.2     
  16 C16           -0.3249     8.6458     0.1139 C.3     
  17 C17            0.5047     9.3409     1.1954 C.3     
  18 C18            1.3296     8.2990     1.9537 C.3     
  19 C19            1.4432    10.3581     0.5432 C.3     
  20 C20           -0.4290    10.0605     2.1707 C.3     
  21 C21           -3.1296     9.4981     0.7982 C.2     
  22 C22           -4.4259     9.8970     0.9603 C.2     
  23 N23           -4.4972    11.2001     0.6160 N.pl3   
  24 N24           -3.2188    11.6220     0.2314 N.2     
  25 C25           -2.3964    10.6126     0.3427 C.2     
  26 H26            3.0312     3.6394    -2.1073 H       
  27 H27            2.5177     4.5885     0.1023 H       
  28 H28           -1.4375     5.5510    -1.2498 H       
  29 H29           -0.9036     4.6025    -3.4548 H       
  30 H30           -1.4359     3.8785     1.9876 H       
  31 H31           -2.9791     4.1127     2.6092 H       
  32 H32            0.3310     8.0483    -0.5192 H       
  33 H33           -0.8317     9.3958    -0.4934 H       
  34 H34            1.9948     7.7864     1.2588 H       
  35 H35            1.9206     8.7942     2.7241 H       
  36 H36            0.6610     7.5743     2.4183 H       
  37 H37            0.8555    11.1004     0.0030 H       
  38 H38            2.0342    10.8533     1.3136 H       
  39 H39            2.1084     9.8455    -0.1517 H       
  40 H40           -1.2993     9.4349     2.3690 H       
  41 H41            0.0997    10.2539     3.1041 H       
  42 H42           -0.7525    11.0052     1.7339 H       
  43 H43           -5.2451     9.2813     1.3014 H       
  44 H44           -5.2964    11.7497     0.6322 H       
  45 H45           -1.3400    10.6280     0.1188 H       
@<TRIPOS>BOND
   1    1    2 1
   2    2    3 ar
   3    2    7 ar
   4    3    4 ar
   5    3   26 1
   6    4    5 ar
   7    4   27 1
   8    5    6 ar
   9    5    8 1
  10    6    7 ar
  11    6   28 1
  12    7   29 1
  13    8    9 2
  14    8   10 1
  15   10   11 2
  16   10   15 1
  17   11   12 1
  18   11   13 1
  19   12   30 1
  20   12   31 1
  21   13   14 1
  22   14   15 2
  23   14   21 1
  24   15   16 1
  25   16   17 1
  26   16   32 1
  27   16   33 1
  28   17   18 1
  29   17   19 1
  30   17   20 1
  31   18   34 1
  32   18   35 1
  33   18   36 1
  34   19   37 1
  35   19   38 1
  36   19   39 1
  37   20   40 1
  38   20   41 1
  39   20   42 1
  40   21   22 2
  41   21   25 1
  42   22   23 1
  43   22   43 1
  44   23   24 1
  45   23   44 1
  46   24   25 2
  47   25   45 1

#	End of record

