#	Name: ASD03330308
#	Creating user name:	WinNT
#	Creation time:	15. 06. 2019 20:37

#	Modifying user name:	WinNT
#	Modification time:	15. 06. 2019 20:37

#	Program:	/corina/corina34_cracker 3.40 0067  02.08.2006

@<TRIPOS>MOLECULE
ASD03330308
  67   70    0    0    0
SMALL
NO_CHARGES


@<TRIPOS>ATOM
   1 C1             0.0419    -0.2703     1.0735 C.3     
   2 N2             0.0729    -1.6607     0.5949 N.am    
   3 C3             0.6674    -1.9243    -0.7295 C.3     
   4 C4             1.9259    -1.0965    -0.8191 C.2     
   5 N5             2.2668    -0.1317     0.0719 N.pl3   
   6 C6             1.4776     0.2369     1.2495 C.3     
   7 C7             2.9071    -1.1508    -1.7555 C.2     
   8 N8             3.8319    -0.2183    -1.4337 N.2     
   9 C9             3.4529     0.3990    -0.3383 C.2     
  10 C10            4.1902     1.4895     0.3373 C.ar    
  11 C11            5.2172     2.1584    -0.3292 C.ar    
  12 C12            2.9560    -2.0617    -2.9129 C.2     
  13 O13            2.0583    -2.8617    -3.0954 O.2     
  14 C14            4.0440    -2.9137    -4.9197 C.3     
  15 N15            3.9954    -2.0081    -3.7691 N.am    
  16 C16            3.2480    -2.3095    -6.0783 C.3     
  17 S17           -0.5404    -2.8933     1.5151 S.o2    
  18 C18            5.9007     3.1747     0.3061 C.ar    
  19 C19            5.5696     3.5308     1.6012 C.ar    
  20 C20            4.5522     2.8714     2.2676 C.ar    
  21 C21            3.8576     1.8569     1.6414 C.ar    
  22 C22            3.7707    -0.9030    -6.3773 C.3     
  23 C23            3.4088    -3.1881    -7.3204 C.3     
  24 C24            1.7687    -2.2331    -5.6955 C.3     
  25 C25            5.4767    -3.1110    -5.3435 C.2     
  26 O26            6.3052    -2.2610    -5.0946 O.2     
  27 O27           -0.5104    -2.4417     2.8621 O.2     
  28 C28            7.2476    -4.4767    -6.3109 C.3     
  29 N29            5.8372    -4.2319    -5.9992 N.am    
  30 C30           -2.2405    -3.0680     1.0866 C.ar    
  31 O31            0.1074    -4.0804     1.0788 O.2     
  32 C32           -2.6115    -3.9214     0.0644 C.ar    
  33 C33           -3.9454    -4.0583    -0.2718 C.ar    
  34 C34           -4.9082    -3.3423     0.4146 C.ar    
  35 C35           -4.5373    -2.4896     1.4374 C.ar    
  36 C36           -3.2038    -2.3559     1.7764 C.ar    
  37 H37           -0.4777     0.3534     0.3461 H       
  38 H38           -0.4794    -0.2261     2.0297 H       
  39 H39            0.9106    -2.9826    -0.8242 H       
  40 H40           -0.0285    -1.6296    -1.5150 H       
  41 H41            1.4699     1.3215     1.3577 H       
  42 H42            1.9171    -0.2154     2.1385 H       
  43 H43            5.4769     1.8810    -1.3402 H       
  44 H44            3.6111    -3.8752    -4.6439 H       
  45 H45            4.7113    -1.3700    -3.6236 H       
  46 H46            6.6962     3.6930    -0.2087 H       
  47 H47            6.1078     4.3268     2.0944 H       
  48 H48            4.2984     3.1540     3.2786 H       
  49 H49            3.0636     1.3428     2.1626 H       
  50 H50            4.8246    -0.9574    -6.6500 H       
  51 H51            3.2036    -0.4725    -7.2027 H       
  52 H52            3.6562    -0.2770    -5.4924 H       
  53 H53            3.0028    -4.1795    -7.1193 H       
  54 H54            2.8719    -2.7383    -8.1556 H       
  55 H55            4.4661    -3.2726    -7.5714 H       
  56 H56            1.6542    -1.6071    -4.8106 H       
  57 H57            1.2016    -1.8027    -6.5209 H       
  58 H58            1.3963    -3.2351    -5.4824 H       
  59 H59            7.3436    -5.4253    -6.8392 H       
  60 H60            7.6259    -3.6707    -6.9396 H       
  61 H61            7.8226    -4.5163    -5.3857 H       
  62 H62            5.1629    -4.8767    -6.2646 H       
  63 H63           -1.8593    -4.4808    -0.4718 H       
  64 H64           -4.2352    -4.7246    -1.0709 H       
  65 H65           -5.9502    -3.4488     0.1514 H       
  66 H66           -5.2895    -1.9299     1.9734 H       
  67 H67           -2.9140    -1.6897     2.5756 H       
@<TRIPOS>BOND
   1    1    2 1
   2    1    6 1
   3    1   37 1
   4    1   38 1
   5    2    3 1
   6    2   17 am
   7    3    4 1
   8    3   39 1
   9    3   40 1
  10    4    5 1
  11    4    7 2
  12    5    6 1
  13    5    9 1
  14    6   41 1
  15    6   42 1
  16    7    8 1
  17    7   12 1
  18    8    9 2
  19    9   10 1
  20   10   11 ar
  21   10   21 ar
  22   11   18 ar
  23   11   43 1
  24   12   13 2
  25   12   15 am
  26   14   15 1
  27   14   25 1
  28   14   16 1
  29   14   44 1
  30   15   45 1
  31   16   22 1
  32   16   23 1
  33   16   24 1
  34   17   27 2
  35   17   30 1
  36   17   31 2
  37   18   19 ar
  38   18   46 1
  39   19   20 ar
  40   19   47 1
  41   20   21 ar
  42   20   48 1
  43   21   49 1
  44   22   50 1
  45   22   51 1
  46   22   52 1
  47   23   53 1
  48   23   54 1
  49   23   55 1
  50   24   56 1
  51   24   57 1
  52   24   58 1
  53   25   26 2
  54   25   29 am
  55   28   29 1
  56   28   59 1
  57   28   60 1
  58   28   61 1
  59   29   62 1
  60   30   32 ar
  61   30   36 ar
  62   32   33 ar
  63   32   63 1
  64   33   34 ar
  65   33   64 1
  66   34   35 ar
  67   34   65 1
  68   35   36 ar
  69   35   66 1
  70   36   67 1

#	End of record

