#	Name: ASD01911803
#	Creating user name:	WinNT
#	Creation time:	15. 06. 2019 19:58

#	Modifying user name:	WinNT
#	Modification time:	15. 06. 2019 19:58

#	Program:	/corina/corina34_cracker 3.40 0067  02.08.2006

@<TRIPOS>MOLECULE
ASD01911803
  28   28    0    0    0
SMALL
NO_CHARGES


@<TRIPOS>ATOM
   1 C1            -0.0202     1.5019     0.0075 C.2     
   2 C2             0.0014    -0.0050     0.0147 C.3     
   3 C3             1.4286    -0.4871    -0.0232 C.2     
   4 O4             1.0171     2.1207    -0.0251 O.2     
   5 O5            -1.1918     2.1565     0.0317 O.3     
   6 O6             2.3388     0.3140    -0.0532 O.2     
   7 N7             1.6937    -1.8086    -0.0238 N.am    
   8 C8             3.0149    -2.2578    -0.1446 C.ar    
   9 C9             3.2771    -3.5182    -0.6711 C.ar    
  10 C10            4.5827    -3.9577    -0.7890 C.ar    
  11 C11            5.6264    -3.1450    -0.3835 C.ar    
  12 C12            5.3675    -1.8917     0.1406 C.ar    
  13 C13            4.0653    -1.4440     0.2555 C.ar    
  14 I14            7.6033    -3.8148    -0.5632 I       
  15 F15            2.2577    -4.3119    -1.0661 F       
  16 C16           -1.1365     3.6074     0.0229 C.3     
  17 C17           -2.5582     4.1721     0.0534 C.3     
  18 H18           -0.4818    -0.3709     0.9207 H       
  19 H19           -0.5322    -0.3802    -0.8586 H       
  20 H20            0.9695    -2.4486     0.0594 H       
  21 H21            4.7879    -4.9362    -1.1977 H       
  22 H22            6.1846    -1.2601     0.4565 H       
  23 H23            3.8649    -0.4631     0.6605 H       
  24 H24           -0.5885     3.9554     0.8985 H       
  25 H25           -0.6303     3.9463    -0.8810 H       
  26 H26           -3.1062     3.8240    -0.8221 H       
  27 H27           -3.0644     3.8332     0.9573 H       
  28 H28           -2.5167     5.2613     0.0468 H       
@<TRIPOS>BOND
   1    1    2 1
   2    1    4 2
   3    1    5 1
   4    2    3 1
   5    2   18 1
   6    2   19 1
   7    3    6 2
   8    3    7 am
   9    5   16 1
  10    7    8 1
  11    7   20 1
  12    8    9 ar
  13    8   13 ar
  14    9   10 ar
  15    9   15 1
  16   10   11 ar
  17   10   21 1
  18   11   12 ar
  19   11   14 1
  20   12   13 ar
  21   12   22 1
  22   13   23 1
  23   16   17 1
  24   16   24 1
  25   16   25 1
  26   17   26 1
  27   17   27 1
  28   17   28 1

#	End of record

