#	Name: ASD03090914
#	Creating user name:	WinNT
#	Creation time:	15. 06. 2019 20:29

#	Modifying user name:	WinNT
#	Modification time:	15. 06. 2019 20:29

#	Program:	/corina/corina34_cracker 3.40 0067  02.08.2006

@<TRIPOS>MOLECULE
ASD03090914
  47   50    0    0    0
SMALL
NO_CHARGES


@<TRIPOS>ATOM
   1 N1            -0.0175     1.3432    -0.0860 N.am    
   2 C2             0.0012    -0.0044    -0.0679 C.2     
   3 O3             1.0649    -0.5993    -0.0775 O.2     
   4 N4            -1.1464    -0.6880    -0.0394 N.2     
   5 C5             1.2409     2.0928    -0.1173 C.3     
   6 C6             1.6486     2.3304    -1.5485 C.ar    
   7 C7             1.3099     3.5160    -2.1768 C.ar    
   8 N8             2.3341     1.4090    -2.2018 N.ar    
   9 N9             1.6674     3.7242    -3.4316 N.ar    
  10 C10            2.3484     2.8003    -4.0866 C.ar    
  11 C11            2.6917     1.6174    -3.4569 C.ar    
  12 S12            0.2595    -3.0387    -0.0302 S.3     
  13 C13           -1.1280    -2.0187    -0.0215 C.2     
  14 N14           -2.1987    -2.8518     0.0077 N.pl3   
  15 C15           -1.9391    -4.1884     0.0221 C.2     
  16 C16           -0.6633    -4.5510     0.0062 C.2     
  17 O17           -7.3741    -0.8848     0.0781 O.3     
  18 C18           -8.4123    -1.7492    -0.3960 C.3     
  19 C19           -8.2087    -3.1342     0.2329 C.3     
  20 O20           -6.9212    -3.6205    -0.1616 O.3     
  21 C21           -5.8806    -2.7488    -0.0610 C.ar    
  22 C22           -6.1064    -1.3819     0.0568 C.ar    
  23 C23           -4.5831    -3.2357    -0.0763 C.ar    
  24 C24           -3.5113    -2.3592     0.0230 C.ar    
  25 C25           -3.7397    -0.9950     0.1377 C.ar    
  26 C26           -5.0330    -0.5092     0.1545 C.ar    
  27 F27           -8.2679    -3.0328     1.6270 F       
  28 F28           -9.2025    -4.0087    -0.2198 F       
  29 F29           -9.6595    -1.2390    -0.0199 F       
  30 F30           -8.3434    -1.8491    -1.7897 F       
  31 C31           -0.1141    -5.9542     0.0171 C.3     
  32 C32           -1.2961     2.0582    -0.0806 C.3     
  33 H33            1.1060     3.0502     0.3858 H       
  34 H34            2.0170     1.5211     0.3915 H       
  35 H35            0.7531     4.2709    -1.6415 H       
  36 H36            2.6403     2.9704    -5.1124 H       
  37 H37            3.2520     0.8642    -3.9909 H       
  38 H38           -2.7344    -4.9188     0.0454 H       
  39 H39           -4.4058    -4.2972    -0.1662 H       
  40 H40           -2.9060    -0.3127     0.2139 H       
  41 H41           -5.2085     0.5527     0.2435 H       
  42 H42            0.9752    -5.9182    -0.0005 H       
  43 H43           -0.4460    -6.4673     0.9197 H       
  44 H44           -0.4741    -6.4922    -0.8598 H       
  45 H45           -1.6010     2.2495     0.9483 H       
  46 H46           -1.1850     3.0052    -0.6087 H       
  47 H47           -2.0536     1.4519    -0.5772 H       
@<TRIPOS>BOND
   1    1    2 am
   2    1    5 1
   3    1   32 1
   4    2    3 2
   5    2    4 1
   6    4   13 2
   7    5    6 1
   8    5   33 1
   9    5   34 1
  10    6    7 ar
  11    6    8 ar
  12    7    9 ar
  13    7   35 1
  14    8   11 ar
  15    9   10 ar
  16   10   11 ar
  17   10   36 1
  18   11   37 1
  19   12   13 1
  20   12   16 1
  21   13   14 1
  22   14   15 1
  23   14   24 1
  24   15   16 2
  25   15   38 1
  26   16   31 1
  27   17   18 1
  28   17   22 1
  29   18   19 1
  30   18   29 1
  31   18   30 1
  32   19   20 1
  33   19   27 1
  34   19   28 1
  35   20   21 1
  36   21   22 ar
  37   21   23 ar
  38   22   26 ar
  39   23   24 ar
  40   23   39 1
  41   24   25 ar
  42   25   26 ar
  43   25   40 1
  44   26   41 1
  45   31   42 1
  46   31   43 1
  47   31   44 1
  48   32   45 1
  49   32   46 1
  50   32   47 1

#	End of record

