#	Name: ASD01914402
#	Creating user name:	WinNT
#	Creation time:	15. 06. 2019 20:03

#	Modifying user name:	WinNT
#	Modification time:	15. 06. 2019 20:03

#	Program:	/corina/corina34_cracker 3.40 0067  02.08.2006

@<TRIPOS>MOLECULE
ASD01914402
  54   58    0    0    0
SMALL
NO_CHARGES


@<TRIPOS>ATOM
   1 C1            -0.0167     1.3769     0.0096 C.ar    
   2 C2             0.0021    -0.0041     0.0020 C.ar    
   3 C3             1.2140    -0.6809    -0.0132 C.ar    
   4 C4             2.4051     0.0320    -0.0208 C.ar    
   5 C5             2.3825     1.4129    -0.0132 C.ar    
   6 C6             1.1726     2.0864     0.0021 C.ar    
   7 N7             1.2350    -2.0834    -0.0205 N.pl3   
   8 C8             0.5464    -2.9100     0.8264 C.2     
   9 C9             0.8560    -4.1831     0.4670 C.2     
  10 N10            1.7120    -4.1229    -0.5732 N.2     
  11 C11            1.9379    -2.8743    -0.8731 C.2     
  12 C12            0.3436    -5.4202     1.1060 C.ar    
  13 C13            0.7454    -6.6684     0.6343 C.ar    
  14 C14            0.2663    -7.8164     1.2316 C.ar    
  15 C15           -0.6129    -7.7293     2.2987 C.ar    
  16 C16           -1.0150    -6.4905     2.7710 C.ar    
  17 C17           -0.5364    -5.3373     2.1834 C.ar    
  18 C18            2.8398    -2.3875    -1.9780 C.3     
  19 O19            0.8611    -2.5115    -3.2581 O.2     
  20 C20            2.0441    -2.2445    -3.2497 C.2     
  21 N21            2.6471    -1.8198    -4.3778 N.am    
  22 F22            1.1524     3.4372     0.0100 F       
  23 F23           -1.0798    -8.8558     2.8803 F       
  24 C24            1.8234    -1.7030    -5.5717 C.3     
  25 C25            1.6421    -0.2174    -5.9253 C.3     
  26 C26            2.9473     0.2646    -6.5397 C.2     
  27 C27            4.1033     0.3721    -5.8924 C.2     
  28 C28            4.2879    -0.0021    -4.4225 C.3     
  29 C29            4.0662    -1.5106    -4.2999 C.3     
  30 S30            3.1715     0.7674    -8.2097 S.3     
  31 C31            4.8181     1.1006    -7.8917 C.2     
  32 N32            5.0925     0.8355    -6.6551 N.2     
  33 N33            5.7254     1.5839    -8.8214 N.pl3   
  34 H34           -0.9594     1.9038     0.0169 H       
  35 H35           -0.9256    -0.5571     0.0083 H       
  36 H36            3.3489    -0.4929    -0.0323 H       
  37 H37            3.3090     1.9679    -0.0191 H       
  38 H38           -0.1145    -2.6085     1.6256 H       
  39 H39            1.4304    -6.7372    -0.1978 H       
  40 H40            0.5769    -8.7841     0.8664 H       
  41 H41           -1.7007    -6.4273     3.6029 H       
  42 H42           -0.8502    -4.3720     2.5525 H       
  43 H43            3.2622    -1.4210    -1.7030 H       
  44 H44            3.6454    -3.1054    -2.1322 H       
  45 H45            2.3099    -2.2171    -6.4006 H       
  46 H46            0.8486    -2.1539    -5.3862 H       
  47 H47            0.8300    -0.1037    -6.6434 H       
  48 H48            1.4235     0.3544    -5.0234 H       
  49 H49            5.2975     0.2521    -4.0997 H       
  50 H50            3.5581     0.5284    -3.8109 H       
  51 H51            4.4595    -1.8575    -3.3444 H       
  52 H52            4.5878    -2.0199    -5.1102 H       
  53 H53            5.4403     1.7584    -9.7320 H       
  54 H54            6.6454     1.7478    -8.5614 H       
@<TRIPOS>BOND
   1    1    2 ar
   2    1    6 ar
   3    1   34 1
   4    2    3 ar
   5    2   35 1
   6    3    4 ar
   7    3    7 1
   8    4    5 ar
   9    4   36 1
  10    5    6 ar
  11    5   37 1
  12    6   22 1
  13    7    8 1
  14    7   11 1
  15    8    9 2
  16    8   38 1
  17    9   10 1
  18    9   12 1
  19   10   11 2
  20   11   18 1
  21   12   13 ar
  22   12   17 ar
  23   13   14 ar
  24   13   39 1
  25   14   15 ar
  26   14   40 1
  27   15   16 ar
  28   15   23 1
  29   16   17 ar
  30   16   41 1
  31   17   42 1
  32   18   20 1
  33   18   43 1
  34   18   44 1
  35   19   20 2
  36   20   21 am
  37   21   24 1
  38   21   29 1
  39   24   25 1
  40   24   45 1
  41   24   46 1
  42   25   26 1
  43   25   47 1
  44   25   48 1
  45   26   27 2
  46   26   30 1
  47   27   28 1
  48   27   32 1
  49   28   29 1
  50   28   49 1
  51   28   50 1
  52   29   51 1
  53   29   52 1
  54   30   31 1
  55   31   32 2
  56   31   33 1
  57   33   53 1
  58   33   54 1

#	End of record

