#	Name: ASD08150441
#	Creating user name:	WinNT
#	Creation time:	15. 06. 2019 21:16

#	Modifying user name:	WinNT
#	Modification time:	15. 06. 2019 21:16

#	Program:	/corina/corina34_cracker 3.40 0067  02.08.2006

@<TRIPOS>MOLECULE
ASD08150441
  13   14    0    0    0
SMALL
NO_CHARGES


@<TRIPOS>ATOM
   1 C1            -0.0157     1.3066     0.0092 C.ar    
   2 N2             0.0021    -0.0041     0.0020 N.ar    
   3 C3             1.1692    -0.6829    -0.0128 C.ar    
   4 C4             2.3563     0.0605    -0.0202 C.ar    
   5 C5             2.2798     1.4545    -0.0120 C.ar    
   6 N6             1.0902     2.0315     0.0026 N.ar    
   7 C7             1.4035    -2.0669    -0.0232 C.2     
   8 C8             2.6744    -2.4357    -0.0380 C.2     
   9 S9             3.7313    -1.0340    -0.0403 S.3     
  10 Cl10           3.7252     2.4160    -0.0201 Cl      
  11 Cl11          -1.5486     2.1213     0.0208 Cl      
  12 H12            0.5973    -2.7855    -0.0191 H       
  13 H13            3.0152    -3.4605    -0.0471 H       
@<TRIPOS>BOND
   1    1    2 ar
   2    1    6 ar
   3    1   11 1
   4    2    3 ar
   5    3    4 ar
   6    3    7 1
   7    4    5 ar
   8    4    9 1
   9    5    6 ar
  10    5   10 1
  11    7    8 2
  12    7   12 1
  13    8    9 1
  14    8   13 1

#	End of record

