#	Name: ASD01910262
#	Creating user name:	WinNT
#	Creation time:	15. 06. 2019 19:55

#	Modifying user name:	WinNT
#	Modification time:	15. 06. 2019 19:55

#	Program:	/corina/corina34_cracker 3.40 0067  02.08.2006

@<TRIPOS>MOLECULE
ASD01910262
  50   54    0    0    0
SMALL
NO_CHARGES


@<TRIPOS>ATOM
   1 C1             0.6233     0.5055     0.4139 C.2     
   2 C2             1.8008     1.4459     0.3994 C.3     
   3 C3             2.1177     1.8455    -1.0435 C.3     
   4 C4             3.3338     2.7744    -1.0620 C.3     
   5 C5             3.0131     4.0446    -0.2679 C.3     
   6 N6             2.5675     3.6607     1.0785 N.am    
   7 C7             1.4628     2.7010     1.2101 C.3     
   8 C8             3.1608     4.1790     2.1720 C.2     
   9 O9             2.7386     3.9071     3.2791 O.2     
  10 N10            0.6126    -0.7206     0.8741 N.2     
  11 C11           -0.6479    -1.1704     0.6801 C.2     
  12 N12           -1.3219    -0.2002     0.1189 N.2     
  13 O13           -0.6080     0.7682    -0.0353 O.3     
  14 C14           -1.1687    -2.5132     1.0370 C.ar    
  15 C15           -2.4885    -2.8278     0.7749 C.ar    
  16 C16           -2.9758    -4.0996     1.1147 C.ar    
  17 C17           -2.1060    -5.0409     1.7215 C.ar    
  18 C18           -0.7680    -4.6888     1.9748 C.ar    
  19 C19           -0.3147    -3.4551     1.6332 C.ar    
  20 C20            4.3241     5.0776     2.0253 C.ar    
  21 C21            4.2628     6.1666     1.1531 C.ar    
  22 C22            5.3511     7.0018     1.0200 C.ar    
  23 C23            6.5054     6.7624     1.7501 C.ar    
  24 C24            6.5718     5.6823     2.6171 C.ar    
  25 C25            5.4870     4.8444     2.7625 C.ar    
  26 F26            7.5693     7.5841     1.6159 F       
  27 C27           -4.3123    -4.4571     0.8645 C.ar    
  28 C28           -4.7529    -5.6987     1.2068 C.ar    
  29 C29           -3.8981    -6.6235     1.8029 C.ar    
  30 C30           -2.5978    -6.3124     2.0603 C.ar    
  31 H31            2.6670     0.9509     0.8385 H       
  32 H32            2.3346     0.9517    -1.6286 H       
  33 H33            1.2597     2.3618    -1.4741 H       
  34 H34            4.1858     2.2675    -0.6090 H       
  35 H35            3.5732     3.0399    -2.0918 H       
  36 H36            3.9065     4.6647    -0.1941 H       
  37 H37            2.2211     4.5996    -0.7706 H       
  38 H38            0.5443     3.1465     0.8280 H       
  39 H39            1.3332     2.4346     2.2591 H       
  40 H40           -3.1399    -2.1009     0.3125 H       
  41 H41           -0.1003    -5.4008     2.4370 H       
  42 H42            0.7139    -3.1918     1.8308 H       
  43 H43            3.3644     6.3537     0.5838 H       
  44 H44            5.3049     7.8441     0.3456 H       
  45 H45            7.4733     5.5002     3.1831 H       
  46 H46            5.5397     4.0036     3.4383 H       
  47 H47           -4.9860    -3.7501     0.4033 H       
  48 H48           -5.7801    -5.9707     1.0139 H       
  49 H49           -4.2727    -7.6020     2.0648 H       
  50 H50           -1.9474    -7.0399     2.5229 H       
@<TRIPOS>BOND
   1    1   10 2
   2    1    2 1
   3    1   13 1
   4    2    3 1
   5    2    7 1
   6    2   31 1
   7    3    4 1
   8    3   32 1
   9    3   33 1
  10    4    5 1
  11    4   34 1
  12    4   35 1
  13    5    6 1
  14    5   36 1
  15    5   37 1
  16    6    7 1
  17    6    8 am
  18    7   38 1
  19    7   39 1
  20    8    9 2
  21    8   20 1
  22   10   11 1
  23   11   12 2
  24   11   14 1
  25   12   13 1
  26   14   15 ar
  27   14   19 ar
  28   15   16 ar
  29   15   40 1
  30   16   17 ar
  31   16   27 ar
  32   17   18 ar
  33   17   30 ar
  34   18   19 ar
  35   18   41 1
  36   19   42 1
  37   20   21 ar
  38   20   25 ar
  39   21   22 ar
  40   21   43 1
  41   22   23 ar
  42   22   44 1
  43   23   24 ar
  44   23   26 1
  45   24   25 ar
  46   24   45 1
  47   25   46 1
  48   27   28 ar
  49   27   47 1
  50   28   29 ar
  51   28   48 1
  52   29   30 ar
  53   29   49 1
  54   30   50 1

#	End of record

