#	Name: ASD03540356
#	Creating user name:	WinNT
#	Creation time:	15. 06. 2019 20:43

#	Modifying user name:	WinNT
#	Modification time:	15. 06. 2019 20:43

#	Program:	/corina/corina34_cracker 3.40 0067  02.08.2006

@<TRIPOS>MOLECULE
ASD03540356
  55   58    0    0    0
SMALL
NO_CHARGES


@<TRIPOS>ATOM
   1 C1            -0.0162     1.3436     0.0094 C.2     
   2 N2             0.0021    -0.0041     0.0020 N.am    
   3 O3             1.0285     1.9658     0.0028 O.2     
   4 N4            -1.1924     2.0015     0.0186 N.am    
   5 C5            -1.2123     3.4663     0.0266 C.3     
   6 C6            -2.6398     3.9493     0.0360 C.ar    
   7 C7            -3.2879     4.1640     1.2372 C.ar    
   8 C8            -4.6018     4.6086     1.2452 C.ar    
   9 C9            -5.2619     4.8365     0.0462 C.ar    
  10 C10           -4.6096     4.6204    -1.1519 C.ar    
  11 C11           -3.2978     4.1826    -1.1572 C.ar    
  12 O12           -5.2417     4.8201     2.4253 O.3     
  13 C13           -6.5937     5.2778     2.3573 C.3     
  14 C14            5.4182    -3.0240    -0.0628 C.2     
  15 N15            4.9875    -1.7535    -0.0532 N.am    
  16 C16            3.6328    -1.4548    -0.0396 C.2     
  17 C17            2.7143    -2.4883    -0.0367 C.2     
  18 C18            3.2359    -3.8682    -0.0485 C.2     
  19 N19            4.5678    -4.0634    -0.0606 N.am    
  20 C20            1.3438    -2.0071    -0.0216 C.2     
  21 C21            1.2225    -0.6867    -0.0133 C.2     
  22 S22            2.7945     0.0904    -0.0235 S.3     
  23 O23            2.4728    -4.8169    -0.0470 O.2     
  24 O24            6.6147    -3.2410    -0.0798 O.2     
  25 C25            5.9650    -0.6623    -0.0558 C.3     
  26 C26            5.0971    -5.4294    -0.0715 C.3     
  27 C27            4.2690    -6.5549     2.0085 C.ar    
  28 C28            5.2905    -5.9044     1.3455 C.ar    
  29 C29            6.4980    -5.6929     1.9974 C.ar    
  30 C30            6.6344    -6.1452     3.2976 C.ar    
  31 C31            5.5634    -6.7928     3.9044 C.ar    
  32 N32            4.4275    -6.9759     3.2489 N.ar    
  33 N33            5.6867    -7.2524     5.2105 N.pl3   
  34 H34           -0.8313    -0.5005     0.0073 H       
  35 H35           -2.0258     1.5051     0.0198 H       
  36 H36           -0.6992     3.8318     0.9162 H       
  37 H37           -0.7077     3.8415    -0.8637 H       
  38 H38           -2.7721     3.9855     2.1691 H       
  39 H39           -6.2851     5.1823     0.0497 H       
  40 H40           -5.1230     4.7973    -2.0854 H       
  41 H41           -2.7879     4.0187    -2.0950 H       
  42 H42           -7.1989     4.5453     1.8232 H       
  43 H43           -6.9851     5.4060     3.3665 H       
  44 H44           -6.6284     6.2313     1.8304 H       
  45 H45            0.4923    -2.6713    -0.0177 H       
  46 H46            6.9728    -1.0773    -0.0659 H       
  47 H47            5.8176    -0.0445    -0.9416 H       
  48 H48            5.8319    -0.0531     0.8382 H       
  49 H49            4.3943    -6.0873    -0.5826 H       
  50 H50            6.0539    -5.4441    -0.5934 H       
  51 H51            3.3266    -6.7176     1.5067 H       
  52 H52            7.3125    -5.1869     1.5005 H       
  53 H53            7.5601    -5.9977     3.8342 H       
  54 H54            6.5170    -7.1209     5.6946 H       
  55 H55            4.9426    -7.7047     5.6379 H       
@<TRIPOS>BOND
   1    1    2 am
   2    1    3 2
   3    1    4 am
   4    2   21 1
   5    2   34 1
   6    4    5 1
   7    4   35 1
   8    5    6 1
   9    5   36 1
  10    5   37 1
  11    6    7 ar
  12    6   11 ar
  13    7    8 ar
  14    7   38 1
  15    8    9 ar
  16    8   12 1
  17    9   10 ar
  18    9   39 1
  19   10   11 ar
  20   10   40 1
  21   11   41 1
  22   12   13 1
  23   13   42 1
  24   13   43 1
  25   13   44 1
  26   14   15 am
  27   14   19 am
  28   14   24 2
  29   15   16 1
  30   15   25 1
  31   16   17 2
  32   16   22 1
  33   17   18 1
  34   17   20 1
  35   18   19 am
  36   18   23 2
  37   19   26 1
  38   20   21 2
  39   20   45 1
  40   21   22 1
  41   25   46 1
  42   25   47 1
  43   25   48 1
  44   26   28 1
  45   26   49 1
  46   26   50 1
  47   27   28 ar
  48   27   32 ar
  49   27   51 1
  50   28   29 ar
  51   29   30 ar
  52   29   52 1
  53   30   31 ar
  54   30   53 1
  55   31   32 ar
  56   31   33 1
  57   33   54 1
  58   33   55 1

#	End of record

