#	Name: ASD03091177
#	Creating user name:	WinNT
#	Creation time:	15. 06. 2019 20:30

#	Modifying user name:	WinNT
#	Modification time:	15. 06. 2019 20:30

#	Program:	/corina/corina34_cracker 3.40 0067  02.08.2006

@<TRIPOS>MOLECULE
ASD03091177
  65   69    0    0    0
SMALL
NO_CHARGES


@<TRIPOS>ATOM
   1 C1            -0.0321     1.4730     0.0303 C.2     
   2 C2            -0.0012    -0.0335     0.0074 C.3     
   3 O3             1.0055     2.1009     0.0328 O.2     
   4 N4            -1.2129     2.1227     0.0424 N.am    
   5 C5            -1.2430     3.5872     0.0647 C.3     
   6 C6            -1.1305     4.1214    -1.3646 C.3     
   7 C7            -2.5594     4.0609     0.6840 C.3     
   8 N8             3.3238    -1.0132     1.2265 N.2     
   9 C9             2.0816    -0.6094     1.1665 C.2     
  10 N10            1.3897    -0.4931    -0.0088 N.am    
  11 C11            1.9829    -0.8008    -1.1858 C.2     
  12 C12            3.3801    -1.2573    -1.1425 C.ar    
  13 C13            4.0774    -1.5969    -2.2995 C.ar    
  14 C14            5.3920    -2.0204    -2.2003 C.ar    
  15 C15            6.0139    -2.1069    -0.9546 C.ar    
  16 C16            5.3434    -1.7775     0.1880 C.ar    
  17 C17            4.0149    -1.3467     0.1175 C.ar    
  18 O18            1.3824    -0.7036    -2.2402 O.2     
  19 C19            1.3920    -0.2625     2.4272 C.ar    
  20 C20            0.1851    -0.8771     2.7549 C.ar    
  21 C21           -0.4581    -0.5446     3.9456 C.ar    
  22 C22            0.1105     0.4019     4.8023 C.ar    
  23 C23            1.3065     1.0067     4.4712 C.ar    
  24 C24            1.9516     0.6778     3.2953 C.ar    
  25 C25           -1.6990    -1.1708     4.2903 C.1     
  26 N26           -2.6833    -1.6676     4.5636 N.1     
  27 N27            7.0989    -2.0617    -6.1267 N.3     
  28 C28            5.9143    -2.8621    -5.7811 C.3     
  29 C29            5.2344    -2.3070    -4.5393 C.3     
  30 N30            6.1000    -2.3638    -3.3552 N.3     
  31 C31            7.2744    -1.4978    -3.5301 C.3     
  32 C32            8.4486    -2.2987    -4.0726 C.3     
  33 C33            8.3024    -2.6644    -5.5360 C.3     
  34 C34            7.0036    -0.6385    -5.8824 C.3     
  35 C35            6.8949    -0.3144    -4.4015 C.3     
  36 H36           -0.5015    -0.4207     0.8951 H       
  37 H37           -0.5134    -0.3939    -0.8847 H       
  38 H38           -2.0428     1.6206     0.0364 H       
  39 H39           -0.4078     3.9588     0.6582 H       
  40 H40           -1.1529     5.2111    -1.3481 H       
  41 H41           -0.1927     3.7839    -1.8059 H       
  42 H42           -1.9658     3.7498    -1.9582 H       
  43 H43           -2.6396     3.6803     1.7023 H       
  44 H44           -2.5818     5.1506     0.7006 H       
  45 H45           -3.3947     3.6893     0.0904 H       
  46 H46            3.5972    -1.5308    -3.2647 H       
  47 H47            7.0397    -2.4393    -0.8932 H       
  48 H48            5.8382    -1.8499     1.1452 H       
  49 H49           -0.2501    -1.6076     2.0890 H       
  50 H50           -0.3869     0.6609     5.7253 H       
  51 H51            1.7416     1.7374     5.1368 H       
  52 H52            2.8892     1.1515     3.0445 H       
  53 H53            5.2118    -2.8421    -6.6144 H       
  54 H54            6.2188    -3.8918    -5.5939 H       
  55 H55            4.9557    -1.2695    -4.7233 H       
  56 H56            4.3306    -2.8841    -4.3438 H       
  57 H57            7.5541    -1.1075    -2.5516 H       
  58 H58            9.3589    -1.7123    -3.9482 H       
  59 H59            8.5446    -3.2157    -3.4912 H       
  60 H60            8.2388    -3.7487    -5.6271 H       
  61 H61            9.1796    -2.3137    -6.0797 H       
  62 H62            7.8903    -0.1502    -6.2869 H       
  63 H63            6.1235    -0.2500    -6.3948 H       
  64 H64            5.8686    -0.0238    -4.1768 H       
  65 H65            7.5563     0.5210    -4.1721 H       
@<TRIPOS>BOND
   1    1    2 1
   2    1    3 2
   3    1    4 am
   4    2   10 1
   5    2   36 1
   6    2   37 1
   7    4    5 1
   8    4   38 1
   9    5    6 1
  10    5    7 1
  11    5   39 1
  12    6   40 1
  13    6   41 1
  14    6   42 1
  15    7   43 1
  16    7   44 1
  17    7   45 1
  18    8    9 2
  19    8   17 1
  20    9   10 1
  21    9   19 1
  22   10   11 am
  23   11   12 1
  24   11   18 2
  25   12   13 ar
  26   12   17 ar
  27   13   14 ar
  28   13   46 1
  29   14   15 ar
  30   14   30 1
  31   15   16 ar
  32   15   47 1
  33   16   17 ar
  34   16   48 1
  35   19   20 ar
  36   19   24 ar
  37   20   21 ar
  38   20   49 1
  39   21   22 ar
  40   21   25 1
  41   22   23 ar
  42   22   50 1
  43   23   24 ar
  44   23   51 1
  45   24   52 1
  46   25   26 3
  47   27   28 1
  48   27   33 1
  49   27   34 1
  50   28   29 1
  51   28   53 1
  52   28   54 1
  53   29   30 1
  54   29   55 1
  55   29   56 1
  56   30   31 1
  57   31   32 1
  58   31   35 1
  59   31   57 1
  60   32   33 1
  61   32   58 1
  62   32   59 1
  63   33   60 1
  64   33   61 1
  65   34   35 1
  66   34   62 1
  67   34   63 1
  68   35   64 1
  69   35   65 1

#	End of record

