#	Name: ASD02039304
#	Creating user name:	WinNT
#	Creation time:	15. 06. 2019 20:18

#	Modifying user name:	WinNT
#	Modification time:	15. 06. 2019 20:18

#	Program:	/corina/corina34_cracker 3.40 0067  02.08.2006

@<TRIPOS>MOLECULE
ASD02039304
  53   55    0    0    0
SMALL
NO_CHARGES


@<TRIPOS>ATOM
   1 C1            -0.2031     1.0591    -0.5282 C.ar    
   2 C2            -0.0141    -0.3047    -0.4030 C.ar    
   3 C3            -1.0570    -1.1674    -0.7104 C.ar    
   4 C4            -2.2583    -0.6268    -1.1346 C.ar    
   5 C5            -2.3788     0.7575    -1.2379 C.ar    
   6 N6            -1.3590     1.5479    -0.9295 N.ar    
   7 C7            -3.6599     1.3526    -1.6910 C.ar    
   8 C8             0.9262     1.9997    -0.1951 C.3     
   9 N9             1.6460     2.3521    -1.4214 N.am    
  10 C10            1.1495     3.4323    -2.2775 C.3     
  11 C11            2.7650     1.6825    -1.7621 C.2     
  12 C12            3.2080     0.5307    -0.9574 C.2     
  13 C13            4.2453    -0.3058    -1.2495 C.2     
  14 C14            2.2344     4.4999    -2.4323 C.3     
  15 N15            2.6620     0.1119     0.2128 N.2     
  16 C16            3.3152    -0.9332     0.6319 C.2     
  17 N17            4.3054    -1.2200    -0.2528 N.pl3   
  18 O18            3.4091     2.0293    -2.7337 O.2     
  19 C19            5.2655    -2.3216    -0.1477 C.3     
  20 C20            0.7892     2.8680    -3.6533 C.3     
  21 C21           -3.7895     2.7361    -1.7973 C.ar    
  22 C22           -4.7364     0.5300    -2.0175 C.ar    
  23 C23           -5.9257     1.0891    -2.4390 C.ar    
  24 C24           -6.0503     2.4632    -2.5381 C.ar    
  25 C25           -4.9835     3.2843    -2.2199 C.ar    
  26 F26           -8.4113     2.2353    -2.6248 F       
  27 F27           -7.5156     4.3261    -2.4113 F       
  28 C28           -7.3512     3.0676    -2.9999 C.3     
  29 C29           -7.3329     3.2153    -4.5226 C.3     
  30 H30            0.9360    -0.6951    -0.0696 H       
  31 H31           -0.9336    -2.2366    -0.6209 H       
  32 H32           -3.0906    -1.2689    -1.3823 H       
  33 H33            0.5235     2.9034     0.2623 H       
  34 H34            1.6102     1.5140     0.5009 H       
  35 H35            0.2638     3.8773    -1.8240 H       
  36 H36            4.8942    -0.2497    -2.1110 H       
  37 H37            3.1436     4.0405    -2.8201 H       
  38 H38            1.8916     5.2684    -3.1252 H       
  39 H39            2.4409     4.9515    -1.4620 H       
  40 H40            3.1057    -1.4818     1.5383 H       
  41 H41            4.8610    -3.2045    -0.6426 H       
  42 H42            6.2020    -2.0342    -0.6256 H       
  43 H43            5.4477    -2.5456     0.9034 H       
  44 H44           -0.0156     2.1404    -3.5482 H       
  45 H45            0.4631     3.6790    -4.3045 H       
  46 H46            1.6634     2.3827    -4.0872 H       
  47 H47           -2.9573     3.3781    -1.5491 H       
  48 H48           -4.6400    -0.5430    -1.9412 H       
  49 H49           -6.7606     0.4526    -2.6923 H       
  50 H50           -5.0863     4.3564    -2.2990 H       
  51 H51           -7.2048     2.2347    -4.9812 H       
  52 H52           -8.2738     3.6525    -4.8566 H       
  53 H53           -6.5069     3.8637    -4.8149 H       
@<TRIPOS>BOND
   1    1    2 ar
   2    1    8 1
   3    1    6 ar
   4    2    3 ar
   5    2   30 1
   6    3    4 ar
   7    3   31 1
   8    4    5 ar
   9    4   32 1
  10    5    6 ar
  11    5    7 1
  12    7   21 ar
  13    7   22 ar
  14    8    9 1
  15    8   33 1
  16    8   34 1
  17    9   10 1
  18    9   11 am
  19   10   20 1
  20   10   14 1
  21   10   35 1
  22   11   12 1
  23   11   18 2
  24   12   13 2
  25   12   15 1
  26   13   17 1
  27   13   36 1
  28   14   37 1
  29   14   38 1
  30   14   39 1
  31   15   16 2
  32   16   17 1
  33   16   40 1
  34   17   19 1
  35   19   41 1
  36   19   42 1
  37   19   43 1
  38   20   44 1
  39   20   45 1
  40   20   46 1
  41   21   25 ar
  42   21   47 1
  43   22   23 ar
  44   22   48 1
  45   23   24 ar
  46   23   49 1
  47   24   25 ar
  48   24   28 1
  49   25   50 1
  50   26   28 1
  51   27   28 1
  52   28   29 1
  53   29   51 1
  54   29   52 1
  55   29   53 1

#	End of record

