#	Name: ASD01410894
#	Creating user name:	WinNT
#	Creation time:	15. 06. 2019 19:18

#	Modifying user name:	WinNT
#	Modification time:	15. 06. 2019 19:18

#	Program:	/corina/corina34_cracker 3.40 0067  02.08.2006

@<TRIPOS>MOLECULE
ASD01410894
  68   71    0    0    0
SMALL
NO_CHARGES


@<TRIPOS>ATOM
   1 C1            -0.4332     1.7926     0.3346 C.ar    
   2 C2            -1.3051    -0.4327     0.5860 C.ar    
   3 C3            -2.5445    -0.0038     0.1317 C.ar    
   4 C4            -2.7320     1.3432    -0.2140 C.ar    
   5 C5            -1.6634     2.2373    -0.1144 C.ar    
   6 O6             0.6059     2.6634     0.4372 O.3     
   7 C7             0.5888     3.5582     1.4569 C.ar    
   8 N8            -3.6026    -0.9058     0.0302 N.am    
   9 C9            -4.4302    -1.0944     1.0771 C.2     
  10 C10           -5.6177    -2.0125     0.9430 C.3     
  11 O11           -4.2192    -0.5253     2.1271 O.2     
  12 C12           -6.2732    -2.2018     2.3125 C.3     
  13 C13           -7.8356    -2.3308    -0.1625 C.3     
  14 C14           -8.4910    -2.5201     1.2069 C.3     
  15 C15           -7.4789    -3.1338     2.1763 C.3     
  16 C16           -9.6967    -3.4522     1.0708 C.3     
  17 N17           -0.4562     3.6087     2.2668 N.ar    
  18 C18           -3.8150    -1.6487    -1.2145 C.3     
  19 C19            1.6709     4.4085     1.6441 C.ar    
  20 C20            1.6411     5.3165     2.6885 C.ar    
  21 C21            0.5244     5.3415     3.5122 C.ar    
  22 C22           -0.5133     4.4629     3.2704 C.ar    
  23 C23           -6.6299    -1.3987    -0.0264 C.3     
  24 C24           -0.2572     0.4597     0.6867 C.ar    
  25 C25           -2.7359    -2.6892    -1.3689 C.ar    
  26 C26           -1.7500    -2.5266    -2.3232 C.ar    
  27 C27           -2.7282    -3.8082    -0.5493 C.ar    
  28 C28           -1.7333    -4.7645    -0.6939 C.ar    
  29 C29           -0.7533    -4.6001    -1.6532 C.ar    
  30 C30           -0.7598    -3.4808    -2.4653 C.ar    
  31 O31           -3.6934    -3.9675     0.3942 O.3     
  32 C32           -3.5618    -5.0853     1.2746 C.3     
  33 C33            2.8618     4.3432     0.7229 C.3     
  34 F34            3.8097     5.2933     1.1179 F       
  35 F35            3.4287     3.0657     0.7835 F       
  36 F36            2.4524     4.6100    -0.5880 F       
  37 C37           -4.0444     1.8081    -0.6979 C.2     
  38 O38           -4.9674     1.0243    -0.7983 O.2     
  39 O39           -4.2205     3.1025    -1.0289 O.3     
  40 H40           -1.1580    -1.4689     0.8528 H       
  41 H41           -1.7976     3.2736    -0.3871 H       
  42 H42           -5.2886    -2.9788     0.5610 H       
  43 H43           -5.5521    -2.6390     3.0031 H       
  44 H44           -6.6023    -1.2354     2.6945 H       
  45 H45           -7.5065    -3.2971    -0.5445 H       
  46 H46           -8.5567    -1.8936    -0.8532 H       
  47 H47           -8.8202    -1.5538     1.5889 H       
  48 H48           -7.1497    -4.1002     1.7943 H       
  49 H49           -7.9458    -3.2687     3.1519 H       
  50 H50           -9.3676    -4.4185     0.6888 H       
  51 H51          -10.1637    -3.5870     2.0464 H       
  52 H52          -10.4178    -3.0149     0.3802 H       
  53 H53           -4.7890    -2.1370    -1.1845 H       
  54 H54           -3.7795    -0.9604    -2.0590 H       
  55 H55            2.4681     5.9899     2.8587 H       
  56 H56            0.4695     6.0375     4.3362 H       
  57 H57           -1.3847     4.4786     3.9083 H       
  58 H58           -6.9590    -0.4324     0.3556 H       
  59 H59           -6.1629    -1.2638    -1.0020 H       
  60 H60            0.7050     0.1204     1.0408 H       
  61 H61           -1.7532    -1.6535    -2.9588 H       
  62 H62           -1.7250    -5.6364    -0.0567 H       
  63 H63            0.0213    -5.3441    -1.7662 H       
  64 H64            0.0071    -3.3542    -3.2151 H       
  65 H65           -3.5147    -6.0043     0.6905 H       
  66 H66           -2.6490    -4.9804     1.8611 H       
  67 H67           -4.4213    -5.1238     1.9439 H       
  68 H68           -5.0986     3.3602    -1.3412 H       
@<TRIPOS>BOND
   1    1   24 ar
   2    1    6 1
   3    1    5 ar
   4    2    3 ar
   5    2   24 ar
   6    2   40 1
   7    3    4 ar
   8    3    8 1
   9    4    5 ar
  10    4   37 1
  11    5   41 1
  12    6    7 1
  13    7   19 ar
  14    7   17 ar
  15    8    9 am
  16    8   18 1
  17    9   11 2
  18    9   10 1
  19   10   12 1
  20   10   23 1
  21   10   42 1
  22   12   15 1
  23   12   43 1
  24   12   44 1
  25   13   14 1
  26   13   23 1
  27   13   45 1
  28   13   46 1
  29   14   15 1
  30   14   16 1
  31   14   47 1
  32   15   48 1
  33   15   49 1
  34   16   50 1
  35   16   51 1
  36   16   52 1
  37   17   22 ar
  38   18   25 1
  39   18   53 1
  40   18   54 1
  41   19   20 ar
  42   19   33 1
  43   20   21 ar
  44   20   55 1
  45   21   22 ar
  46   21   56 1
  47   22   57 1
  48   23   58 1
  49   23   59 1
  50   24   60 1
  51   25   26 ar
  52   25   27 ar
  53   26   30 ar
  54   26   61 1
  55   27   28 ar
  56   27   31 1
  57   28   29 ar
  58   28   62 1
  59   29   30 ar
  60   29   63 1
  61   30   64 1
  62   31   32 1
  63   32   65 1
  64   32   66 1
  65   32   67 1
  66   33   34 1
  67   33   35 1
  68   33   36 1
  69   37   38 2
  70   37   39 1
  71   39   68 1

#	End of record

