#	Name: ASD00070017
#	Creating user name:	WinNT
#	Creation time:	15. 06. 2019 18:29

#	Modifying user name:	WinNT
#	Modification time:	15. 06. 2019 18:29

#	Program:	/corina/corina34_cracker 3.40 0067  02.08.2006

@<TRIPOS>MOLECULE
ASD00070017
  62   65    0    0    0
SMALL
NO_CHARGES


@<TRIPOS>ATOM
   1 C1            -0.0184     1.5028     0.0103 C.2     
   2 C2             0.0021    -0.0041     0.0020 C.3     
   3 O3             1.0236     2.1234     0.0037 O.2     
   4 N4            -1.1946     2.1607     0.0195 N.am    
   5 O5             1.3556    -0.4620    -0.0134 O.3     
   6 C6            -1.2145     3.6256     0.0275 C.3     
   7 C7            -2.5315     4.1210    -0.5732 C.3     
   8 C8            -2.5522     5.6509    -0.5648 C.3     
   9 C9            -2.4266     6.1547     0.8744 C.3     
  10 C10           -1.1096     5.6592     1.4751 C.3     
  11 C11           -1.0888     4.1294     1.4667 C.3     
  12 C12           -2.4474     7.6846     0.8828 C.3     
  13 C13           -2.4475     8.1867     2.3281 C.3     
  14 N14           -2.4674     9.6555     2.3362 N.3     
  15 C15           -2.7062    10.1711     3.6902 C.3     
  16 C16           -2.8652    11.6923     3.6376 C.3     
  17 C17           -1.5944    12.3135     3.0515 C.3     
  18 C18           -1.3419    11.7238     1.6611 C.3     
  19 C19           -1.2270    10.2018     1.7711 C.3     
  20 O20           -0.1300    16.6738     4.2829 O.3     
  21 C21            0.9559    15.7746     4.5638 C.3     
  22 C22            0.2716    14.3876     4.5232 C.3     
  23 C23           -0.9151    14.6506     3.6164 C.ar    
  24 C24           -1.0650    16.0292     3.5322 C.ar    
  25 C25           -1.7681    13.8064     2.9414 C.ar    
  26 C26           -2.7847    14.3293     2.1614 C.ar    
  27 C27           -2.9392    15.6996     2.0636 C.ar    
  28 C28           -2.0875    16.5473     2.7417 C.ar    
  29 H29           -0.4983    -0.3791     0.8948 H       
  30 H30           -0.5153    -0.3696    -0.8850 H       
  31 H31           -2.0280     1.6644     0.0207 H       
  32 H32            1.4450    -1.4248    -0.0194 H       
  33 H33           -0.3805     4.0035    -0.5638 H       
  34 H34           -2.6210     3.7621    -1.5985 H       
  35 H35           -3.3655     3.7431     0.0182 H       
  36 H36           -1.7182     6.0288    -1.1561 H       
  37 H37           -3.4905     6.0039    -0.9927 H       
  38 H38           -3.2606     5.7768     1.4658 H       
  39 H39           -0.2756     6.0372     0.8838 H       
  40 H40           -1.0201     6.0182     2.5004 H       
  41 H41           -1.9228     3.7515     2.0581 H       
  42 H42           -0.1506     3.7764     1.8947 H       
  43 H43           -1.5649     8.0627     0.3669 H       
  44 H44           -3.3446     8.0386     0.3752 H       
  45 H45           -3.3300     7.8085     2.8441 H       
  46 H46           -1.5502     7.8327     2.8358 H       
  47 H47           -3.6149     9.7247     4.0939 H       
  48 H48           -1.8614     9.9163     4.3301 H       
  49 H49           -3.7183    11.9474     3.0089 H       
  50 H50           -3.0269    12.0764     4.6448 H       
  51 H51           -0.7475    12.0913     3.7007 H       
  52 H52           -2.1710    11.9795     1.0013 H       
  53 H53           -0.4152    12.1304     1.2562 H       
  54 H54           -0.3891     9.9467     2.4199 H       
  55 H55           -1.0614     9.7776     0.7807 H       
  56 H56            1.7262    15.8477     3.7961 H       
  57 H57            1.3736    15.9702     5.5513 H       
  58 H58            0.9345    13.6386     4.0899 H       
  59 H59           -0.0573    14.0862     5.5177 H       
  60 H60           -3.4548    13.6692     1.6307 H       
  61 H61           -3.7304    16.1088     1.4530 H       
  62 H62           -2.2153    17.6167     2.6601 H       
@<TRIPOS>BOND
   1    1    2 1
   2    1    3 2
   3    1    4 am
   4    2    5 1
   5    2   29 1
   6    2   30 1
   7    4    6 1
   8    4   31 1
   9    5   32 1
  10    6    7 1
  11    6   11 1
  12    6   33 1
  13    7    8 1
  14    7   34 1
  15    7   35 1
  16    8    9 1
  17    8   36 1
  18    8   37 1
  19    9   10 1
  20    9   12 1
  21    9   38 1
  22   10   11 1
  23   10   39 1
  24   10   40 1
  25   11   41 1
  26   11   42 1
  27   12   13 1
  28   12   43 1
  29   12   44 1
  30   13   14 1
  31   13   45 1
  32   13   46 1
  33   14   15 1
  34   14   19 1
  35   15   16 1
  36   15   47 1
  37   15   48 1
  38   16   17 1
  39   16   49 1
  40   16   50 1
  41   17   18 1
  42   17   25 1
  43   17   51 1
  44   18   19 1
  45   18   52 1
  46   18   53 1
  47   19   54 1
  48   19   55 1
  49   20   21 1
  50   20   24 1
  51   21   22 1
  52   21   56 1
  53   21   57 1
  54   22   23 1
  55   22   58 1
  56   22   59 1
  57   23   24 ar
  58   23   25 ar
  59   24   28 ar
  60   25   26 ar
  61   26   27 ar
  62   26   60 1
  63   27   28 ar
  64   27   61 1
  65   28   62 1

#	End of record

