#	Name: ASD01912077
#	Creating user name:	WinNT
#	Creation time:	15. 06. 2019 19:59

#	Modifying user name:	WinNT
#	Modification time:	15. 06. 2019 19:59

#	Program:	/corina/corina34_cracker 3.40 0067  02.08.2006

@<TRIPOS>MOLECULE
ASD01912077
  61   64    0    0    0
SMALL
NO_CHARGES


@<TRIPOS>ATOM
   1 N1            -0.1990     1.3900    -0.1291 N.am    
   2 C2            -0.0242    -0.0450     0.1360 C.3     
   3 C3            -0.9246    -0.4390     1.3134 C.3     
   4 N4            -2.2782     0.0750     1.0620 N.am    
   5 C5            -2.4530     1.5100     0.7969 C.3     
   6 C6            -1.5533     1.9050    -0.3750 C.3     
   7 C7            -1.5101     3.4294    -0.4980 C.3     
   8 C8            -2.0988     1.2972    -1.6688 C.3     
   9 C9             0.8630     2.2197    -0.1410 C.2     
  10 C10            2.2007     1.7136     0.2333 C.2     
  11 O11            0.7210     3.3842    -0.4596 O.2     
  12 N12            2.5216     0.4294     0.4757 N.2     
  13 C13            3.7956     0.3965     0.7734 C.2     
  14 N14            4.2608     1.6612     0.7146 N.pl3   
  15 N15            3.2883     2.4386     0.3828 N.2     
  16 C16            5.5800     2.0613     0.9666 C.ar    
  17 C17            5.9307     3.4018     0.8715 C.ar    
  18 C18            6.5374     1.1194     1.3173 C.ar    
  19 C19            7.8380     1.5174     1.5653 C.ar    
  20 C20            8.1849     2.8532     1.4644 C.ar    
  21 C21            7.2313     3.7937     1.1203 C.ar    
  22 Cl22           9.0366     0.3407     2.0040 Cl      
  23 C23           -3.3403    -0.7547     1.0739 C.2     
  24 C24           -4.7066    -0.2086     0.9298 C.ar    
  25 O25           -3.1747    -1.9519     1.2031 O.2     
  26 C26           -5.6866    -0.9407     0.2581 C.ar    
  27 C27           -6.9598    -0.4253     0.1271 C.ar    
  28 C28           -7.2658     0.8142     0.6598 C.ar    
  29 C29           -6.2985     1.5454     1.3267 C.ar    
  30 C30           -5.0235     1.0389     1.4701 C.ar    
  31 C31           -8.0193    -1.2141    -0.5984 C.3     
  32 C32           -9.1847    -1.4969     0.3517 C.3     
  33 C33           -8.5230    -0.4087    -1.7978 C.3     
  34 H34           -0.3062    -0.6173    -0.7478 H       
  35 H35            1.0169    -0.2462     0.3883 H       
  36 H36           -0.9563    -1.5250     1.4022 H       
  37 H37           -0.5337    -0.0055     2.2339 H       
  38 H38           -3.4942     1.7112     0.5446 H       
  39 H39           -2.1710     2.0823     1.6807 H       
  40 H40           -1.0092     3.8503     0.3738 H       
  41 H41           -0.9636     3.7058    -1.3997 H       
  42 H42           -2.5267     3.8182    -0.5559 H       
  43 H43           -3.1084     1.6673    -1.8467 H       
  44 H44           -1.4559     1.5801    -2.5023 H       
  45 H45           -2.1205     0.2111    -1.5790 H       
  46 H46            4.3702    -0.4837     1.0214 H       
  47 H47            5.1867     4.1371     0.6028 H       
  48 H48            6.2665     0.0769     1.3968 H       
  49 H49            9.2012     3.1623     1.6591 H       
  50 H50            7.5049     4.8355     1.0423 H       
  51 H51           -5.4489    -1.9083    -0.1586 H       
  52 H52           -8.2639     1.2131     0.5546 H       
  53 H53           -6.5437     2.5126     1.7400 H       
  54 H54           -4.2695     1.6106     1.9907 H       
  55 H55           -7.5965    -2.1569    -0.9455 H       
  56 H56           -9.6075    -0.5542     0.6988 H       
  57 H57           -9.9510    -2.0675    -0.1730 H       
  58 H58           -8.8258    -2.0707     1.2062 H       
  59 H59           -7.6928    -0.2072    -2.4747 H       
  60 H60           -9.2893    -0.9793    -2.3226 H       
  61 H61           -8.9459     0.5340    -1.4507 H       
@<TRIPOS>BOND
   1    1    2 1
   2    1    9 am
   3    1    6 1
   4    2    3 1
   5    2   34 1
   6    2   35 1
   7    3    4 1
   8    3   36 1
   9    3   37 1
  10    4    5 1
  11    4   23 am
  12    5    6 1
  13    5   38 1
  14    5   39 1
  15    6    7 1
  16    6    8 1
  17    7   40 1
  18    7   41 1
  19    7   42 1
  20    8   43 1
  21    8   44 1
  22    8   45 1
  23    9   10 1
  24    9   11 2
  25   10   12 1
  26   10   15 2
  27   12   13 2
  28   13   14 1
  29   13   46 1
  30   14   15 1
  31   14   16 1
  32   16   17 ar
  33   16   18 ar
  34   17   21 ar
  35   17   47 1
  36   18   19 ar
  37   18   48 1
  38   19   20 ar
  39   19   22 1
  40   20   21 ar
  41   20   49 1
  42   21   50 1
  43   23   24 1
  44   23   25 2
  45   24   26 ar
  46   24   30 ar
  47   26   27 ar
  48   26   51 1
  49   27   28 ar
  50   27   31 1
  51   28   29 ar
  52   28   52 1
  53   29   30 ar
  54   29   53 1
  55   30   54 1
  56   31   32 1
  57   31   33 1
  58   31   55 1
  59   32   56 1
  60   32   57 1
  61   32   58 1
  62   33   59 1
  63   33   60 1
  64   33   61 1

#	End of record

