#	Name: ASD01884334
#	Creating user name:	WinNT
#	Creation time:	15. 06. 2019 19:48

#	Modifying user name:	WinNT
#	Modification time:	15. 06. 2019 19:48

#	Program:	/corina/corina34_cracker 3.40 0067  02.08.2006

@<TRIPOS>MOLECULE
ASD01884334
  56   58    0    0    0
SMALL
NO_CHARGES


@<TRIPOS>ATOM
   1 C1            -0.1986    -0.5302     1.9403 C.2     
   2 C2             0.9041    -1.0593     1.2552 C.2     
   3 C3             1.7220    -1.9945     1.9101 C.2     
   4 C4             1.4398    -2.3691     3.1785 C.2     
   5 N5             0.3727    -1.8584     3.8443 N.am    
   6 C6            -0.4422    -0.9546     3.2690 C.2     
   7 O7            -1.3944    -0.5098     3.8873 O.2     
   8 C8             0.1064    -2.2948     5.2172 C.3     
   9 C9             0.8391    -1.3748     6.1959 C.3     
  10 C10           -1.0588     0.4258     1.3104 C.1     
  11 N11           -1.7412     1.1842     0.8107 N.1     
  12 O12            1.1751    -0.6767    -0.0132 O.3     
  13 N13            2.3524     0.1830    -0.1367 N.3     
  14 C14            3.1852     0.1125     1.0721 C.3     
  15 C15            4.4431     0.9611     0.8719 C.3     
  16 N16            4.0541     2.3487     0.5841 N.3     
  17 C17            3.2213     2.4192    -0.6247 C.3     
  18 C18            1.9634     1.5706    -0.4245 C.3     
  19 C19            0.5610    -1.8305     7.6298 C.3     
  20 C20            1.3911    -0.9901     8.6021 C.3     
  21 C21           -0.9260    -1.6519     7.9423 C.3     
  22 C22            5.2362     3.2119     0.4601 C.3     
  23 C23            4.8208     4.5591    -0.0724 C.ar    
  24 C24            4.4625     5.5676     0.8025 C.ar    
  25 C25            4.0814     6.8033     0.3140 C.ar    
  26 C26            4.0591     7.0307    -1.0493 C.ar    
  27 C27            4.4183     6.0225    -1.9242 C.ar    
  28 C28            4.8035     4.7881    -1.4355 C.ar    
  29 H29            2.5764    -2.4149     1.4005 H       
  30 H30            2.0759    -3.0893     3.6715 H       
  31 H31           -0.9654    -2.2514     5.4109 H       
  32 H32            0.4581    -3.3182     5.3479 H       
  33 H33            1.9109    -1.4182     6.0023 H       
  34 H34            0.4874    -0.3514     6.0653 H       
  35 H35            2.6220     0.4925     1.9244 H       
  36 H36            3.4707    -0.9231     1.2570 H       
  37 H37            5.0483     0.9335     1.7780 H       
  38 H38            5.0202     0.5645     0.0366 H       
  39 H39            2.9357     3.4548    -0.8096 H       
  40 H40            3.7845     2.0392    -1.4770 H       
  41 H41            1.3582     1.5982    -1.3306 H       
  42 H42            1.3863     1.9672     0.4108 H       
  43 H43            0.8309    -2.8813     7.7359 H       
  44 H44            1.1212     0.0607     8.4960 H       
  45 H45            1.1930    -1.3147     9.6236 H       
  46 H46            2.4505    -1.1174     8.3794 H       
  47 H47           -1.5174    -2.2506     7.2496 H       
  48 H48           -1.1242    -1.9765     8.9638 H       
  49 H49           -1.1959    -0.6011     7.8362 H       
  50 H50            5.7003     3.3353     1.4386 H       
  51 H51            5.9498     2.7546    -0.2253 H       
  52 H52            4.4799     5.3899     1.8676 H       
  53 H53            3.8008     7.5910     0.9975 H       
  54 H54            3.7607     7.9960    -1.4310 H       
  55 H55            4.4006     6.2001    -2.9893 H       
  56 H56            5.0842     4.0004    -2.1191 H       
@<TRIPOS>BOND
   1    1    2 2
   2    1   10 1
   3    1    6 1
   4    2    3 1
   5    2   12 1
   6    3    4 2
   7    3   29 1
   8    4    5 1
   9    4   30 1
  10    5    6 am
  11    5    8 1
  12    6    7 2
  13    8    9 1
  14    8   31 1
  15    8   32 1
  16    9   19 1
  17    9   33 1
  18    9   34 1
  19   10   11 3
  20   12   13 1
  21   13   14 1
  22   13   18 1
  23   14   15 1
  24   14   35 1
  25   14   36 1
  26   15   16 1
  27   15   37 1
  28   15   38 1
  29   16   17 1
  30   16   22 1
  31   17   18 1
  32   17   39 1
  33   17   40 1
  34   18   41 1
  35   18   42 1
  36   19   20 1
  37   19   21 1
  38   19   43 1
  39   20   44 1
  40   20   45 1
  41   20   46 1
  42   21   47 1
  43   21   48 1
  44   21   49 1
  45   22   23 1
  46   22   50 1
  47   22   51 1
  48   23   24 ar
  49   23   28 ar
  50   24   25 ar
  51   24   52 1
  52   25   26 ar
  53   25   53 1
  54   26   27 ar
  55   26   54 1
  56   27   28 ar
  57   27   55 1
  58   28   56 1

#	End of record

