#	Name: ASD02560186
#	Creating user name:	WinNT
#	Creation time:	15. 06. 2019 20:24

#	Modifying user name:	WinNT
#	Modification time:	15. 06. 2019 20:24

#	Program:	/corina/corina34_cracker 3.40 0067  02.08.2006

@<TRIPOS>MOLECULE
ASD02560186
  59   63    0    0    0
SMALL
NO_CHARGES


@<TRIPOS>ATOM
   1 Br1            1.8253     2.4576    -1.5462 Br      
   2 N2             0.0960     1.3318     0.3968 N.2     
   3 N3            -0.1349     0.1302     0.2297 N.2     
   4 C4             1.5220     1.6296     0.2110 C.3     
   5 N5             2.1970     0.3092     0.2838 N.3     
   6 C6             1.0924    -0.6059    -0.0999 C.3     
   7 S7             1.1838    -2.1431     0.8588 S.3     
   8 C8             1.0328    -1.5654     2.5717 C.3     
   9 C9             1.0917    -2.7456     3.5070 C.2     
  10 O10            1.2226    -3.8662     3.0618 O.2     
  11 N11            0.9989    -2.5558     4.8381 N.am    
  12 C12            3.2471     0.2342    -0.6287 C.ar    
  13 C13            0.9926    -3.6563     5.7032 C.ar    
  14 C14            0.3127    -3.5869     6.9135 C.ar    
  15 C15            0.3083    -4.6755     7.7647 C.ar    
  16 C16            0.9795    -5.8325     7.4130 C.ar    
  17 C17            1.6565    -5.9041     6.2097 C.ar    
  18 C18            1.6605    -4.8212     5.3516 C.ar    
  19 Cl19          -0.5293    -2.1346     7.3555 Cl      
  20 S20            0.9721    -7.2183     8.5012 S.o2    
  21 O21            2.1234    -7.9869     8.1800 O.2     
  22 O22            0.7179    -6.7057     9.8019 O.2     
  23 C23            4.3280     1.1382    -0.5463 C.ar    
  24 C24            3.2428    -0.7272    -1.6170 C.ar    
  25 C25            4.2867    -0.8105    -2.5331 C.ar    
  26 C26            5.3392     0.0519    -2.4800 C.ar    
  27 C27            5.3848     1.0432    -1.4851 C.ar    
  28 N28           -0.3379    -8.1489     8.1010 N.am    
  29 C29            6.4573    -0.0603    -3.4842 C.3     
  30 C30            4.3752     2.1287     0.4469 C.ar    
  31 C31            7.1781    -1.4184    -3.4543 C.3     
  32 C32            7.2169    -1.3429    -4.9898 C.3     
  33 C33            5.9805    -0.4331    -4.8979 C.3     
  34 C34            6.4584     1.9472    -1.4066 C.ar    
  35 C35            6.4705     2.8954    -0.4304 C.ar    
  36 C36            5.4333     2.9842     0.4960 C.ar    
  37 H37            1.8800     2.2833     1.0064 H       
  38 H38            1.1311    -0.8207    -1.1678 H       
  39 H39            1.8508    -0.8814     2.7979 H       
  40 H40            0.0815    -1.0486     2.6984 H       
  41 H41            0.9364    -1.6567     5.1967 H       
  42 H42           -0.2193    -4.6227     8.7055 H       
  43 H43            2.1798    -6.8091     5.9384 H       
  44 H44            2.1897    -4.8783     4.4119 H       
  45 H45            2.4199    -1.4239    -1.6804 H       
  46 H46            4.2620    -1.5718    -3.2987 H       
  47 H47           -0.9239    -7.8761     7.3778 H       
  48 H48           -0.5193    -8.9668     8.5899 H       
  49 H49            7.1341     0.7938    -3.4613 H       
  50 H50            3.5759     2.2122     1.1685 H       
  51 H51            8.1636    -1.3795    -2.9902 H       
  52 H52            6.5611    -2.2318    -3.0726 H       
  53 H53            8.1014    -0.8394    -5.3800 H       
  54 H54            7.0215    -2.2971    -5.4790 H       
  55 H55            5.0361    -0.9772    -4.9108 H       
  56 H56            5.9991     0.4012    -5.5991 H       
  57 H57            7.2697     1.8894    -2.1172 H       
  58 H58            7.2965     3.5888    -0.3723 H       
  59 H59            5.4666     3.7461     1.2607 H       
@<TRIPOS>BOND
   1    1    4 1
   2    2    3 2
   3    2    4 1
   4    3    6 1
   5    4    5 1
   6    4   37 1
   7    5    6 1
   8    5   12 1
   9    6    7 1
  10    6   38 1
  11    7    8 1
  12    8    9 1
  13    8   39 1
  14    8   40 1
  15    9   10 2
  16    9   11 am
  17   11   13 1
  18   11   41 1
  19   12   23 ar
  20   12   24 ar
  21   13   14 ar
  22   13   18 ar
  23   14   15 ar
  24   14   19 1
  25   15   16 ar
  26   15   42 1
  27   16   17 ar
  28   16   20 1
  29   17   18 ar
  30   17   43 1
  31   18   44 1
  32   20   21 2
  33   20   22 2
  34   20   28 am
  35   23   27 ar
  36   23   30 ar
  37   24   25 ar
  38   24   45 1
  39   25   26 ar
  40   25   46 1
  41   26   27 ar
  42   26   29 1
  43   27   34 ar
  44   28   47 1
  45   28   48 1
  46   29   31 1
  47   29   33 1
  48   29   49 1
  49   30   36 ar
  50   30   50 1
  51   31   32 1
  52   31   51 1
  53   31   52 1
  54   32   33 1
  55   32   53 1
  56   32   54 1
  57   33   55 1
  58   33   56 1
  59   34   35 ar
  60   34   57 1
  61   35   36 ar
  62   35   58 1
  63   36   59 1

#	End of record

