#	Name: ASD00122010
#	Creating user name:	WinNT
#	Creation time:	15. 06. 2019 18:31

#	Modifying user name:	WinNT
#	Modification time:	15. 06. 2019 18:31

#	Program:	/corina/corina34_cracker 3.40 0067  02.08.2006

@<TRIPOS>MOLECULE
ASD00122010
  47   47    0    0    0
SMALL
NO_CHARGES


@<TRIPOS>ATOM
   1 C1            -0.0168     1.3898     0.0097 C.ar    
   2 C2             0.0021    -0.0041     0.0020 C.ar    
   3 C3            -1.1889    -0.7175     0.0096 C.ar    
   4 C4            -2.3948    -0.0510     0.0252 C.ar    
   5 C5            -2.4210     1.3457     0.0329 C.ar    
   6 C6            -1.2224     2.0640     0.0306 C.ar    
   7 C7            -3.7119     2.0612     0.0491 C.2     
   8 N8            -4.8671     1.3670     0.0564 N.am    
   9 O9            -3.7332     3.2769     0.0558 O.2     
  10 C10           -6.1484     2.0771     0.0724 C.3     
  11 C11           -7.2340     1.1841    -0.5317 C.3     
  12 C12           -6.5198     2.4266     1.5149 C.3     
  13 C13           -5.5001     3.4186     2.0780 C.3     
  14 C14           -6.9268     0.9368    -2.0100 C.3     
  15 O15            1.1516     2.0858     0.0023 O.3     
  16 C16            1.0574     3.5117     0.0108 C.3     
  17 O17            0.6905     3.9570     1.3182 O.3     
  18 O18            1.1880    -0.6655    -0.0133 O.3     
  19 C19            1.1344    -2.0935    -0.0205 C.3     
  20 O20            0.7551    -2.5494    -1.3206 O.3     
  21 C21            1.7526     3.8963     2.2722 C.3     
  22 C22            1.7964    -2.4588    -2.2950 C.3     
  23 H23           -1.1702    -1.7973     0.0029 H       
  24 H24           -3.3198    -0.6085     0.0310 H       
  25 H25           -1.2385     3.1438     0.0365 H       
  26 H26           -4.8501     0.3971     0.0510 H       
  27 H27           -6.0637     2.9927    -0.5130 H       
  28 H28           -7.2581     0.2321    -0.0014 H       
  29 H29           -8.2022     1.6761    -0.4392 H       
  30 H30           -7.5130     2.8751     1.5359 H       
  31 H31           -6.5176     1.5202     2.1204 H       
  32 H32           -5.7647     3.6675     3.1057 H       
  33 H33           -4.5069     2.9700     2.0570 H       
  34 H34           -5.5023     4.3249     1.4725 H       
  35 H35           -5.9585     0.4449    -2.1025 H       
  36 H36           -7.7002     0.3007    -2.4404 H       
  37 H37           -6.9027     1.8889    -2.5403 H       
  38 H38            2.0213     3.9411    -0.2621 H       
  39 H39            0.3014     3.8302    -0.7070 H       
  40 H40            2.1153    -2.4952     0.2336 H       
  41 H41            0.4018    -2.4332     0.7117 H       
  42 H42            1.3938     4.2509     3.2385 H       
  43 H43            2.0966     2.8665     2.3680 H       
  44 H44            2.5776     4.5254     1.9379 H       
  45 H45            2.1090    -1.4196    -2.3971 H       
  46 H46            2.6453    -3.0640    -1.9769 H       
  47 H47            1.4292    -2.8237    -3.2542 H       
@<TRIPOS>BOND
   1    1    2 ar
   2    1   15 1
   3    1    6 ar
   4    2    3 ar
   5    2   18 1
   6    3    4 ar
   7    3   23 1
   8    4    5 ar
   9    4   24 1
  10    5    6 ar
  11    5    7 1
  12    6   25 1
  13    7    8 am
  14    7    9 2
  15    8   10 1
  16    8   26 1
  17   10   11 1
  18   10   12 1
  19   10   27 1
  20   11   14 1
  21   11   28 1
  22   11   29 1
  23   12   13 1
  24   12   30 1
  25   12   31 1
  26   13   32 1
  27   13   33 1
  28   13   34 1
  29   14   35 1
  30   14   36 1
  31   14   37 1
  32   15   16 1
  33   16   17 1
  34   16   38 1
  35   16   39 1
  36   17   21 1
  37   18   19 1
  38   19   20 1
  39   19   40 1
  40   19   41 1
  41   20   22 1
  42   21   42 1
  43   21   43 1
  44   21   44 1
  45   22   45 1
  46   22   46 1
  47   22   47 1

#	End of record

