#	Name: ASD01028090
#	Creating user name:	WinNT
#	Creation time:	15. 06. 2019 18:56

#	Modifying user name:	WinNT
#	Modification time:	15. 06. 2019 18:56

#	Program:	/corina/corina34_cracker 3.40 0067  02.08.2006

@<TRIPOS>MOLECULE
ASD01028090
  77   81    0    0    0
SMALL
NO_CHARGES


@<TRIPOS>ATOM
   1 C1            -0.9804     2.3510     0.4681 C.3     
   2 C2            -0.7970     0.8378     0.3365 C.3     
   3 C3            -2.1096     0.1315     0.6818 C.3     
   4 C4             1.1492     2.7233     1.7254 C.3     
   5 C5             0.3817     3.0466     0.4467 C.3     
   6 N6             1.4370     3.9800     2.4675 N.3     
   7 N7            -0.4448     2.1993     4.8901 N.pl3   
   8 C8             0.1867     3.2812     5.5342 C.ar    
   9 C9             0.5227     4.3707     4.7314 C.ar    
  10 C10            0.2371     4.3347     3.2566 C.3     
  11 C11            0.5098     3.2849     6.8803 C.ar    
  12 C12            1.0907     4.4170     7.4445 C.ar    
  13 C13            1.3688     5.5223     6.6517 C.ar    
  14 C14            1.0915     5.4932     5.2996 C.ar    
  15 O15           -1.8447    -1.0513     1.4403 O.3     
  16 C16           -2.0579    -0.9796     2.7815 C.ar    
  17 C17           -1.5064     0.0642     3.4743 C.ar    
  18 C18           -1.7130     0.1688     4.8534 C.ar    
  19 C19           -1.1709     1.2505     5.6041 C.ar    
  20 N20           -1.4060     1.2861     6.8965 N.ar    
  21 O21            0.3950     2.3313     7.8480 O.3     
  22 C22            0.7574     2.9284     9.0951 C.3     
  23 O23            1.2949     4.2132     8.7752 O.3     
  24 C24           -2.8214    -1.9497     3.4438 C.ar    
  25 C25           -3.0300    -1.8702     4.8049 C.ar    
  26 C26           -2.4788    -0.8074     5.5323 C.ar    
  27 N27           -2.6499    -0.6743     6.8572 N.ar    
  28 C28           -2.1244     0.3450     7.4967 C.ar    
  29 O29           -3.3621    -2.9777     2.7395 O.3     
  30 C30           -4.1300    -3.9338     3.4733 C.3     
  31 C31            2.5561     3.6736     3.3986 C.3     
  32 C32           -4.6535    -5.0085     2.5183 C.3     
  33 C33           -5.4756    -6.0321     3.3039 C.3     
  34 O34           -6.6410    -5.3994     3.8365 O.3     
  35 C35           -7.4167    -6.2380     4.6950 C.3     
  36 C36           -8.5377    -5.4160     5.3341 C.3     
  37 O37           -5.8668    -7.0969     2.4349 O.3     
  38 C38           -6.0758    -8.3438     3.1009 C.3     
  39 C39           -6.3630    -9.4331     2.0656 C.3     
  40 H40           -1.5849     2.7155    -0.3630 H       
  41 H41           -1.4866     2.5747     1.4072 H       
  42 H42           -0.5104     0.5931    -0.6859 H       
  43 H43           -0.0161     0.5043     1.0204 H       
  44 H44           -2.7393     0.8029     1.2657 H       
  45 H45           -2.6278    -0.1377    -0.2391 H       
  46 H46            0.5660     2.0661     2.3595 H       
  47 H47            2.0998     2.2535     1.4743 H       
  48 H48            0.9507     2.6958    -0.4162 H       
  49 H49            0.2378     4.1242     0.3671 H       
  50 H50           -0.3653     2.1107     3.9240 H       
  51 H51           -0.0940     5.3274     2.9343 H       
  52 H52           -0.5535     3.6217     3.0402 H       
  53 H53            1.8024     6.4069     7.0953 H       
  54 H54            1.3176     6.3509     4.6820 H       
  55 H55           -0.9140     0.7960     2.9472 H       
  56 H56           -0.1229     3.0370     9.7283 H       
  57 H57            1.5094     2.3212     9.5977 H       
  58 H58           -3.6160    -2.6252     5.3093 H       
  59 H59           -2.2843     0.4205     8.5621 H       
  60 H60           -3.5017    -4.3981     4.2334 H       
  61 H61           -4.9709    -3.4332     3.9531 H       
  62 H62            3.4262     3.3507     2.8270 H       
  63 H63            2.8079     4.5669     3.9702 H       
  64 H64            2.2540     2.8789     4.0806 H       
  65 H65           -5.2818    -4.5442     1.7582 H       
  66 H66           -3.8126    -5.5091     2.0385 H       
  67 H67           -4.8740    -6.4318     4.1203 H       
  68 H68           -7.8493    -7.0522     4.1136 H       
  69 H69           -6.7771    -6.6492     5.4760 H       
  70 H70           -9.1294    -6.0557     5.9889 H       
  71 H71           -8.1051    -4.6018     5.9155 H       
  72 H72           -9.1773    -5.0048     4.5531 H       
  73 H73           -5.1826    -8.6073     3.6673 H       
  74 H74           -6.9237    -8.2553     3.7800 H       
  75 H75           -7.2563    -9.1696     1.4992 H       
  76 H76           -5.5151    -9.5216     1.3865 H       
  77 H77           -6.5224   -10.3842     2.5737 H       
@<TRIPOS>BOND
   1    1    2 1
   2    1    5 1
   3    1   40 1
   4    1   41 1
   5    2    3 1
   6    2   42 1
   7    2   43 1
   8    3   15 1
   9    3   44 1
  10    3   45 1
  11    4    5 1
  12    4    6 1
  13    4   46 1
  14    4   47 1
  15    5   48 1
  16    5   49 1
  17    6   31 1
  18    6   10 1
  19    7    8 1
  20    7   19 1
  21    7   50 1
  22    8    9 ar
  23    8   11 ar
  24    9   10 1
  25    9   14 ar
  26   10   51 1
  27   10   52 1
  28   11   12 ar
  29   11   21 1
  30   12   13 ar
  31   12   23 1
  32   13   14 ar
  33   13   53 1
  34   14   54 1
  35   15   16 1
  36   16   17 ar
  37   16   24 ar
  38   17   18 ar
  39   17   55 1
  40   18   19 ar
  41   18   26 ar
  42   19   20 ar
  43   20   28 ar
  44   21   22 1
  45   22   23 1
  46   22   56 1
  47   22   57 1
  48   24   25 ar
  49   24   29 1
  50   25   26 ar
  51   25   58 1
  52   26   27 ar
  53   27   28 ar
  54   28   59 1
  55   29   30 1
  56   30   32 1
  57   30   60 1
  58   30   61 1
  59   31   62 1
  60   31   63 1
  61   31   64 1
  62   32   33 1
  63   32   65 1
  64   32   66 1
  65   33   34 1
  66   33   37 1
  67   33   67 1
  68   34   35 1
  69   35   36 1
  70   35   68 1
  71   35   69 1
  72   36   70 1
  73   36   71 1
  74   36   72 1
  75   37   38 1
  76   38   39 1
  77   38   73 1
  78   38   74 1
  79   39   75 1
  80   39   76 1
  81   39   77 1

#	End of record

