#	Name: ASD01914161
#	Creating user name:	WinNT
#	Creation time:	15. 06. 2019 20:02

#	Modifying user name:	WinNT
#	Modification time:	15. 06. 2019 20:02

#	Program:	/corina/corina34_cracker 3.40 0067  02.08.2006

@<TRIPOS>MOLECULE
ASD01914161
  49   52    0    0    0
SMALL
NO_CHARGES


@<TRIPOS>ATOM
   1 C1             1.9183     0.6782     0.5999 C.2     
   2 C2             1.5988    -0.7544     0.5549 C.2     
   3 N3             0.4011    -1.2940     0.3807 N.2     
   4 C4             0.5973    -2.6203     0.4109 C.2     
   5 N5             1.8679    -2.8279     0.5965 N.2     
   6 O6             2.4646    -1.7750     0.6764 O.3     
   7 C7            -0.4635    -3.6796     0.2573 C.3     
   8 C8            -0.1410    -4.5532    -0.9572 C.3     
   9 C9            -1.2350    -5.6087    -1.1335 C.3     
  10 C10           -1.2793    -6.5047     0.1084 C.3     
  11 N11           -1.4443    -5.6573     1.2972 N.am    
  12 C12           -0.4990    -4.5537     1.5149 C.3     
  13 C13           -2.4438    -5.8878     2.1715 C.2     
  14 C14           -2.5249    -5.1089     3.4205 C.ar    
  15 O15           -3.2786    -6.7384     1.9300 O.2     
  16 C16            3.1685     1.2277     0.7817 C.2     
  17 C17            3.0147     2.6199     0.7577 C.2     
  18 C18            1.7019     2.8886     0.5658 C.2     
  19 N19            1.0249     1.7142     0.4623 N.pl3   
  20 Cl20           4.2821     3.7919     0.9418 Cl      
  21 C21           -1.4758    -4.2285     5.3938 C.ar    
  22 C22           -3.8043    -3.7911     4.9825 C.ar    
  23 C23           -3.7383    -4.5213     3.8070 C.ar    
  24 C24           -1.3947    -4.9572     4.2281 C.ar    
  25 C25            0.0269    -7.2939     0.2183 C.3     
  26 C26           -2.6766    -3.6433     5.7710 C.ar    
  27 F27           -2.7463    -2.9307     6.9166 F       
  28 O28           -4.8427    -4.6669     3.0328 O.3     
  29 C29           -6.0427    -4.0399     3.4898 C.3     
  30 H30           -1.4343    -3.2046     0.1163 H       
  31 H31           -0.0908    -3.9297    -1.8499 H       
  32 H32            0.8188    -5.0468    -0.8049 H       
  33 H33           -2.1988    -5.1160    -1.2611 H       
  34 H34           -1.0168    -6.2156    -2.0123 H       
  35 H35           -2.1199    -7.1943     0.0316 H       
  36 H36            0.4951    -4.9568     1.7079 H       
  37 H37           -0.8249    -3.9560     2.3662 H       
  38 H38            4.0933     0.6867     0.9177 H       
  39 H39            1.2648     3.8740     0.5010 H       
  40 H40            0.0696     1.6224     0.3214 H       
  41 H41           -0.6006    -4.1085     6.0150 H       
  42 H42           -4.7367    -3.3370     5.2839 H       
  43 H43           -0.4585    -5.4112     3.9385 H       
  44 H44            0.8642    -6.6009     0.3012 H       
  45 H45           -0.0067    -7.9306     1.1024 H       
  46 H46            0.1536    -7.9123    -0.6703 H       
  47 H47           -6.8470    -4.2340     2.7803 H       
  48 H48           -6.3140    -4.4426     4.4657 H       
  49 H49           -5.8823    -2.9649     3.5722 H       
@<TRIPOS>BOND
   1    1    2 1
   2    1   16 2
   3    1   19 1
   4    2    3 2
   5    2    6 1
   6    3    4 1
   7    4    5 2
   8    4    7 1
   9    5    6 1
  10    7    8 1
  11    7   12 1
  12    7   30 1
  13    8    9 1
  14    8   31 1
  15    8   32 1
  16    9   10 1
  17    9   33 1
  18    9   34 1
  19   10   11 1
  20   10   25 1
  21   10   35 1
  22   11   12 1
  23   11   13 am
  24   12   36 1
  25   12   37 1
  26   13   14 1
  27   13   15 2
  28   14   24 ar
  29   14   23 ar
  30   16   17 1
  31   16   38 1
  32   17   18 2
  33   17   20 1
  34   18   19 1
  35   18   39 1
  36   19   40 1
  37   21   26 ar
  38   21   24 ar
  39   21   41 1
  40   22   23 ar
  41   22   26 ar
  42   22   42 1
  43   23   28 1
  44   24   43 1
  45   25   44 1
  46   25   45 1
  47   25   46 1
  48   26   27 1
  49   28   29 1
  50   29   47 1
  51   29   48 1
  52   29   49 1

#	End of record

