#	Name: ASD01209240
#	Creating user name:	WinNT
#	Creation time:	15. 06. 2019 19:11

#	Modifying user name:	WinNT
#	Modification time:	15. 06. 2019 19:11

#	Program:	/corina/corina34_cracker 3.40 0067  02.08.2006

@<TRIPOS>MOLECULE
ASD01209240
  56   58    0    0    0
SMALL
NO_CHARGES


@<TRIPOS>ATOM
   1 O1            -0.0173     1.4248     0.0099 O.3     
   2 O2             2.1367     2.0777     1.3686 O.3     
   3 C3             8.5173     9.3184     2.7636 C.ar    
   4 C4             8.1936     9.1820     4.1071 C.ar    
   5 C5             7.0709     8.4603     4.4839 C.ar    
   6 C6             6.2668     7.8728     3.5208 C.ar    
   7 C7             6.5878     8.0071     2.1696 C.ar    
   8 C8             7.7154     8.7379     1.7936 C.ar    
   9 O9             6.7591     8.3290     5.8003 O.3     
  10 C10            5.7328     7.3810     1.1390 C.2     
  11 N11            4.6415     6.6794     1.5040 N.am    
  12 O12            6.0140     7.4990    -0.0378 O.2     
  13 C13            3.8381     6.0912     0.5356 C.2     
  14 P14            1.3209     2.3199     0.0019 P.3     
  15 O15            2.1650     1.9351    -1.1513 O.2     
  16 C16            0.8726     4.0817    -0.1342 C.3     
  17 N17            2.7699     5.3977     0.7779 N.2     
  18 S18            4.1100     6.1823    -1.1499 S.3     
  19 C19            2.6729     5.2070    -1.4451 C.2     
  20 C20            2.1248     4.9100    -0.2652 C.2     
  21 O21            9.6173    10.0258     2.3996 O.3     
  22 N22           10.7974     9.2487     2.3077 N.am    
  23 C23           11.2732     8.5555     1.1008 C.3     
  24 C24            7.6315     8.9603     6.7397 C.3     
  25 C25            0.0021    -0.0041     0.0020 C.3     
  26 C26           -1.4333    -0.5336     0.0129 C.3     
  27 C27            2.7182     0.8193     1.7153 C.3     
  28 C28            3.4161     0.9364     3.0718 C.3     
  29 C29           11.6658     9.0298     3.3046 C.2     
  30 O30           12.7037     8.2583     2.9582 O.3     
  31 C31           12.5791     7.8770     1.5575 C.3     
  32 O32           11.5240     9.4895     4.4212 O.2     
  33 H33            8.8181     9.6389     4.8605 H       
  34 H34            5.3930     7.3108     3.8156 H       
  35 H35            7.9674     8.8443     0.7488 H       
  36 H36            4.4171     6.5853     2.4429 H       
  37 H37            0.2452     4.2302    -1.0130 H       
  38 H38            0.3264     4.3876     0.7581 H       
  39 H39            2.2984     4.9058    -2.4123 H       
  40 H40           10.5474     7.8098     0.7765 H       
  41 H41           11.4722     9.2702     0.3022 H       
  42 H42            7.2690     8.7781     7.7514 H       
  43 H43            8.6362     8.5508     6.6345 H       
  44 H44            7.6547    10.0333     6.5498 H       
  45 H45            0.5123    -0.3556    -0.8948 H       
  46 H46            0.5293    -0.3651     0.8851 H       
  47 H47           -1.9435    -0.1821     0.9097 H       
  48 H48           -1.9605    -0.1726    -0.8702 H       
  49 H49           -1.4185    -1.6235     0.0069 H       
  50 H50            1.9368     0.0615     1.7729 H       
  51 H51            3.4459     0.5337     0.9558 H       
  52 H52            2.6884     1.2219     3.8314 H       
  53 H53            3.8596    -0.0235     3.3363 H       
  54 H54            4.1975     1.6941     3.0142 H       
  55 H55           12.5013     6.7940     1.4618 H       
  56 H56           13.4255     8.2526     0.9825 H       
@<TRIPOS>BOND
   1    1   25 1
   2    1   14 1
   3    2   27 1
   4    2   14 1
   5    3    4 ar
   6    3   21 1
   7    3    8 ar
   8    4    5 ar
   9    4   33 1
  10    5    6 ar
  11    5    9 1
  12    6    7 ar
  13    6   34 1
  14    7    8 ar
  15    7   10 1
  16    8   35 1
  17    9   24 1
  18   10   11 am
  19   10   12 2
  20   11   13 1
  21   11   36 1
  22   13   17 2
  23   13   18 1
  24   14   15 2
  25   14   16 1
  26   16   20 1
  27   16   37 1
  28   16   38 1
  29   17   20 1
  30   18   19 1
  31   19   20 2
  32   19   39 1
  33   21   22 1
  34   22   23 1
  35   22   29 am
  36   23   31 1
  37   23   40 1
  38   23   41 1
  39   24   42 1
  40   24   43 1
  41   24   44 1
  42   25   26 1
  43   25   45 1
  44   25   46 1
  45   26   47 1
  46   26   48 1
  47   26   49 1
  48   27   28 1
  49   27   50 1
  50   27   51 1
  51   28   52 1
  52   28   53 1
  53   28   54 1
  54   29   30 1
  55   29   32 2
  56   30   31 1
  57   31   55 1
  58   31   56 1

#	End of record

