#	Name: ASD01917588
#	Creating user name:	WinNT
#	Creation time:	15. 06. 2019 20:09

#	Modifying user name:	WinNT
#	Modification time:	15. 06. 2019 20:09

#	Program:	/corina/corina34_cracker 3.40 0067  02.08.2006

@<TRIPOS>MOLECULE
ASD01917588
  14   15    0    0    0
SMALL
NO_CHARGES


@<TRIPOS>ATOM
   1 C1            -0.0170     1.4035     0.0098 C.2     
   2 C2             0.0021    -0.0041     0.0020 C.2     
   3 C3             1.1987    -0.6506    -0.0129 C.2     
   4 C4             2.3921     0.0931    -0.0203 C.2     
   5 C5             2.3573     1.4428    -0.0127 C.2     
   6 N6             1.1644     2.1050     0.0022 N.pl3   
   7 N7             0.8120     3.4600     0.0121 N.2     
   8 N8            -0.4720     3.5528     0.0245 N.2     
   9 C9            -1.0275     2.3500     0.0189 C.2     
  10 Br10           4.0571    -0.8032    -0.0404 Br      
  11 H11           -0.9217    -0.5635     0.0082 H       
  12 H12            1.2321    -1.7301    -0.0187 H       
  13 H13            3.2809     2.0027    -0.0182 H       
  14 H14           -2.0875     2.1431     0.0226 H       
@<TRIPOS>BOND
   1    1    2 1
   2    1    6 1
   3    1    9 2
   4    2    3 2
   5    2   11 1
   6    3    4 1
   7    3   12 1
   8    4    5 2
   9    4   10 1
  10    5    6 1
  11    5   13 1
  12    6    7 1
  13    7    8 2
  14    8    9 1
  15    9   14 1

#	End of record

