#	Name: ASD03758001
#	Creating user name:	WinNT
#	Creation time:	15. 06. 2019 20:47

#	Modifying user name:	WinNT
#	Modification time:	15. 06. 2019 20:47

#	Program:	/corina/corina34_cracker 3.40 0067  02.08.2006

@<TRIPOS>MOLECULE
ASD03758001
  77   78    0    0    0
SMALL
NO_CHARGES


@<TRIPOS>ATOM
   1 O1            -1.7023     1.6407    -0.2286 O.3     
   2 C2            -1.5257     0.5683     0.6992 C.3     
   3 C3            -2.7664    -0.3285     0.6853 C.3     
   4 O4            -2.9888    -0.8154    -0.6396 O.3     
   5 C5            -3.9806     0.4860     1.1420 C.3     
   6 O6            -5.1295    -0.3617     1.2025 O.3     
   7 C7            -3.6988     1.0669     2.5311 C.3     
   8 O8            -4.7955     1.8884     2.9366 O.3     
   9 C9            -2.4221     1.9098     2.4737 C.3     
  10 O10           -1.3387     1.1001     2.0124 O.3     
  11 C11           -2.1006     2.4447     3.8706 C.3     
  12 O12           -0.9992     3.3517     3.7915 O.3     
  13 S13           -0.6746     4.0475     5.1057 S.o2    
  14 O14            0.3439     4.9954     4.8171 O.2     
  15 O15           -1.9204     4.3994     5.6918 O.2     
  16 O16           -0.0467     3.0078     6.0229 O.3     
  17 S17           -5.5493     1.3604     4.1488 S.o2    
  18 O18           -6.6713     2.2141     4.3268 O.2     
  19 O19           -5.6625    -0.0448     3.9702 O.2     
  20 O20           -4.6541     1.5687     5.3619 O.3     
  21 S21           -5.9875    -0.3320    -0.0542 S.o2    
  22 O22           -7.1701    -1.0588     0.2500 O.2     
  23 O23           -5.9976     1.0168    -0.5014 O.2     
  24 O24           -5.2532    -1.1327    -1.1201 O.3     
  25 S25           -2.3891    -2.1892    -0.9032 S.o2    
  26 O26           -2.5249    -2.4254    -2.2978 O.2     
  27 O27           -1.1390    -2.2175    -0.2282 O.2     
  28 O28           -3.2772    -3.2097    -0.2059 O.3     
  29 O29            0.8548     1.4132     1.1050 O.3     
  30 C30            0.4587     2.5677     0.3617 C.3     
  31 C31           -0.7738     3.3542    -1.6831 C.3     
  32 O32           -0.0362     4.4992    -1.2506 O.3     
  33 C33           -0.2936     2.8970    -3.0820 C.3     
  34 O34           -1.2080     3.3158    -4.0971 O.3     
  35 C35           -0.2960     1.3538    -2.9378 C.3     
  36 O36            0.1491     1.1416    -1.5808 O.3     
  37 C37            0.6796     0.7183    -3.9304 C.3     
  38 O38            0.5783    -0.7050    -3.8529 O.3     
  39 C39           -0.4811     2.1477    -0.7703 C.3     
  40 S40            1.5096    -1.4445    -4.8028 S.o2    
  41 O41            1.1397    -2.8151    -4.7414 O.2     
  42 O42            1.5260    -0.6973    -6.0114 O.2     
  43 O43            2.9130    -1.3516    -4.2210 O.3     
  44 S44           -0.5367     3.8928    -5.3352 S.o2    
  45 O45           -1.5772     4.4193    -6.1473 O.2     
  46 O46            0.5575     4.6721    -4.8720 O.2     
  47 O47            0.0628     2.7264    -6.1076 O.3     
  48 S48           -0.7345     5.8241    -1.5216 S.o2    
  49 O49            0.2084     6.8437    -1.2207 O.2     
  50 O50           -1.3613     5.6951    -2.7904 O.2     
  51 O51           -1.8549     5.9599    -0.5005 O.3     
  52 S52            1.9090     1.6923     2.1668 S.o2    
  53 O53            2.3017     0.4284     2.6841 O.2     
  54 O54            2.8238     2.6148     1.5913 O.2     
  55 O55            1.2173     2.4269     3.3062 O.3     
  56 H56           -0.6509    -0.0171     0.4160 H       
  57 H57           -2.6154    -1.1696     1.3619 H       
  58 H58           -4.1623     1.2966     0.4363 H       
  59 H59           -3.5682     0.2546     3.2460 H       
  60 H60           -2.5686     2.7453     1.7892 H       
  61 H61           -2.9714     2.9645     4.2700 H       
  62 H62           -1.8407     1.6140     4.5268 H       
  63 H63            0.1999     3.3489     6.8935 H       
  64 H64           -5.0418     1.2642     6.1938 H       
  65 H65           -5.7169    -1.1775    -1.9675 H       
  66 H66           -2.9826    -4.1247    -0.3113 H       
  67 H67           -0.0566     3.2655     1.0217 H       
  68 H68            1.3414     3.0496    -0.0588 H       
  69 H69           -1.8415     3.5731    -1.6989 H       
  70 H70            0.7105     3.2673    -3.2888 H       
  71 H71           -1.3014     0.9567    -3.0785 H       
  72 H72            0.4345     1.0456    -4.9408 H       
  73 H73            1.6969     1.0240    -3.6862 H       
  74 H74            3.5891    -1.7937    -4.7525 H       
  75 H75            0.5178     2.9854    -6.9206 H       
  76 H76           -2.3673     6.7757    -0.5850 H       
  77 H77            1.8166     2.7212     4.0057 H       
@<TRIPOS>BOND
   1    1    2 1
   2    1   39 1
   3    2    3 1
   4    2   10 1
   5    2   56 1
   6    3    4 1
   7    3    5 1
   8    3   57 1
   9    4   25 1
  10    5    6 1
  11    5    7 1
  12    5   58 1
  13    6   21 1
  14    7    8 1
  15    7    9 1
  16    7   59 1
  17    8   17 1
  18    9   10 1
  19    9   11 1
  20    9   60 1
  21   11   12 1
  22   11   61 1
  23   11   62 1
  24   12   13 1
  25   13   14 2
  26   13   15 2
  27   13   16 1
  28   16   63 1
  29   17   18 2
  30   17   19 2
  31   17   20 1
  32   20   64 1
  33   21   22 2
  34   21   23 2
  35   21   24 1
  36   24   65 1
  37   25   26 2
  38   25   27 2
  39   25   28 1
  40   28   66 1
  41   29   30 1
  42   29   52 1
  43   30   39 1
  44   30   67 1
  45   30   68 1
  46   31   32 1
  47   31   33 1
  48   31   39 1
  49   31   69 1
  50   32   48 1
  51   33   34 1
  52   33   35 1
  53   33   70 1
  54   34   44 1
  55   35   36 1
  56   35   37 1
  57   35   71 1
  58   36   39 1
  59   37   38 1
  60   37   72 1
  61   37   73 1
  62   38   40 1
  63   40   41 2
  64   40   42 2
  65   40   43 1
  66   43   74 1
  67   44   45 2
  68   44   46 2
  69   44   47 1
  70   47   75 1
  71   48   49 2
  72   48   50 2
  73   48   51 1
  74   51   76 1
  75   52   53 2
  76   52   54 2
  77   52   55 1
  78   55   77 1

#	End of record

