#	Name: ASD01883608
#	Creating user name:	WinNT
#	Creation time:	15. 06. 2019 19:46

#	Modifying user name:	WinNT
#	Modification time:	15. 06. 2019 19:46

#	Program:	/corina/corina34_cracker 3.40 0067  02.08.2006

@<TRIPOS>MOLECULE
ASD01883608
  54   58    0    0    0
SMALL
NO_CHARGES


@<TRIPOS>ATOM
   1 C1            -0.0165     1.3869     0.0828 C.2     
   2 C2             0.0026    -0.0019     0.1369 C.2     
   3 C3            -1.2066    -0.7020     0.1631 C.2     
   4 C4            -2.3905    -0.0511     0.1368 C.2     
   5 N5            -2.4593     1.3074     0.0839 N.pl3   
   6 C6            -1.3158     2.0634     0.0611 C.2     
   7 C7            -3.5187     2.1870     0.0484 C.2     
   8 C8            -2.9870     3.4429    -0.0004 C.2     
   9 N9            -1.6585     3.3393     0.0094 N.2     
  10 C10           -4.9542     1.8380     0.0602 C.ar    
  11 C11            1.3135    -0.7448     0.1664 C.3     
  12 N12            1.6792    -1.0374     1.5587 N.3     
  13 C13            2.8200    -1.9601     1.6203 C.3     
  14 C14            3.0798    -2.3556     3.0757 C.3     
  15 C15            3.3724    -1.0970     3.8971 C.3     
  16 C16            2.1896    -0.1321     3.7769 C.3     
  17 C17            1.9556     0.1990     2.3012 C.3     
  18 C18            3.5701    -1.4738     5.3428 C.ar    
  19 C19            4.7692    -1.1958     5.9718 C.ar    
  20 C20            4.9505    -1.5414     7.2979 C.ar    
  21 C21            3.9326    -2.1647     7.9951 C.ar    
  22 C22            2.7331    -2.4419     7.3663 C.ar    
  23 C23            2.5502    -2.0923     6.0415 C.ar    
  24 C24           -5.3724     0.6066     0.5684 C.ar    
  25 C25           -6.7143     0.2871     0.5763 C.ar    
  26 C26           -7.6451     1.1837     0.0819 C.ar    
  27 C27           -7.2375     2.4056    -0.4236 C.ar    
  28 C28           -5.8994     2.7406    -0.4315 C.ar    
  29 C29            1.2027     2.1375     0.0551 C.1     
  30 N30            2.1699     2.7330     0.0331 N.1     
  31 H31           -1.1946    -1.7811     0.2048 H       
  32 H32           -3.3060    -0.6237     0.1580 H       
  33 H33           -3.5480     4.3650    -0.0376 H       
  34 H34            1.2144    -1.6785    -0.3872 H       
  35 H35            2.0892    -0.1313    -0.2918 H       
  36 H36            2.5972    -2.8526     1.0356 H       
  37 H37            3.7050    -1.4710     1.2133 H       
  38 H38            2.2001    -2.8571     3.4791 H       
  39 H39            3.9363    -3.0281     3.1226 H       
  40 H40            4.2745    -0.6164     3.5183 H       
  41 H41            1.2959    -0.5986     4.1913 H       
  42 H42            2.4101     0.7840     4.3248 H       
  43 H43            2.8447     0.6779     1.8910 H       
  44 H44            1.1050     0.8746     2.2110 H       
  45 H45            5.5646    -0.7088     5.4271 H       
  46 H46            5.8877    -1.3249     7.7891 H       
  47 H47            4.0745    -2.4354     9.0309 H       
  48 H48            1.9379    -2.9292     7.9110 H       
  49 H49            1.6131    -2.3089     5.5502 H       
  50 H50           -4.6469    -0.0944     0.9540 H       
  51 H51           -7.0392    -0.6650     0.9691 H       
  52 H52           -8.6945     0.9284     0.0902 H       
  53 H53           -7.9692     3.1006    -0.8084 H       
  54 H54           -5.5826     3.6946    -0.8263 H       
@<TRIPOS>BOND
   1    1    2 2
   2    1   29 1
   3    1    6 1
   4    2    3 1
   5    2   11 1
   6    3    4 2
   7    3   31 1
   8    4    5 1
   9    4   32 1
  10    5    6 1
  11    5    7 1
  12    6    9 2
  13    7    8 2
  14    7   10 1
  15    8    9 1
  16    8   33 1
  17   10   24 ar
  18   10   28 ar
  19   11   12 1
  20   11   34 1
  21   11   35 1
  22   12   13 1
  23   12   17 1
  24   13   14 1
  25   13   36 1
  26   13   37 1
  27   14   15 1
  28   14   38 1
  29   14   39 1
  30   15   16 1
  31   15   18 1
  32   15   40 1
  33   16   17 1
  34   16   41 1
  35   16   42 1
  36   17   43 1
  37   17   44 1
  38   18   19 ar
  39   18   23 ar
  40   19   20 ar
  41   19   45 1
  42   20   21 ar
  43   20   46 1
  44   21   22 ar
  45   21   47 1
  46   22   23 ar
  47   22   48 1
  48   23   49 1
  49   24   25 ar
  50   24   50 1
  51   25   26 ar
  52   25   51 1
  53   26   27 ar
  54   26   52 1
  55   27   28 ar
  56   27   53 1
  57   28   54 1
  58   29   30 3

#	End of record

