#	Name: ASD01900996
#	Creating user name:	WinNT
#	Creation time:	15. 06. 2019 19:53

#	Modifying user name:	WinNT
#	Modification time:	15. 06. 2019 19:53

#	Program:	/corina/corina34_cracker 3.40 0067  02.08.2006

@<TRIPOS>MOLECULE
ASD01900996
  57   61    0    0    0
SMALL
NO_CHARGES


@<TRIPOS>ATOM
   1 C1            -0.1942     1.6656     0.5231 C.ar    
   2 C2            -0.1805     0.2881     0.5841 C.ar    
   3 C3             1.0050    -0.4118     0.4128 C.ar    
   4 C4             2.1917     0.2609     0.1859 C.ar    
   5 C5             2.1953     1.6439     0.1277 C.ar    
   6 C6             0.9927     2.3556     0.2864 C.ar    
   7 N7             3.3661     2.3649    -0.0786 N.pl3   
   8 C8             3.2846     3.6731    -0.7380 C.3     
   9 N9             2.1561     4.4390    -0.2077 N.am    
  10 C10            1.0293     3.8259     0.2064 C.2     
  11 C11            2.2487     5.8342    -0.1280 C.ar    
  12 C12            2.9770     6.4246     0.8963 C.ar    
  13 C13            3.0678     7.8003     0.9743 C.ar    
  14 C14            2.4313     8.5924     0.0299 C.ar    
  15 C15            1.7035     8.0032    -0.9936 C.ar    
  16 C16            1.6169     6.6276    -1.0765 C.ar    
  17 O17            0.0510     4.4811     0.5111 O.2     
  18 O18            2.5204     9.9470     0.1078 O.3     
  19 C19            4.5843     4.4450    -0.4917 C.3     
  20 C20            3.1006     3.4698    -2.2446 C.3     
  21 C21            3.0844     4.8334    -2.9392 C.3     
  22 N22            4.3461     5.5355    -2.6720 N.3     
  23 C23            4.5244     5.7814    -1.2353 C.3     
  24 C24            4.4227     6.7889    -3.4341 C.3     
  25 C25            5.5410     7.6401    -2.8900 C.ar    
  26 C26            1.8403    10.7008    -0.8978 C.3     
  27 C27            6.7911     7.5825    -3.4770 C.ar    
  28 C28            7.8128     8.3699    -2.9691 C.ar    
  29 C29            7.5376     9.1895    -1.8849 C.ar    
  30 C30            6.2633     9.1942    -1.3505 C.ar    
  31 N31            5.3141     8.4353    -1.8629 N.ar    
  32 Br32           0.9983    -2.3012     0.4907 Br      
  33 F33            0.4724    10.4108    -0.8527 F       
  34 F34            2.0353    12.0670    -0.6682 F       
  35 F35            2.3474    10.3625    -2.1570 F       
  36 H36           -1.1201     2.2060     0.6537 H       
  37 H37           -1.0990    -0.2498     0.7668 H       
  38 H38            3.1113    -0.2900     0.0551 H       
  39 H39            4.2217     2.0095     0.2087 H       
  40 H40            3.4720     5.8081     1.6320 H       
  41 H41            3.6342     8.2597     1.7709 H       
  42 H42            1.2080     8.6206    -1.7283 H       
  43 H43            1.0540     6.1689    -1.8759 H       
  44 H44            4.7026     4.6276     0.5764 H       
  45 H45            5.4292     3.8619    -0.8581 H       
  46 H46            3.9246     2.8723    -2.6346 H       
  47 H47            2.1576     2.9556    -2.4300 H       
  48 H48            2.9680     4.6922    -4.0137 H       
  49 H49            2.2519     5.4251    -2.5585 H       
  50 H50            3.6860     6.3684    -0.8605 H       
  51 H51            5.4526     6.3293    -1.0731 H       
  52 H52            4.6142     6.5650    -4.4835 H       
  53 H53            3.4793     7.3273    -3.3438 H       
  54 H54            6.9697     6.9320    -4.3204 H       
  55 H55            8.7996     8.3453    -3.4071 H       
  56 H56            8.3096     9.8161    -1.4632 H       
  57 H57            6.0409     9.8297    -0.5061 H       
@<TRIPOS>BOND
   1    1    2 ar
   2    1    6 ar
   3    1   36 1
   4    2    3 ar
   5    2   37 1
   6    3    4 ar
   7    3   32 1
   8    4    5 ar
   9    4   38 1
  10    5    7 1
  11    5    6 ar
  12    6   10 1
  13    7    8 1
  14    7   39 1
  15    8    9 1
  16    8   20 1
  17    8   19 1
  18    9   10 am
  19    9   11 1
  20   10   17 2
  21   11   12 ar
  22   11   16 ar
  23   12   13 ar
  24   12   40 1
  25   13   14 ar
  26   13   41 1
  27   14   15 ar
  28   14   18 1
  29   15   16 ar
  30   15   42 1
  31   16   43 1
  32   18   26 1
  33   19   23 1
  34   19   44 1
  35   19   45 1
  36   20   21 1
  37   20   46 1
  38   20   47 1
  39   21   22 1
  40   21   48 1
  41   21   49 1
  42   22   23 1
  43   22   24 1
  44   23   50 1
  45   23   51 1
  46   24   25 1
  47   24   52 1
  48   24   53 1
  49   25   27 ar
  50   25   31 ar
  51   26   33 1
  52   26   34 1
  53   26   35 1
  54   27   28 ar
  55   27   54 1
  56   28   29 ar
  57   28   55 1
  58   29   30 ar
  59   29   56 1
  60   30   31 ar
  61   30   57 1

#	End of record

