#	Name: ASD01815898
#	Creating user name:	WinNT
#	Creation time:	15. 06. 2019 19:34

#	Modifying user name:	WinNT
#	Modification time:	15. 06. 2019 19:34

#	Program:	/corina/corina34_cracker 3.40 0067  02.08.2006

@<TRIPOS>MOLECULE
ASD01815898
  53   58    0    0    0
SMALL
NO_CHARGES


@<TRIPOS>ATOM
   1 C1             0.6731     1.9713     0.2349 C.ar    
   2 C2             0.4482     0.5978     0.2586 C.ar    
   3 C3             1.4844    -0.3042     0.1596 C.ar    
   4 C4             2.7941     0.1614     0.0321 C.ar    
   5 C5             3.0276     1.6090     0.0074 C.ar    
   6 C6             1.9322     2.4833     0.1122 C.ar    
   7 N7             3.8521    -0.6953    -0.0695 N.pl3   
   8 C8             5.1034    -0.2374    -0.1913 C.2     
   9 C9             5.3860     1.1134    -0.2202 C.2     
  10 C10            4.3526     2.0738    -0.1216 C.2     
  11 C11            6.6203     1.9237    -0.3408 C.2     
  12 N12            6.2142     3.2110    -0.3033 N.am    
  13 N13            4.9395     3.2932    -0.1801 N.2     
  14 C14            7.0643     4.3026    -0.3875 C.ar    
  15 O15            7.7572     1.5163    -0.4500 O.2     
  16 C16            3.6134    -2.1405    -0.0442 C.3     
  17 C17            3.7574    -2.6488     1.3671 C.ar    
  18 C18            2.6374    -2.7983     2.1643 C.ar    
  19 C19            2.7662    -3.2636     3.4583 C.ar    
  20 C20            4.0217    -3.5817     3.9584 C.ar    
  21 C21            5.1443    -3.4309     3.1555 C.ar    
  22 C22            5.0085    -2.9702     1.8605 C.ar    
  23 N23            4.1557    -4.0536     5.2716 N.pl3   
  24 C24            5.3136    -4.3979     5.8793 C.2     
  25 F25            2.1242     3.8204     0.0912 F       
  26 F26            1.2347    -1.6316     0.1862 F       
  27 C27            5.0150    -4.8007     7.1362 C.2     
  28 C28            3.6295    -4.6996     7.3032 C.2     
  29 N29            3.1144    -4.2464     6.1887 N.2     
  30 C30            7.0466     5.2817     0.6057 C.ar    
  31 C31            7.9448     4.4230    -1.4629 C.ar    
  32 C32            8.7631     6.4827    -0.5550 C.ar    
  33 C33            7.8949     6.3656     0.5172 C.ar    
  34 C34            8.7886     5.5106    -1.5414 C.ar    
  35 N35            6.1185     5.1581     1.7524 N.pl3   
  36 O36            6.1028     6.0833     2.6895 O.2     
  37 O37            5.3087     4.1228     1.8354 O.2     
  38 H38           -0.1668     2.6459     0.3107 H       
  39 H39           -0.5626     0.2307     0.3574 H       
  40 H40            5.9156    -0.9450    -0.2690 H       
  41 H41            2.6059    -2.3487    -0.4044 H       
  42 H42            4.3392    -2.6399    -0.6861 H       
  43 H43            1.6610    -2.5507     1.7747 H       
  44 H44            1.8912    -3.3795     4.0807 H       
  45 H45            6.1223    -3.6772     3.5419 H       
  46 H46            5.8814    -2.8527     1.2355 H       
  47 H47            6.2996    -4.3591     5.4402 H       
  48 H48            5.7215    -5.1402     7.8792 H       
  49 H49            3.0802    -4.9484     8.1992 H       
  50 H50            7.9657     3.6654    -2.2324 H       
  51 H51            9.4257     7.3330    -0.6204 H       
  52 H52            7.8791     7.1264     1.2836 H       
  53 H53            9.4709     5.6046    -2.3733 H       
@<TRIPOS>BOND
   1    1    2 ar
   2    1    6 ar
   3    1   38 1
   4    2    3 ar
   5    2   39 1
   6    3    4 ar
   7    3   26 1
   8    4    5 ar
   9    4    7 1
  10    5    6 ar
  11    5   10 1
  12    6   25 1
  13    7    8 1
  14    7   16 1
  15    8    9 2
  16    8   40 1
  17    9   10 1
  18    9   11 1
  19   10   13 2
  20   11   12 am
  21   11   15 2
  22   12   13 1
  23   12   14 1
  24   14   30 ar
  25   14   31 ar
  26   16   17 1
  27   16   41 1
  28   16   42 1
  29   17   18 ar
  30   17   22 ar
  31   18   19 ar
  32   18   43 1
  33   19   20 ar
  34   19   44 1
  35   20   21 ar
  36   20   23 1
  37   21   22 ar
  38   21   45 1
  39   22   46 1
  40   23   24 1
  41   23   29 1
  42   24   27 2
  43   24   47 1
  44   27   28 1
  45   27   48 1
  46   28   29 2
  47   28   49 1
  48   30   35 1
  49   30   33 ar
  50   31   34 ar
  51   31   50 1
  52   32   33 ar
  53   32   34 ar
  54   32   51 1
  55   33   52 1
  56   34   53 1
  57   35   36 2
  58   35   37 2

#	End of record

