#	Name: ASD01811740
#	Creating user name:	WinNT
#	Creation time:	15. 06. 2019 19:27

#	Modifying user name:	WinNT
#	Modification time:	15. 06. 2019 19:27

#	Program:	/corina/corina34_cracker 3.40 0067  02.08.2006

@<TRIPOS>MOLECULE
ASD01811740
  57   61    0    0    0
SMALL
NO_CHARGES


@<TRIPOS>ATOM
   1 C1            -0.0167     1.3805     0.0096 C.ar    
   2 C2             0.0021    -0.0041     0.0020 C.ar    
   3 C3             1.2075    -0.6836    -0.0127 C.ar    
   4 C4             2.3988     0.0118    -0.0203 C.ar    
   5 C5             2.3881     1.4079    -0.0132 C.ar    
   6 C6             1.1658     2.0836     0.0021 C.ar    
   7 C7            -1.2939    -0.7731     0.0103 C.3     
   8 C8             1.2188    -2.1905    -0.0199 C.3     
   9 C9             1.0853    -2.6871    -1.4364 C.ar    
  10 C10            2.2178    -2.9047    -2.2001 C.ar    
  11 C11            2.1011    -3.3599    -3.4979 C.ar    
  12 C12            0.8399    -3.6002    -4.0383 C.ar    
  13 C13           -0.2974    -3.3794    -3.2649 C.ar    
  14 C14           -0.1692    -2.9291    -1.9664 C.ar    
  15 C15            0.7083    -4.0894    -5.4340 C.2     
  16 C16            1.7655    -4.3547    -6.3260 C.2     
  17 N17            1.2508    -4.7676    -7.4540 N.2     
  18 N18           -0.1435    -4.7822    -7.3278 N.pl3   
  19 C19           -0.4584    -4.3694    -6.0835 C.2     
  20 C20           -1.0958    -5.1820    -8.3668 C.3     
  21 C21            3.4708     2.4102    -0.0183 C.2     
  22 N22            2.9565     3.6521    -0.0072 N.am    
  23 C23            1.4923     3.5561     0.0064 C.3     
  24 C24            3.7301     4.8962    -0.0086 C.3     
  25 C25            3.9849     5.3366    -1.4515 C.3     
  26 O26            2.7472     5.6988    -2.0748 O.3     
  27 C27            2.7745     7.0847    -2.4514 C.3     
  28 C28            4.2764     7.4316    -2.6087 C.3     
  29 C29            4.8964     6.5826    -1.4655 C.3     
  30 O30            4.6581     2.1501    -0.0300 O.2     
  31 H31           -0.9590     1.9081     0.0170 H       
  32 H32            3.3374    -0.5224    -0.0314 H       
  33 H33           -1.6162    -0.9530    -1.0154 H       
  34 H34           -1.1473    -1.7267     0.5176 H       
  35 H35           -2.0556    -0.1960     0.5345 H       
  36 H36            2.1570    -2.5488     0.4038 H       
  37 H37            0.3854    -2.5629     0.5758 H       
  38 H38            3.1951    -2.7177    -1.7802 H       
  39 H39            2.9861    -3.5291    -4.0934 H       
  40 H40           -1.2775    -3.5642    -3.6791 H       
  41 H41           -1.0503    -2.7576    -1.3659 H       
  42 H42            2.8180    -4.2371    -6.1148 H       
  43 H43           -1.4541    -4.2715    -5.6768 H       
  44 H44           -1.2918    -6.2514    -8.2879 H       
  45 H45           -2.0275    -4.6314    -8.2371 H       
  46 H46           -0.6767    -4.9609    -9.3484 H       
  47 H47            1.0774     4.0343    -0.8809 H       
  48 H48            1.0945     4.0255     0.9061 H       
  49 H49            3.1714     5.6720     0.5149 H       
  50 H50            4.6829     4.7321     0.4949 H       
  51 H51            4.4558     4.5261    -2.0077 H       
  52 H52            2.2516     7.2302    -3.3967 H       
  53 H53            2.3243     7.6979    -1.6708 H       
  54 H54            4.6530     7.1153    -3.5814 H       
  55 H55            4.4529     8.4952    -2.4481 H       
  56 H56            4.8424     7.1134    -0.5150 H       
  57 H57            5.9249     6.3083    -1.7000 H       
@<TRIPOS>BOND
   1    1    2 ar
   2    1    6 ar
   3    1   31 1
   4    2    3 ar
   5    2    7 1
   6    3    4 ar
   7    3    8 1
   8    4    5 ar
   9    4   32 1
  10    5    6 ar
  11    5   21 1
  12    6   23 1
  13    7   33 1
  14    7   34 1
  15    7   35 1
  16    8    9 1
  17    8   36 1
  18    8   37 1
  19    9   10 ar
  20    9   14 ar
  21   10   11 ar
  22   10   38 1
  23   11   12 ar
  24   11   39 1
  25   12   13 ar
  26   12   15 1
  27   13   14 ar
  28   13   40 1
  29   14   41 1
  30   15   16 1
  31   15   19 2
  32   16   17 2
  33   16   42 1
  34   17   18 1
  35   18   19 1
  36   18   20 1
  37   19   43 1
  38   20   44 1
  39   20   45 1
  40   20   46 1
  41   21   22 am
  42   21   30 2
  43   22   23 1
  44   22   24 1
  45   23   47 1
  46   23   48 1
  47   24   25 1
  48   24   49 1
  49   24   50 1
  50   25   26 1
  51   25   29 1
  52   25   51 1
  53   26   27 1
  54   27   28 1
  55   27   52 1
  56   27   53 1
  57   28   29 1
  58   28   54 1
  59   28   55 1
  60   29   56 1
  61   29   57 1

#	End of record

