#	Name: ASD01883604
#	Creating user name:	WinNT
#	Creation time:	15. 06. 2019 19:46

#	Modifying user name:	WinNT
#	Modification time:	15. 06. 2019 19:46

#	Program:	/corina/corina34_cracker 3.40 0067  02.08.2006

@<TRIPOS>MOLECULE
ASD01883604
  52   53    0    0    0
SMALL
NO_CHARGES


@<TRIPOS>ATOM
   1 C1            -0.5318     1.4683     0.1672 C.2     
   2 C2            -0.6559     0.1341     0.3271 C.2     
   3 N3             0.3092    -0.5881     0.9563 N.am    
   4 C4             1.4178     0.0023     1.4394 C.2     
   5 C5             1.5969     1.3857     1.3001 C.2     
   6 C6             0.6166     2.1307     0.6591 C.2     
   7 O7             2.2697    -0.6687     2.0009 O.2     
   8 Cl8            3.0235     2.1560     1.9207 Cl      
   9 C9             0.7709     3.5931     0.4929 C.ar    
  10 C10            0.0307     4.4710     1.2899 C.ar    
  11 C11            0.1787     5.8349     1.1312 C.ar    
  12 C12            1.0607     6.3326     0.1816 C.ar    
  13 C13            1.7976     5.4613    -0.6123 C.ar    
  14 C14            1.6604     4.0996    -0.4561 C.ar    
  15 O15            1.2037     7.6740     0.0277 O.3     
  16 C16            2.1307     8.3087     0.7923 C.ar    
  17 C17            2.9781     7.5818     1.6224 C.ar    
  18 C18            3.9075     8.2734     2.3828 C.ar    
  19 C19            3.9621     9.6515     2.2925 C.ar    
  20 N20            3.1438    10.3108     1.4957 N.ar    
  21 C21            2.2496     9.6908     0.7519 C.ar    
  22 C22            0.1388    -2.0348     1.1114 C.3     
  23 C23            0.7430    -2.7520    -0.0975 C.3     
  24 C24            1.3386    10.4918    -0.1422 C.3     
  25 F25           -0.8282     3.9863     2.2132 F       
  26 C26            4.9700    10.4110     3.1161 C.3     
  27 C27            0.5650    -4.2630     0.0645 C.3     
  28 C28            1.1692    -4.9802    -1.1444 C.3     
  29 H29           -1.3049     2.0277    -0.3386 H       
  30 H30           -1.5350    -0.3674    -0.0499 H       
  31 H31           -0.3924     6.5148     1.7460 H       
  32 H32            2.4820     5.8529    -1.3503 H       
  33 H33            2.2340     3.4243    -1.0737 H       
  34 H34            2.9129     6.5050     1.6733 H       
  35 H35            4.5811     7.7417     3.0385 H       
  36 H36            0.6436    -2.3648     2.0193 H       
  37 H37           -0.9233    -2.2703     1.1801 H       
  38 H38            0.2381    -2.4220    -1.0055 H       
  39 H39            1.8050    -2.5165    -0.1663 H       
  40 H40            1.8038    10.6124    -1.1205 H       
  41 H41            0.3881     9.9700    -0.2537 H       
  42 H42            1.1649    11.4724     0.3009 H       
  43 H43            5.8956    10.5170     2.5504 H       
  44 H44            4.5746    11.3985     3.3543 H       
  45 H45            5.1688     9.8669     4.0395 H       
  46 H46            1.0699    -4.5930     0.9724 H       
  47 H47           -0.4970    -4.4985     0.1332 H       
  48 H48            0.6644    -4.6502    -2.0524 H       
  49 H49            2.2313    -4.7447    -1.2132 H       
  50 H50            1.0425    -6.0566    -1.0290 H       
  51 H51           10.8956    16.4724     9.0395 H       
  52 Cl52          10.8956    17.8424     9.0395 Cl      
@<TRIPOS>BOND
   1    1    2 2
   2    1    6 1
   3    1   29 1
   4    2    3 1
   5    2   30 1
   6    3    4 am
   7    3   22 1
   8    4    5 1
   9    4    7 2
  10    5    6 2
  11    5    8 1
  12    6    9 1
  13    9   10 ar
  14    9   14 ar
  15   10   11 ar
  16   10   25 1
  17   11   12 ar
  18   11   31 1
  19   12   13 ar
  20   12   15 1
  21   13   14 ar
  22   13   32 1
  23   14   33 1
  24   15   16 1
  25   16   17 ar
  26   16   21 ar
  27   17   18 ar
  28   17   34 1
  29   18   19 ar
  30   18   35 1
  31   19   20 ar
  32   19   26 1
  33   20   21 ar
  34   21   24 1
  35   22   23 1
  36   22   36 1
  37   22   37 1
  38   23   27 1
  39   23   38 1
  40   23   39 1
  41   24   40 1
  42   24   41 1
  43   24   42 1
  44   26   43 1
  45   26   44 1
  46   26   45 1
  47   27   28 1
  48   27   46 1
  49   27   47 1
  50   28   48 1
  51   28   49 1
  52   28   50 1
  53   51   52 1

#	End of record

