#	Name: ASD01910240
#	Creating user name:	WinNT
#	Creation time:	15. 06. 2019 19:55

#	Modifying user name:	WinNT
#	Modification time:	15. 06. 2019 19:55

#	Program:	/corina/corina34_cracker 3.40 0067  02.08.2006

@<TRIPOS>MOLECULE
ASD01910240
  50   54    0    0    0
SMALL
NO_CHARGES


@<TRIPOS>ATOM
   1 C1             1.9648     0.2876    -0.3679 C.2     
   2 C2             2.6801     1.6024    -0.1926 C.3     
   3 C3             2.5928     2.4083    -1.4907 C.3     
   4 C4             3.3470     3.7296    -1.3244 C.3     
   5 C5             2.6968     4.5465    -0.2034 C.3     
   6 N6             2.6457     3.7237     1.0128 N.am    
   7 C7             2.0224     2.3952     0.9412 C.3     
   8 C8             3.1608     4.1790     2.1720 C.2     
   9 C9             2.9800     3.4095     3.4070 C.2     
  10 O10            3.7760     5.2289     2.1938 O.2     
  11 N11            2.4916    -0.9060    -0.2527 N.2     
  12 C12            1.4822    -1.7732    -0.4928 C.2     
  13 N13            0.4122    -1.0620    -0.7372 N.2     
  14 O14            0.6721     0.1204    -0.6643 O.3     
  15 C15            1.5719    -3.2543    -0.4818 C.ar    
  16 C16            0.4419    -4.0248    -0.7492 C.ar    
  17 C17            0.5299    -5.4015    -0.7385 C.ar    
  18 C18            1.7396    -6.0183    -0.4623 C.ar    
  19 C19            2.8656    -5.2559    -0.1959 C.ar    
  20 C20            2.7877    -3.8786    -0.2098 C.ar    
  21 F21            1.8213    -7.3668    -0.4523 F       
  22 C22            3.8671     3.3676     4.4452 C.2     
  23 C23            3.4821     2.5792     5.4954 C.2     
  24 C24            2.2754     1.9630     5.3355 C.2     
  25 S25            1.5850     2.4062     3.7803 S.3     
  26 C26            1.6422     1.0634     6.3220 C.ar    
  27 N27            2.2594     0.8048     7.4695 N.ar    
  28 C28            1.7282     0.0089     8.3746 C.ar    
  29 C29            0.5000    -0.5902     8.1611 C.ar    
  30 C30           -0.1798    -0.3475     6.9755 C.ar    
  31 C31            0.3976     0.4965     6.0436 C.ar    
  32 H32            3.7263     1.4177     0.0513 H       
  33 H33            3.0383     1.8358    -2.3042 H       
  34 H34            1.5474     2.6134    -1.7212 H       
  35 H35            4.3869     3.5253    -1.0696 H       
  36 H36            3.3043     4.2927    -2.2567 H       
  37 H37            3.2881     5.4424    -0.0140 H       
  38 H38            1.6856     4.8289    -0.4964 H       
  39 H39            0.9561     2.5021     0.7416 H       
  40 H40            2.1687     1.8716     1.8859 H       
  41 H41           -0.5014    -3.5448    -0.9642 H       
  42 H42           -0.3454    -5.9994    -0.9452 H       
  43 H43            3.8065    -5.7407     0.0189 H       
  44 H44            3.6658    -3.2852    -0.0021 H       
  45 H45            4.7989     3.9134     4.4376 H       
  46 H46            4.0866     2.4541     6.3816 H       
  47 H47            2.2591    -0.1787     9.2962 H       
  48 H48            0.0740    -1.2414     8.9100 H       
  49 H49           -1.1401    -0.8041     6.7864 H       
  50 H50           -0.1041     0.7075     5.1107 H       
@<TRIPOS>BOND
   1    1   11 2
   2    1    2 1
   3    1   14 1
   4    2    3 1
   5    2    7 1
   6    2   32 1
   7    3    4 1
   8    3   33 1
   9    3   34 1
  10    4    5 1
  11    4   35 1
  12    4   36 1
  13    5    6 1
  14    5   37 1
  15    5   38 1
  16    6    7 1
  17    6    8 am
  18    7   39 1
  19    7   40 1
  20    8    9 1
  21    8   10 2
  22    9   22 2
  23    9   25 1
  24   11   12 1
  25   12   13 2
  26   12   15 1
  27   13   14 1
  28   15   16 ar
  29   15   20 ar
  30   16   17 ar
  31   16   41 1
  32   17   18 ar
  33   17   42 1
  34   18   19 ar
  35   18   21 1
  36   19   20 ar
  37   19   43 1
  38   20   44 1
  39   22   23 1
  40   22   45 1
  41   23   24 2
  42   23   46 1
  43   24   25 1
  44   24   26 1
  45   26   27 ar
  46   26   31 ar
  47   27   28 ar
  48   28   29 ar
  49   28   47 1
  50   29   30 ar
  51   29   48 1
  52   30   31 ar
  53   30   49 1
  54   31   50 1

#	End of record

