#	Name: ASD00170496
#	Creating user name:	WinNT
#	Creation time:	15. 06. 2019 18:32

#	Modifying user name:	WinNT
#	Modification time:	15. 06. 2019 18:32

#	Program:	/corina/corina34_cracker 3.40 0067  02.08.2006

@<TRIPOS>MOLECULE
ASD00170496
  50   53    0    0    0
SMALL
NO_CHARGES


@<TRIPOS>ATOM
   1 C1             0.3977    -1.3414     0.9983 C.3     
   2 C2            -0.9136    -2.1405     1.1760 C.3     
   3 C3            -1.8207    -1.2204     2.0489 C.3     
   4 C4            -2.2032    -0.0400     1.1045 C.3     
   5 C5            -0.8919     0.7590     0.9268 C.3     
   6 C6             0.1594    -0.0138     1.7806 C.3     
   7 O7             1.4985    -2.0595     1.5593 O.3     
   8 C8            -0.7436    -0.5282     2.9567 C.3     
   9 N9            -2.6695    -0.5500    -0.1873 N.pl3   
  10 C10           -3.9992    -0.9024    -0.3539 C.ar    
  11 N11           -4.8645    -0.7838     0.6479 N.ar    
  12 C12           -6.1334    -1.1173     0.4981 C.ar    
  13 N13           -6.6121    -1.5815    -0.6372 N.ar    
  14 C14           -5.8212    -1.7340    -1.6938 C.ar    
  15 C15           -4.4647    -1.3875    -1.5869 C.ar    
  16 N16           -6.0020    -2.1797    -2.9830 N.pl3   
  17 C17           -4.7917    -2.1046    -3.6155 C.2     
  18 N18           -3.8889    -1.6365    -2.7901 N.2     
  19 C19           -7.2595    -2.6490    -3.5699 C.3     
  20 N20           -4.5578    -2.4641    -4.9275 N.3     
  21 C21           -5.4460    -1.7321    -5.8403 C.3     
  22 C22           -3.1483    -2.2580    -5.2865 C.3     
  23 C23           -2.9008    -2.7820    -6.7025 C.3     
  24 C24           -2.8210    -0.7645    -5.2309 C.3     
  25 H25            0.5773    -1.1358    -0.0569 H       
  26 H26           -1.3797    -2.3259     0.2083 H       
  27 H27           -0.7186    -3.0810     1.6913 H       
  28 H28           -2.6503    -1.7124     2.5566 H       
  29 H29           -2.9685     0.5836     1.5665 H       
  30 H30           -0.5942     0.7724    -0.1216 H       
  31 H31           -1.0126     1.7755     1.3015 H       
  32 H32            1.0543     0.5449     2.0547 H       
  33 H33            1.6605    -2.9178     1.1445 H       
  34 H34           -1.1649     0.2923     3.5376 H       
  35 H35           -0.2210    -1.2451     3.5900 H       
  36 H36           -2.0474    -0.6410    -0.9259 H       
  37 H37           -6.8032    -1.0053     1.3379 H       
  38 H38           -7.7885    -1.8072    -4.0166 H       
  39 H39           -7.0469    -3.3931    -4.3375 H       
  40 H40           -7.8789    -3.0960    -2.7923 H       
  41 H41           -5.2724    -0.6612    -5.7351 H       
  42 H42           -5.2406    -2.0343    -6.8672 H       
  43 H43           -6.4840    -1.9577    -5.5959 H       
  44 H44           -2.5120    -2.7959    -4.5837 H       
  45 H45           -3.5372    -2.2441    -7.4053 H       
  46 H46           -1.8550    -2.6291    -6.9689 H       
  47 H47           -3.1340    -3.8460    -6.7422 H       
  48 H48           -1.7751    -0.6116    -5.4972 H       
  49 H49           -3.4573    -0.2266    -5.9337 H       
  50 H50           -2.9973    -0.3912    -4.2221 H       
@<TRIPOS>BOND
   1    1    2 1
   2    1    7 1
   3    1    6 1
   4    1   25 1
   5    2    3 1
   6    2   26 1
   7    2   27 1
   8    3    4 1
   9    3    8 1
  10    3   28 1
  11    4    5 1
  12    4    9 1
  13    4   29 1
  14    5    6 1
  15    5   30 1
  16    5   31 1
  17    6    8 1
  18    6   32 1
  19    7   33 1
  20    8   34 1
  21    8   35 1
  22    9   10 1
  23    9   36 1
  24   10   11 ar
  25   10   15 ar
  26   11   12 ar
  27   12   13 ar
  28   12   37 1
  29   13   14 ar
  30   14   15 ar
  31   14   16 1
  32   15   18 1
  33   16   17 1
  34   16   19 1
  35   17   18 2
  36   17   20 1
  37   19   38 1
  38   19   39 1
  39   19   40 1
  40   20   21 1
  41   20   22 1
  42   21   41 1
  43   21   42 1
  44   21   43 1
  45   22   23 1
  46   22   24 1
  47   22   44 1
  48   23   45 1
  49   23   46 1
  50   23   47 1
  51   24   48 1
  52   24   49 1
  53   24   50 1

#	End of record

