#	Name: ASD01510067
#	Creating user name:	WinNT
#	Creation time:	15. 06. 2019 19:21

#	Modifying user name:	WinNT
#	Modification time:	15. 06. 2019 19:21

#	Program:	/corina/corina34_cracker 3.40 0067  02.08.2006

@<TRIPOS>MOLECULE
ASD01510067
  44   46    0    0    0
SMALL
NO_CHARGES


@<TRIPOS>ATOM
   1 C1            -0.0173     1.4248     0.0099 C.3     
   2 O2             0.0021    -0.0041     0.0020 O.3     
   3 C3             0.6046    -0.6059    -1.0537 C.ar    
   4 N4             1.1457     0.1215    -2.0251 N.ar    
   5 C5             1.7362    -0.4582    -3.0590 C.ar    
   6 N6             1.8131    -1.7755    -3.1707 N.ar    
   7 C7             1.2955    -2.5696    -2.2395 C.ar    
   8 C8             0.6700    -1.9971    -1.1318 C.ar    
   9 S9            -0.0315    -3.0064     0.1307 S.3     
  10 C10            1.3079    -3.2232     1.2548 C.ar    
  11 C11            2.5401    -2.6355     0.9912 C.ar    
  12 C12            3.5906    -2.8056     1.8719 C.ar    
  13 C13            3.4209    -3.5593     3.0174 C.ar    
  14 C14            2.1917    -4.1498     3.2874 C.ar    
  15 C15            1.1326    -3.9766     2.4083 C.ar    
  16 N16            2.0215    -4.9118     4.4455 N.pl3   
  17 O17            1.3783    -3.9179    -2.3619 O.3     
  18 C18            2.0391    -4.4245    -3.5233 C.3     
  19 N19            2.2888     0.3360    -4.0521 N.3     
  20 C20            2.8948    -0.4872    -5.1087 C.3     
  21 C21            3.4384     0.4258    -6.2108 C.3     
  22 O22            4.3710     1.3486    -5.6416 O.3     
  23 C23            3.8141     2.1670    -4.6094 C.3     
  24 C24            3.2742     1.2716    -3.4911 C.3     
  25 H25            1.0053     1.8021     0.0021 H       
  26 H26           -0.5445     1.7859    -0.8732 H       
  27 H27           -0.5275     1.7763     0.9067 H       
  28 H28            2.6761    -2.0458     0.0967 H       
  29 H29            4.5469    -2.3487     1.6645 H       
  30 H30            4.2444    -3.6902     3.7037 H       
  31 H31            0.1766    -4.4343     2.6158 H       
  32 H32            2.7613    -5.0293     5.0618 H       
  33 H33            1.1636    -5.3236     4.6334 H       
  34 H34            3.0680    -4.0649    -3.5418 H       
  35 H35            2.0355    -5.5141    -3.4972 H       
  36 H36            1.5180    -4.0807    -4.4168 H       
  37 H37            3.7103    -1.0760    -4.6887 H       
  38 H38            2.1414    -1.1544    -5.5275 H       
  39 H39            3.9391    -0.1768    -6.9687 H       
  40 H40            2.6151     0.9753    -6.6673 H       
  41 H41            4.5864     2.8238    -4.2091 H       
  42 H42            3.0017     2.7672    -5.0193 H       
  43 H43            2.7978     1.8884    -2.7290 H       
  44 H44            4.0958     0.7109    -3.0452 H       
@<TRIPOS>BOND
   1    1    2 1
   2    1   25 1
   3    1   26 1
   4    1   27 1
   5    2    3 1
   6    3    4 ar
   7    3    8 ar
   8    4    5 ar
   9    5    6 ar
  10    5   19 1
  11    6    7 ar
  12    7    8 ar
  13    7   17 1
  14    8    9 1
  15    9   10 1
  16   10   11 ar
  17   10   15 ar
  18   11   12 ar
  19   11   28 1
  20   12   13 ar
  21   12   29 1
  22   13   14 ar
  23   13   30 1
  24   14   15 ar
  25   14   16 1
  26   15   31 1
  27   16   32 1
  28   16   33 1
  29   17   18 1
  30   18   34 1
  31   18   35 1
  32   18   36 1
  33   19   20 1
  34   19   24 1
  35   20   21 1
  36   20   37 1
  37   20   38 1
  38   21   22 1
  39   21   39 1
  40   21   40 1
  41   22   23 1
  42   23   24 1
  43   23   41 1
  44   23   42 1
  45   24   43 1
  46   24   44 1

#	End of record

