#	Name: ASD02030021
#	Creating user name:	WinNT
#	Creation time:	15. 06. 2019 20:14

#	Modifying user name:	WinNT
#	Modification time:	15. 06. 2019 20:14

#	Program:	/corina/corina34_cracker 3.40 0067  02.08.2006

@<TRIPOS>MOLECULE
ASD02030021
  43   44    0    0    0
SMALL
NO_CHARGES


@<TRIPOS>ATOM
   1 C1            -0.0167     1.3802     0.0096 C.ar    
   2 C2             0.0021    -0.0041     0.0020 C.ar    
   3 C3            -1.1870    -0.7112     0.0095 C.ar    
   4 C4            -2.3926    -0.0358     0.0246 C.ar    
   5 C5            -2.4114     1.3467     0.0318 C.ar    
   6 C6            -1.2244     2.0547     0.0305 C.ar    
   7 Cl7            1.4744     2.2691     0.0002 Cl      
   8 Cl8            1.5168    -0.8520    -0.0175 Cl      
   9 C9            -3.6876    -0.8065     0.0328 C.3     
  10 C10           -4.1121    -1.0751     1.4780 C.3     
  11 N11           -5.3744    -1.8264     1.4859 N.3     
  12 C12           -5.8137    -2.1031     2.8601 C.3     
  13 C13           -7.1284    -2.8851     2.8276 C.3     
  14 C14           -7.5859    -3.1732     4.2589 C.3     
  15 O15           -8.7496    -4.0020     4.2292 O.3     
  16 O16           -8.1253    -2.1131     2.1551 O.3     
  17 C17           -9.2875    -4.3534     5.4267 C.ar    
  18 C18          -10.4178    -5.1566     5.4719 C.ar    
  19 C19          -10.9624    -5.5128     6.6905 C.ar    
  20 C20          -10.3819    -5.0695     7.8645 C.ar    
  21 C21           -9.2554    -4.2690     7.8222 C.ar    
  22 C22           -8.7039    -3.9143     6.6062 C.ar    
  23 N23          -10.9677    -5.4522     9.1687 N.pl3   
  24 O24          -11.9603    -6.1570     9.2071 O.2     
  25 O25          -10.4572    -5.0623    10.2035 O.2     
  26 H26           -1.1730    -1.7911     0.0032 H       
  27 H27           -3.3540     1.8736     0.0432 H       
  28 H28           -1.2398     3.1346     0.0361 H       
  29 H29           -4.4598    -0.2249    -0.4706 H       
  30 H30           -3.5495    -1.7544    -0.4875 H       
  31 H31           -3.3399    -1.6568     1.9814 H       
  32 H32           -4.2501    -0.1273     1.9982 H       
  33 H33           -6.0897    -1.3371     0.9692 H       
  34 H34           -5.0533    -2.6919     3.3731 H       
  35 H35           -5.9636    -1.1624     3.3900 H       
  36 H36           -6.9785    -3.8258     2.2978 H       
  37 H37           -6.7892    -3.6846     4.7990 H       
  38 H38           -7.8210    -2.2347     4.7610 H       
  39 H39           -8.3106    -1.2607     2.5725 H       
  40 H40          -10.8718    -5.5028     4.5551 H       
  41 H41          -11.8425    -6.1377     6.7261 H       
  42 H42           -8.8040    -3.9237     8.7406 H       
  43 H43           -7.8239    -3.2890     6.5737 H       
@<TRIPOS>BOND
   1    1    2 ar
   2    1    7 1
   3    1    6 ar
   4    2    3 ar
   5    2    8 1
   6    3    4 ar
   7    3   26 1
   8    4    5 ar
   9    4    9 1
  10    5    6 ar
  11    5   27 1
  12    6   28 1
  13    9   10 1
  14    9   29 1
  15    9   30 1
  16   10   11 1
  17   10   31 1
  18   10   32 1
  19   11   12 1
  20   11   33 1
  21   12   13 1
  22   12   34 1
  23   12   35 1
  24   13   14 1
  25   13   16 1
  26   13   36 1
  27   14   15 1
  28   14   37 1
  29   14   38 1
  30   15   17 1
  31   16   39 1
  32   17   18 ar
  33   17   22 ar
  34   18   19 ar
  35   18   40 1
  36   19   20 ar
  37   19   41 1
  38   20   21 ar
  39   20   23 1
  40   21   22 ar
  41   21   42 1
  42   22   43 1
  43   23   24 2
  44   23   25 2

#	End of record

