#	Name: ASD01910574
#	Creating user name:	WinNT
#	Creation time:	15. 06. 2019 19:56

#	Modifying user name:	WinNT
#	Modification time:	15. 06. 2019 19:56

#	Program:	/corina/corina34_cracker 3.40 0067  02.08.2006

@<TRIPOS>MOLECULE
ASD01910574
  42   45    0    0    0
SMALL
NO_CHARGES


@<TRIPOS>ATOM
   1 O1             0.1415     0.6206    -0.2510 O.3     
   2 C2             0.2995    -0.7131    -0.2104 C.2     
   3 N3             1.6040    -0.9375    -0.1566 N.2     
   4 C4             2.1773     0.2750    -0.1671 C.2     
   5 N5             1.2269     1.1611    -0.2251 N.2     
   6 C6            -0.7662    -1.7249    -0.2225 C.2     
   7 C7            -2.1046    -1.4733    -0.2780 C.2     
   8 C8            -2.7627    -2.7255    -0.2689 C.2     
   9 C9            -1.7840    -3.6972    -0.2075 C.2     
  10 N10           -0.5830    -3.0883    -0.1858 N.pl3   
  11 C11            3.9764     1.3975     1.1222 C.3     
  12 C12            3.6565     0.5595    -0.1196 C.3     
  13 C13            4.0680     1.3348    -1.3733 C.3     
  14 C14            5.5757     1.5956    -1.3419 C.3     
  15 C15            5.9173     2.4454    -0.1139 C.3     
  16 N16            5.3958     1.7752     1.0850 N.am    
  17 C17            6.2042     1.5113     2.1307 C.2     
  18 C18            5.6406     0.9560     3.3783 C.ar    
  19 O19            7.3970     1.7303     2.0472 O.2     
  20 C20           -4.1772    -2.9440    -0.3147 C.1     
  21 C21            4.4256     1.4351     3.8855 C.ar    
  22 C22            3.9402     0.8828     5.0556 C.ar    
  23 C23            4.6647    -0.1190     5.6846 C.ar    
  24 N24            5.8086    -0.5502     5.1822 N.ar    
  25 C25            6.3071    -0.0581     4.0673 C.ar    
  26 F26            4.1941    -0.6619     6.8287 F       
  27 N27           -5.2993    -3.1173    -0.3510 N.1     
  28 H28           -2.5740    -0.5016    -0.3208 H       
  29 H29           -1.9525    -4.7637    -0.1851 H       
  30 H30            0.2749    -3.5391    -0.1439 H       
  31 H31            3.3592     2.2960     1.1256 H       
  32 H32            3.7775     0.8117     2.0196 H       
  33 H33            4.2069    -0.3803    -0.0760 H       
  34 H34            3.8188     0.7510    -2.2594 H       
  35 H35            3.5355     2.2854    -1.4034 H       
  36 H36            6.1081     0.6461    -1.2867 H       
  37 H37            5.8718     2.1274    -2.2461 H       
  38 H38            6.9991     2.5510    -0.0321 H       
  39 H39            5.4584     3.4293    -0.2113 H       
  40 H40            3.8822     2.2166     3.3751 H       
  41 H41            3.0070     1.2276     5.4759 H       
  42 H42            7.2447    -0.4364     3.6876 H       
@<TRIPOS>BOND
   1    1    2 1
   2    1    5 1
   3    2    3 2
   4    2    6 1
   5    3    4 1
   6    4    5 2
   7    4   12 1
   8    6    7 2
   9    6   10 1
  10    7    8 1
  11    7   28 1
  12    8    9 2
  13    8   20 1
  14    9   10 1
  15    9   29 1
  16   10   30 1
  17   11   12 1
  18   11   16 1
  19   11   31 1
  20   11   32 1
  21   12   13 1
  22   12   33 1
  23   13   14 1
  24   13   34 1
  25   13   35 1
  26   14   15 1
  27   14   36 1
  28   14   37 1
  29   15   16 1
  30   15   38 1
  31   15   39 1
  32   16   17 am
  33   17   18 1
  34   17   19 2
  35   18   21 ar
  36   18   25 ar
  37   20   27 3
  38   21   22 ar
  39   21   40 1
  40   22   23 ar
  41   22   41 1
  42   23   24 ar
  43   23   26 1
  44   24   25 ar
  45   25   42 1

#	End of record

