#	Name: ASD01870462
#	Creating user name:	WinNT
#	Creation time:	15. 06. 2019 19:39

#	Modifying user name:	WinNT
#	Modification time:	15. 06. 2019 19:39

#	Program:	/corina/corina34_cracker 3.40 0067  02.08.2006

@<TRIPOS>MOLECULE
ASD01870462
  43   46    0    0    0
SMALL
NO_CHARGES


@<TRIPOS>ATOM
   1 N1            -0.0031     1.3366     0.0767 N.ar    
   2 C2             0.0101     0.0176     0.1117 C.ar    
   3 C3             1.1995    -0.6799     0.0817 C.ar    
   4 C4             2.4025     0.0328     0.0127 C.ar    
   5 C5             2.3408     1.4310    -0.0229 C.ar    
   6 C6             1.1073     2.0467     0.0116 C.ar    
   7 C7             3.7019    -0.6714    -0.0211 C.2     
   8 N8             4.9066    -0.1449    -0.4220 N.pl3   
   9 C9             5.8136    -1.1518    -0.2842 C.2     
  10 N10            5.1677    -2.2001     0.1708 N.2     
  11 N11            3.9245    -1.9165     0.3315 N.2     
  12 C12            5.1620     1.2166    -0.8987 C.3     
  13 O13            7.1369    -1.0838    -0.5647 O.3     
  14 C14            7.9082    -2.2666    -0.3451 C.3     
  15 C15            9.0597    -2.3030    -1.3166 C.2     
  16 C16            8.4485    -2.2648     1.0863 C.3     
  17 N17           10.0608    -1.4711    -1.3689 N.2     
  18 O18           10.8341    -1.7505    -2.2553 O.3     
  19 C19           10.4340    -2.8423    -2.9312 C.2     
  20 C20            9.2671    -3.2477    -2.3427 C.2     
  21 C21           11.1198    -3.4795    -4.0754 C.ar    
  22 C22           12.3152    -2.9471    -4.5607 C.ar    
  23 C23           12.9508    -3.5474    -5.6293 C.ar    
  24 C24           12.4040    -4.6748    -6.2191 C.ar    
  25 C25           11.2196    -5.2065    -5.7420 C.ar    
  26 C26           10.5777    -4.6191    -4.6710 C.ar    
  27 Cl27          14.4378    -2.8874    -6.2351 Cl      
  28 H28           -0.9232    -0.5232     0.1648 H       
  29 H29            1.2028    -1.7595     0.1113 H       
  30 H30            3.2454     2.0185    -0.0761 H       
  31 H31            1.0492     3.1248    -0.0154 H       
  32 H32            5.3128     1.8780    -0.0455 H       
  33 H33            6.0548     1.2211    -1.5241 H       
  34 H34            4.3086     1.5638    -1.4812 H       
  35 H35            7.2787    -3.1438    -0.4948 H       
  36 H36            9.0779    -1.3876     1.2359 H       
  37 H37            7.6156    -2.2385     1.7890 H       
  38 H38            9.0367    -3.1670     1.2538 H       
  39 H39            8.6480    -4.0930    -2.6045 H       
  40 H40           12.7418    -2.0675    -4.1017 H       
  41 H41           12.9043    -5.1406    -7.0552 H       
  42 H42           10.7983    -6.0859    -6.2063 H       
  43 H43            9.6551    -5.0380    -4.2972 H       
@<TRIPOS>BOND
   1    1    2 ar
   2    1    6 ar
   3    2    3 ar
   4    2   28 1
   5    3    4 ar
   6    3   29 1
   7    4    5 ar
   8    4    7 1
   9    5    6 ar
  10    5   30 1
  11    6   31 1
  12    7    8 1
  13    7   11 2
  14    8    9 1
  15    8   12 1
  16    9   10 2
  17    9   13 1
  18   10   11 1
  19   12   32 1
  20   12   33 1
  21   12   34 1
  22   13   14 1
  23   14   15 1
  24   14   16 1
  25   14   35 1
  26   15   17 2
  27   15   20 1
  28   16   36 1
  29   16   37 1
  30   16   38 1
  31   17   18 1
  32   18   19 1
  33   19   20 2
  34   19   21 1
  35   20   39 1
  36   21   22 ar
  37   21   26 ar
  38   22   23 ar
  39   22   40 1
  40   23   24 ar
  41   23   27 1
  42   24   25 ar
  43   24   41 1
  44   25   26 ar
  45   25   42 1
  46   26   43 1

#	End of record

