#	Name: ASD03330301
#	Creating user name:	WinNT
#	Creation time:	15. 06. 2019 20:37

#	Modifying user name:	WinNT
#	Modification time:	15. 06. 2019 20:37

#	Program:	/corina/corina34_cracker 3.40 0067  02.08.2006

@<TRIPOS>MOLECULE
ASD03330301
  64   67    0    0    0
SMALL
NO_CHARGES


@<TRIPOS>ATOM
   1 C1            -0.0179     1.4655     0.0101 C.3     
   2 N2             0.0021    -0.0041     0.0020 N.3     
   3 C3             0.4494    -0.5231    -1.3031 C.3     
   4 C4             1.7237     0.1898    -1.6760 C.2     
   5 N5             2.1519     1.3316    -1.0766 N.pl3   
   6 C6             1.4184     2.0045    -0.0007 C.3     
   7 C7             2.6412    -0.1377    -2.6198 C.2     
   8 N8             3.6164     0.7992    -2.5865 N.2     
   9 C9             3.3274     1.6849    -1.6595 C.2     
  10 C10            4.1446     2.8676    -1.3094 C.ar    
  11 C11            5.1552     3.2999    -2.1686 C.ar    
  12 C12            2.5858    -1.3038    -3.5191 C.2     
  13 O13            1.6513    -2.0793    -3.4524 O.2     
  14 C14            3.5154    -2.6701    -5.3097 C.3     
  15 N15            3.5706    -1.5109    -4.4156 N.am    
  16 C16            2.6696    -2.3273    -6.5377 C.3     
  17 C17           -1.3129    -0.5504     0.3632 C.3     
  18 C18            5.9135     4.4038    -1.8366 C.ar    
  19 C19            5.6734     5.0815    -0.6547 C.ar    
  20 C20            4.6727     4.6578     0.2015 C.ar    
  21 C21            3.9040     3.5585    -0.1215 C.ar    
  22 C22            3.2983    -1.1435    -7.2756 C.3     
  23 C23            2.6120    -3.5379    -7.4714 C.3     
  24 C24            1.2528    -1.9575    -6.0940 C.3     
  25 C25           -2.3756     0.0099    -0.5842 C.3     
  26 C26            4.9109    -3.0343    -5.7466 C.2     
  27 O27            5.8610    -2.1905    -6.1607 O.3     
  28 C28           -1.2804    -2.0757     0.2484 C.3     
  29 N29            6.8676    -2.8084    -6.4372 N.2     
  30 C30            6.6841    -4.0793    -6.2383 C.2     
  31 N31            5.4269    -4.2391    -5.7878 N.2     
  32 C32            7.6959    -5.1728    -6.4655 C.3     
  33 H33           -0.5467     1.8255    -0.8724 H       
  34 H34           -0.5297     1.8160     0.9063 H       
  35 H35            0.6347    -1.5947    -1.2296 H       
  36 H36           -0.3141    -0.3315    -2.0571 H       
  37 H37            1.4064     3.0795    -0.1803 H       
  38 H38            1.8965     1.7963     0.9564 H       
  39 H39            5.3438     2.7714    -3.0914 H       
  40 H40            3.0676    -3.5134    -4.7840 H       
  41 H41            4.3159    -0.8923    -4.4688 H       
  42 H42           -1.5545    -0.2682     1.3879 H       
  43 H43            6.6963     4.7393    -2.5007 H       
  44 H44            6.2699     5.9449    -0.3992 H       
  45 H45            4.4902     5.1911     1.1228 H       
  46 H46            3.1231     3.2287     0.5477 H       
  47 H47            4.3076    -1.4070    -7.5916 H       
  48 H48            2.6957    -0.8993    -8.1504 H       
  49 H49            3.3393    -0.2810    -6.6104 H       
  50 H50            2.1642    -4.3812    -6.9457 H       
  51 H51            2.0095    -3.2937    -8.3463 H       
  52 H52            3.6214    -3.8014    -7.7875 H       
  53 H53            1.2939    -1.0950    -5.4288 H       
  54 H54            0.6503    -1.7133    -6.9689 H       
  55 H55            0.8050    -2.8008    -5.5683 H       
  56 H56           -2.3987     1.0965    -0.5024 H       
  57 H57           -2.1339    -0.2723    -1.6089 H       
  58 H58           -3.3513    -0.3955    -0.3162 H       
  59 H59           -0.5233    -2.4749     0.9234 H       
  60 H60           -2.2561    -2.4811     0.5164 H       
  61 H61           -1.0387    -2.3579    -0.7763 H       
  62 H62            8.2691    -5.3329    -5.5523 H       
  63 H63            7.1804    -6.0941    -6.7371 H       
  64 H64            8.3699    -4.8825    -7.2714 H       
@<TRIPOS>BOND
   1    1    2 1
   2    1    6 1
   3    1   33 1
   4    1   34 1
   5    2    3 1
   6    2   17 1
   7    3    4 1
   8    3   35 1
   9    3   36 1
  10    4    5 1
  11    4    7 2
  12    5    6 1
  13    5    9 1
  14    6   37 1
  15    6   38 1
  16    7    8 1
  17    7   12 1
  18    8    9 2
  19    9   10 1
  20   10   11 ar
  21   10   21 ar
  22   11   18 ar
  23   11   39 1
  24   12   13 2
  25   12   15 am
  26   14   15 1
  27   14   26 1
  28   14   16 1
  29   14   40 1
  30   15   41 1
  31   16   22 1
  32   16   23 1
  33   16   24 1
  34   17   25 1
  35   17   28 1
  36   17   42 1
  37   18   19 ar
  38   18   43 1
  39   19   20 ar
  40   19   44 1
  41   20   21 ar
  42   20   45 1
  43   21   46 1
  44   22   47 1
  45   22   48 1
  46   22   49 1
  47   23   50 1
  48   23   51 1
  49   23   52 1
  50   24   53 1
  51   24   54 1
  52   24   55 1
  53   25   56 1
  54   25   57 1
  55   25   58 1
  56   26   27 1
  57   26   31 2
  58   27   29 1
  59   28   59 1
  60   28   60 1
  61   28   61 1
  62   29   30 2
  63   30   31 1
  64   30   32 1
  65   32   62 1
  66   32   63 1
  67   32   64 1

#	End of record

