#	Name: ASD01903341
#	Creating user name:	WinNT
#	Creation time:	15. 06. 2019 19:54

#	Modifying user name:	WinNT
#	Modification time:	15. 06. 2019 19:54

#	Program:	/corina/corina34_cracker 3.40 0067  02.08.2006

@<TRIPOS>MOLECULE
ASD01903341
  38   41    0    0    0
SMALL
NO_CHARGES


@<TRIPOS>ATOM
   1 C1            -0.0225     1.3670     0.1890 C.ar    
   2 C2             0.0109    -0.0068     0.3043 C.ar    
   3 C3             1.2073    -0.6991     0.1548 C.ar    
   4 C4             2.3665    -0.0070    -0.1108 C.ar    
   5 C5             2.3302     1.3780    -0.2270 C.ar    
   6 C6             1.1423     2.0625    -0.0778 C.ar    
   7 S7             1.5176    -2.4325     0.2536 S.o2    
   8 N8             3.1426    -2.6377    -0.0146 N.am    
   9 S9             3.7376    -1.1071    -0.2549 S.o2    
  10 O10            4.1619    -1.0474    -1.6098 O.2     
  11 O11            4.5943    -0.8301     0.8443 O.2     
  12 O12            1.2809    -2.8084     1.6033 O.2     
  13 O13            0.8485    -3.0257    -0.8508 O.2     
  14 C14            3.8565    -3.8407    -0.0335 C.ar    
  15 C15            5.2242    -3.8329    -0.2753 C.ar    
  16 C16            5.9287    -5.0200    -0.2934 C.ar    
  17 C17            5.2699    -6.2220    -0.0699 C.ar    
  18 C18            3.9023    -6.2299     0.1714 C.ar    
  19 C19            3.1986    -5.0423     0.1952 C.ar    
  20 N20            5.9847    -7.4261    -0.0884 N.am    
  21 C21            5.4119    -8.5422    -0.5811 C.2     
  22 C22            6.1961    -9.7829    -0.6955 C.2     
  23 O23            4.2471    -8.5244    -0.9312 O.2     
  24 S24            5.5976   -11.3186    -1.3156 S.3     
  25 C25            7.1296   -12.0326    -1.0518 C.2     
  26 C26            7.9600   -11.1125    -0.5364 C.2     
  27 N27            7.4499    -9.9221    -0.3589 N.2     
  28 H28           -0.9563     1.8976     0.3023 H       
  29 H29           -0.8995    -0.5492     0.5127 H       
  30 H30            3.2395     1.9222    -0.4354 H       
  31 H31            1.1218     3.1384    -0.1698 H       
  32 H32            5.7365    -2.8982    -0.4494 H       
  33 H33            6.9922    -5.0139    -0.4817 H       
  34 H34            3.3900    -7.1647     0.3448 H       
  35 H35            2.1351    -5.0485     0.3829 H       
  36 H36            6.8919    -7.4569     0.2535 H       
  37 H37            7.3874   -13.0594    -1.2655 H       
  38 H38            8.9860   -11.3403    -0.2880 H       
@<TRIPOS>BOND
   1    1    2 ar
   2    1    6 ar
   3    1   28 1
   4    2    3 ar
   5    2   29 1
   6    3    4 ar
   7    3    7 1
   8    4    5 ar
   9    4    9 1
  10    5    6 ar
  11    5   30 1
  12    6   31 1
  13    7    8 am
  14    7   12 2
  15    7   13 2
  16    8    9 am
  17    8   14 1
  18    9   10 2
  19    9   11 2
  20   14   15 ar
  21   14   19 ar
  22   15   16 ar
  23   15   32 1
  24   16   17 ar
  25   16   33 1
  26   17   18 ar
  27   17   20 1
  28   18   19 ar
  29   18   34 1
  30   19   35 1
  31   20   21 am
  32   20   36 1
  33   21   22 1
  34   21   23 2
  35   22   24 1
  36   22   27 2
  37   24   25 1
  38   25   26 2
  39   25   37 1
  40   26   27 1
  41   26   38 1

#	End of record

