#	Name: ASD05842003
#	Creating user name:	WinNT
#	Creation time:	15. 06. 2019 21:03

#	Modifying user name:	WinNT
#	Modification time:	15. 06. 2019 21:03

#	Program:	/corina/corina34_cracker 3.40 0067  02.08.2006

@<TRIPOS>MOLECULE
ASD05842003
  77   81    0    0    0
SMALL
NO_CHARGES


@<TRIPOS>ATOM
   1 N1             1.2671    -0.4800     0.5322 N.am    
   2 C2             1.2411    -1.7962     0.2434 C.2     
   3 O3             2.2586    -2.3618    -0.1073 O.2     
   4 N4             0.0872    -2.4854     0.3435 N.am    
   5 C5             2.5213     0.2692     0.4235 C.3     
   6 N6            -2.0479    -3.7794    -2.0855 N.3     
   7 C7            -2.3877    -3.6606    -0.6618 C.3     
   8 C8            -1.3718    -4.4431     0.1734 C.3     
   9 C9             0.0309    -3.8855    -0.0840 C.3     
  10 C10            0.3410    -3.9765    -1.5807 C.3     
  11 C11           -0.7246    -3.2075    -2.3651 C.3     
  12 C12            1.0426    -4.6898     0.6910 C.ar    
  13 C13            1.4565    -4.2619     1.9386 C.ar    
  14 C14            2.3846    -4.9997     2.6495 C.ar    
  15 C15            2.8984    -6.1654     2.1130 C.ar    
  16 C16            2.4838    -6.5938     0.8658 C.ar    
  17 C17            1.5525    -5.8583     0.1568 C.ar    
  18 C18           -3.0789    -3.1566    -2.9265 C.3     
  19 C19           -2.5793    -3.0766    -4.3705 C.3     
  20 N20           -3.0520    -3.7152    -7.2263 N.am    
  21 C21           -3.1535    -2.3473    -6.6934 C.3     
  22 C22           -3.6531    -2.4280    -5.2464 C.3     
  23 O23           -4.8449    -3.2163    -5.2032 O.3     
  24 C24           -4.6639    -4.5739    -5.6130 C.3     
  25 C25           -4.2161    -4.6031    -7.0788 C.3     
  26 C26           -3.9486    -1.0405    -4.7378 C.ar    
  27 C27           -5.2110    -0.5002    -4.8991 C.ar    
  28 C28           -5.4831     0.7736    -4.4324 C.ar    
  29 C29           -4.4884     1.5072    -3.8030 C.ar    
  30 C30           -3.2261     0.9636    -3.6431 C.ar    
  31 C31           -2.9590    -0.3117    -4.1055 C.ar    
  32 F32           -4.7517     2.7513    -3.3469 F       
  33 F33           -6.7162     1.3025    -4.5901 F       
  34 C34           -1.9279    -4.1404    -7.8363 C.2     
  35 C35           -0.7415    -3.2602    -7.8970 C.ar    
  36 C36            0.5365    -3.7935    -7.7225 C.ar    
  37 C37            1.6394    -2.9668    -7.7807 C.ar    
  38 C38            1.4807    -1.6118    -8.0111 C.ar    
  39 C39            0.2166    -1.0768    -8.1849 C.ar    
  40 C40           -0.8942    -1.8934    -8.1348 C.ar    
  41 O41           -1.8895    -5.2475    -8.3367 O.2     
  42 H42            0.4544    -0.0279     0.8081 H       
  43 H43           -0.7059    -2.0544     0.6985 H       
  44 H44            3.2620    -0.1627     1.0965 H       
  45 H45            2.8879     0.2172    -0.6017 H       
  46 H46            2.3473     1.3105     0.6948 H       
  47 H47           -2.3663    -2.6107    -0.3697 H       
  48 H48           -3.3857    -4.0644    -0.4917 H       
  49 H49           -1.6152    -4.3418     1.2311 H       
  50 H50           -1.4024    -5.4955    -0.1085 H       
  51 H51            1.3213    -3.5418    -1.7763 H       
  52 H52            0.3373    -5.0216    -1.8903 H       
  53 H53           -0.5147    -3.2823    -3.4321 H       
  54 H54           -0.7109    -2.1597    -2.0650 H       
  55 H55            1.0551    -3.3511     2.3578 H       
  56 H56            2.7085    -4.6650     3.6240 H       
  57 H57            3.6240    -6.7414     2.6681 H       
  58 H58            2.8854    -7.5044     0.4465 H       
  59 H59            1.2258    -6.1949    -0.8161 H       
  60 H60           -3.9887    -3.7558    -2.8895 H       
  61 H61           -3.2899    -2.1524    -2.5589 H       
  62 H62           -1.6695    -2.4774    -4.4075 H       
  63 H63           -2.3683    -4.0808    -4.7381 H       
  64 H64           -2.1738    -1.8702    -6.7175 H       
  65 H65           -3.8579    -1.7710    -7.2933 H       
  66 H66           -3.9026    -5.0438    -4.9903 H       
  67 H67           -5.6048    -5.1142    -5.5090 H       
  68 H68           -5.0274    -4.2539    -7.7176 H       
  69 H69           -3.9399    -5.6199    -7.3581 H       
  70 H70           -5.9845    -1.0723    -5.3897 H       
  71 H71           -2.4506     1.5339    -3.1535 H       
  72 H72           -1.9747    -0.7372    -3.9765 H       
  73 H73            0.6617    -4.8509    -7.5419 H       
  74 H74            2.6288    -3.3781    -7.6459 H       
  75 H75            2.3473    -0.9688    -8.0550 H       
  76 H76            0.0995    -0.0183    -8.3644 H       
  77 H77           -1.8801    -1.4753    -8.2750 H       
@<TRIPOS>BOND
   1    1    2 am
   2    1    5 1
   3    1   42 1
   4    2    3 2
   5    2    4 am
   6    4    9 1
   7    4   43 1
   8    5   44 1
   9    5   45 1
  10    5   46 1
  11    6    7 1
  12    6   11 1
  13    6   18 1
  14    7    8 1
  15    7   47 1
  16    7   48 1
  17    8    9 1
  18    8   49 1
  19    8   50 1
  20    9   10 1
  21    9   12 1
  22   10   11 1
  23   10   51 1
  24   10   52 1
  25   11   53 1
  26   11   54 1
  27   12   13 ar
  28   12   17 ar
  29   13   14 ar
  30   13   55 1
  31   14   15 ar
  32   14   56 1
  33   15   16 ar
  34   15   57 1
  35   16   17 ar
  36   16   58 1
  37   17   59 1
  38   18   19 1
  39   18   60 1
  40   18   61 1
  41   19   22 1
  42   19   62 1
  43   19   63 1
  44   20   21 1
  45   20   25 1
  46   20   34 am
  47   21   22 1
  48   21   64 1
  49   21   65 1
  50   22   23 1
  51   22   26 1
  52   23   24 1
  53   24   25 1
  54   24   66 1
  55   24   67 1
  56   25   68 1
  57   25   69 1
  58   26   27 ar
  59   26   31 ar
  60   27   28 ar
  61   27   70 1
  62   28   29 ar
  63   28   33 1
  64   29   30 ar
  65   29   32 1
  66   30   31 ar
  67   30   71 1
  68   31   72 1
  69   34   35 1
  70   34   41 2
  71   35   36 ar
  72   35   40 ar
  73   36   37 ar
  74   36   73 1
  75   37   38 ar
  76   37   74 1
  77   38   39 ar
  78   38   75 1
  79   39   40 ar
  80   39   76 1
  81   40   77 1

#	End of record

