#	Name: ASD01911674
#	Creating user name:	WinNT
#	Creation time:	15. 06. 2019 19:58

#	Modifying user name:	WinNT
#	Modification time:	15. 06. 2019 19:58

#	Program:	/corina/corina34_cracker 3.40 0067  02.08.2006

@<TRIPOS>MOLECULE
ASD01911674
  39   42    0    0    0
SMALL
NO_CHARGES


@<TRIPOS>ATOM
   1 N1            -0.0098     1.3408     0.0894 N.am    
   2 C2             0.0021    -0.0041     0.0020 C.2     
   3 C3             1.2745    -0.7186    -0.1245 C.2     
   4 C4             1.4468    -2.0747    -0.0500 C.2     
   5 S5             2.8516     0.0160    -0.4072 S.3     
   6 C6             3.5961    -1.5801    -0.3909 C.2     
   7 N7             2.6738    -2.4890    -0.1928 N.2     
   8 C8             4.9920    -1.8436    -0.5715 C.1     
   9 C9             6.1364    -2.0597    -0.7195 C.1     
  10 C10            7.5324    -2.3233    -0.9000 C.ar    
  11 C11            8.0094    -3.6372    -0.8670 C.ar    
  12 C12            9.3550    -3.8829    -1.0417 C.ar    
  13 C13           10.2326    -2.8330    -1.2487 C.ar    
  14 C14            9.7681    -1.5298    -1.2826 C.ar    
  15 C15            8.4244    -1.2684    -1.1158 C.ar    
  16 O16           -1.0447    -0.6250     0.0283 O.2     
  17 C17           -1.2151     2.0610     0.0513 C.ar    
  18 C18           -1.2310     3.4016     0.4267 C.ar    
  19 O19           -0.0915     4.0263     0.8247 O.3     
  20 C20            0.9958     3.2103     1.2669 C.3     
  21 C21            1.2404     2.1062     0.2344 C.3     
  22 C22           -2.3838     1.4384    -0.3582 C.ar    
  23 C23           -3.5683     2.1507    -0.3914 C.ar    
  24 C24           -3.5870     3.4816    -0.0166 C.ar    
  25 C25           -2.4243     4.1075     0.3916 C.ar    
  26 H26            0.6234    -2.7536     0.1160 H       
  27 H27            7.3258    -4.4574    -0.7049 H       
  28 H28            9.7250    -4.8972    -1.0165 H       
  29 H29           11.2855    -3.0317    -1.3841 H       
  30 H30           10.4591    -0.7157    -1.4443 H       
  31 H31            8.0634    -0.2509    -1.1425 H       
  32 H32            1.8927     3.8211     1.3696 H       
  33 H33            0.7468     2.7592     2.2275 H       
  34 H34            2.0409     1.4504     0.5767 H       
  35 H35            1.5088     2.5494    -0.7246 H       
  36 H36           -2.3691     0.3990    -0.6511 H       
  37 H37           -4.4797     1.6673    -0.7108 H       
  38 H38           -4.5144     4.0345    -0.0431 H       
  39 H39           -2.4451     5.1472     0.6833 H       
@<TRIPOS>BOND
   1    1    2 am
   2    1   17 1
   3    1   21 1
   4    2    3 1
   5    2   16 2
   6    3    4 2
   7    3    5 1
   8    4    7 1
   9    4   26 1
  10    5    6 1
  11    6    7 2
  12    6    8 1
  13    8    9 3
  14    9   10 1
  15   10   11 ar
  16   10   15 ar
  17   11   12 ar
  18   11   27 1
  19   12   13 ar
  20   12   28 1
  21   13   14 ar
  22   13   29 1
  23   14   15 ar
  24   14   30 1
  25   15   31 1
  26   17   18 ar
  27   17   22 ar
  28   18   19 1
  29   18   25 ar
  30   19   20 1
  31   20   21 1
  32   20   32 1
  33   20   33 1
  34   21   34 1
  35   21   35 1
  36   22   23 ar
  37   22   36 1
  38   23   24 ar
  39   23   37 1
  40   24   25 ar
  41   24   38 1
  42   25   39 1

#	End of record

