#	Name: ASD07130001
#	Creating user name:	WinNT
#	Creation time:	15. 06. 2019 21:09

#	Modifying user name:	WinNT
#	Modification time:	15. 06. 2019 21:09

#	Program:	/corina/corina34_cracker 3.40 0067  02.08.2006

@<TRIPOS>MOLECULE
ASD07130001
  92   91    0    0    0
SMALL
NO_CHARGES


@<TRIPOS>ATOM
   1 C1             3.9167    -9.3185    -4.0955 C.3     
   2 C2             5.3617    -9.8197    -4.0528 C.3     
   3 C3             5.8818    -9.7544    -2.6155 C.3     
   4 C4             7.3268   -10.2556    -2.5728 C.3     
   5 C5             7.8881   -10.0740    -1.1611 C.3     
   6 C6             7.1356   -10.9876    -0.1916 C.3     
   7 C7             9.3747   -10.4357    -1.1529 C.3     
   8 C8            10.1489    -9.4306    -2.0081 C.3     
   9 N9             7.5901   -10.7278     1.1767 N.2     
  10 C10            6.7623   -10.2217     2.0569 C.2     
  11 N11            7.1428   -10.0930     3.3441 N.2     
  12 N12            5.5007    -9.8203     1.6667 N.pl3   
  13 C13            8.1473    -9.2972     3.6587 C.2     
  14 N14            8.4801    -9.1026     4.9700 N.pl3   
  15 N15            8.8550    -8.6677     2.6733 N.pl3   
  16 C16            9.5954    -8.2191     5.3193 C.3     
  17 C17            9.7552    -8.1766     6.8404 C.3     
  18 C18           10.9199    -7.2539     7.2052 C.3     
  19 C19           11.0798    -7.2114     8.7262 C.3     
  20 C20           12.3180    -6.3879     9.0860 C.3     
  21 C21           12.4097    -6.2426    10.6063 C.3     
  22 N22           13.5269    -5.3578    10.9458 N.pl3   
  23 C23           13.8648    -5.1550    12.2546 C.2     
  24 N24           13.2291    -5.8558    13.2410 N.pl3   
  25 N25           14.8048    -4.2828    12.5658 N.2     
  26 C26           15.4048    -3.5634    11.5960 C.2     
  27 N27           14.7319    -2.6419    10.9524 N.2     
  28 N28           16.7281    -3.7980    11.2812 N.pl3   
  29 C29           13.3784    -2.2863    11.3858 C.3     
  30 C30           13.3546    -0.8242    11.8358 C.3     
  31 C31           13.6874     0.0806    10.6477 C.3     
  32 C32           11.9626    -0.4767    12.3673 C.3     
  33 C33           13.8097     1.5282    11.1276 C.3     
  34 C34           11.6832    -1.2881    13.6340 C.3     
  35 C35           10.2541    -1.0168    14.1085 C.3     
  36 C36           10.0147    -1.7310    15.4402 C.3     
  37 H37            3.8789    -8.2882    -3.7419 H       
  38 H38            3.5461    -9.3650    -5.1196 H       
  39 H39            3.2957    -9.9453    -3.4556 H       
  40 H40            5.3994   -10.8500    -4.4065 H       
  41 H41            5.9827    -9.1929    -4.6928 H       
  42 H42            5.8441    -8.7241    -2.2618 H       
  43 H43            5.2608   -10.3812    -1.9755 H       
  44 H44            7.3531   -11.3118    -2.8412 H       
  45 H45            7.9300    -9.6860    -3.2797 H       
  46 H46            7.7650    -9.0361    -0.8519 H       
  47 H47            6.0659   -10.7904    -0.2627 H       
  48 H48            7.3309   -12.0289    -0.4478 H       
  49 H49            9.7499   -10.4074    -0.1299 H       
  50 H50            9.5070   -11.4378    -1.5608 H       
  51 H51           11.1964    -9.7276    -2.0589 H       
  52 H52            9.7282    -9.4089    -3.0134 H       
  53 H53           10.0736    -8.4393    -1.5611 H       
  54 H54            5.2022    -9.9752     0.7569 H       
  55 H55            4.9126    -9.3833     2.3024 H       
  56 H56            7.9779    -9.5494     5.6693 H       
  57 H57            8.5692    -8.7400     1.7492 H       
  58 H58            9.6429    -8.1485     2.8981 H       
  59 H59           10.5130    -8.5965     4.8680 H       
  60 H60            9.3937    -7.2148     4.9470 H       
  61 H61            8.8376    -7.7992     7.2917 H       
  62 H62            9.9569    -9.1810     7.2127 H       
  63 H63           11.8375    -7.6313     6.7538 H       
  64 H64           10.7182    -6.2496     6.8328 H       
  65 H65           10.1967    -6.7533     9.1717 H       
  66 H66           11.1946    -8.2259     9.1080 H       
  67 H67           13.2102    -6.8922     8.7148 H       
  68 H68           12.2427    -5.4005     8.6305 H       
  69 H69           11.4810    -5.8177    10.9874 H       
  70 H70           12.5725    -7.2221    11.0558 H       
  71 H71           14.0268    -4.9158    10.2418 H       
  72 H72           12.5382    -6.4970    13.0122 H       
  73 H73           13.4689    -5.7119    14.1698 H       
  74 H74           17.2264    -4.4804    11.7577 H       
  75 H75           17.1598    -3.2806    10.5835 H       
  76 H76           12.6839    -2.4227    10.5569 H       
  77 H77           13.0829    -2.9270    12.2166 H       
  78 H78           14.0923    -0.6746    12.6242 H       
  79 H79           14.6310    -0.2358    10.2032 H       
  80 H80           12.8937     0.0102     9.9039 H       
  81 H81           11.9177     0.5872    12.6000 H       
  82 H82           11.2150    -0.7150    11.6108 H       
  83 H83           12.8390     1.8776    11.4794 H       
  84 H84           14.5319     1.5812    11.9422 H       
  85 H85           14.1453     2.1572    10.3031 H       
  86 H86           11.7988    -2.3502    13.4180 H       
  87 H87           12.3865    -0.9974    14.4143 H       
  88 H88           10.1128     0.0559    14.2410 H       
  89 H89            9.5480    -1.3872    13.3654 H       
  90 H90           10.1560    -2.8037    15.3077 H       
  91 H91           10.7208    -1.3606    16.1833 H       
  92 H92            8.9966    -1.5377    15.7783 H       
@<TRIPOS>BOND
   1    1    2 1
   2    1   37 1
   3    1   38 1
   4    1   39 1
   5    2    3 1
   6    2   40 1
   7    2   41 1
   8    3    4 1
   9    3   42 1
  10    3   43 1
  11    4    5 1
  12    4   44 1
  13    4   45 1
  14    5    6 1
  15    5    7 1
  16    5   46 1
  17    6    9 1
  18    6   47 1
  19    6   48 1
  20    7    8 1
  21    7   49 1
  22    7   50 1
  23    8   51 1
  24    8   52 1
  25    8   53 1
  26    9   10 2
  27   10   11 1
  28   10   12 1
  29   11   13 2
  30   12   54 1
  31   12   55 1
  32   13   14 1
  33   13   15 1
  34   14   16 1
  35   14   56 1
  36   15   57 1
  37   15   58 1
  38   16   17 1
  39   16   59 1
  40   16   60 1
  41   17   18 1
  42   17   61 1
  43   17   62 1
  44   18   19 1
  45   18   63 1
  46   18   64 1
  47   19   20 1
  48   19   65 1
  49   19   66 1
  50   20   21 1
  51   20   67 1
  52   20   68 1
  53   21   22 1
  54   21   69 1
  55   21   70 1
  56   22   23 1
  57   22   71 1
  58   23   24 1
  59   23   25 2
  60   24   72 1
  61   24   73 1
  62   25   26 1
  63   26   27 2
  64   26   28 1
  65   27   29 1
  66   28   74 1
  67   28   75 1
  68   29   30 1
  69   29   76 1
  70   29   77 1
  71   30   31 1
  72   30   32 1
  73   30   78 1
  74   31   33 1
  75   31   79 1
  76   31   80 1
  77   32   34 1
  78   32   81 1
  79   32   82 1
  80   33   83 1
  81   33   84 1
  82   33   85 1
  83   34   35 1
  84   34   86 1
  85   34   87 1
  86   35   36 1
  87   35   88 1
  88   35   89 1
  89   36   90 1
  90   36   91 1
  91   36   92 1

#	End of record

