#	Name: ASD09116206
#	Creating user name:	WinNT
#	Creation time:	15. 06. 2019 21:21

#	Modifying user name:	WinNT
#	Modification time:	15. 06. 2019 21:21

#	Program:	/corina/corina34_cracker 3.40 0067  02.08.2006

@<TRIPOS>MOLECULE
ASD09116206
  61   66    0    0    0
SMALL
NO_CHARGES


@<TRIPOS>ATOM
   1 N1            -0.0289     1.4171     0.1386 N.2     
   2 N2            -0.0196     0.0176     0.2528 N.pl3   
   3 C3             1.2229     1.8071     0.1098 C.2     
   4 N4             2.0165     0.7333     0.1994 N.2     
   5 C5             1.2815    -0.3547     0.2864 C.2     
   6 N6             1.6572     3.1283     0.0023 N.pl3   
   7 C7             3.0215     3.4264     0.0966 C.ar    
   8 C8             3.5351     4.5177    -0.5793 C.ar    
   9 C9             5.7298     3.9968     0.3005 C.ar    
  10 C10            5.1982     2.9082     0.9778 C.ar    
  11 C11            3.8536     2.6251     0.8760 C.ar    
  12 C12           -1.1319    -0.8235     0.3192 C.ar    
  13 N13           -1.0303    -2.0876    -0.0634 N.ar    
  14 N14           -2.0257    -2.9004    -0.0317 N.ar    
  15 C15           -3.2210    -2.5174     0.3877 C.ar    
  16 C16           -3.4176    -1.2065     0.8313 C.ar    
  17 C17           -2.3510    -0.3334     0.7944 C.ar    
  18 C18           -4.3826    -3.4365     0.3743 C.ar    
  19 C19           -5.5798    -3.0023    -0.1968 C.ar    
  20 C20           -5.6433    -1.6398    -0.8309 C.3     
  21 C21           -5.7412    -0.5395     0.2223 C.3     
  22 C22           -4.7592    -0.7935     1.3628 C.3     
  23 C23           -4.2953    -4.7116     0.9221 C.ar    
  24 C24           -5.4035    -5.5363     0.9145 C.ar    
  25 C25           -6.5940    -5.0946     0.3662 C.ar    
  26 C26           -6.6826    -3.8291    -0.1877 C.ar    
  27 N27            1.7544    -1.6487     0.3932 N.pl3   
  28 C28            4.8971     4.8133    -0.4832 C.ar    
  29 N29            5.6818     5.7874    -1.0120 N.2     
  30 C30            6.9098     5.6251    -0.6136 C.2     
  31 N31            6.9985     4.5371     0.1975 N.pl3   
  32 C32            8.0657     6.5131    -0.9961 C.3     
  33 N33            8.6171     6.0716    -2.2841 N.3     
  34 C34            9.5845     7.0468    -2.8047 C.3     
  35 C35            9.2238     4.7387    -2.1680 C.3     
  36 H36            1.0137     3.8405    -0.1378 H       
  37 H37            2.8863     5.1386    -1.1793 H       
  38 H38            5.8386     2.2810     1.5801 H       
  39 H39            3.4421     1.7772     1.4035 H       
  40 H40           -2.4562     0.6932     1.1129 H       
  41 H41           -4.7454    -1.4825    -1.4285 H       
  42 H42           -6.5165    -1.5896    -1.4814 H       
  43 H43           -5.5136     0.4210    -0.2400 H       
  44 H44           -6.7554    -0.5137     0.6210 H       
  45 H45           -5.1501    -1.5845     2.0029 H       
  46 H46           -4.6472     0.1185     1.9491 H       
  47 H47           -3.3657    -5.0555     1.3511 H       
  48 H48           -5.3401    -6.5282     1.3371 H       
  49 H49           -7.4595    -5.7405     0.3707 H       
  50 H50           -7.6157    -3.4897    -0.6127 H       
  51 H51            2.7097    -1.8163     0.4088 H       
  52 H52            1.1310    -2.3896     0.4525 H       
  53 H53            7.8026     4.2021     0.6243 H       
  54 H54            7.7195     7.5430    -1.0829 H       
  55 H55            8.8389     6.4530    -0.2302 H       
  56 H56           10.4035     7.1607    -2.0946 H       
  57 H57            9.9771     6.6952    -3.7588 H       
  58 H58            9.0907     8.0080    -2.9470 H       
  59 H59            8.4677     4.0220    -1.8474 H       
  60 H60            9.6240     4.4361    -3.1356 H       
  61 H61           10.0297     4.7690    -1.4348 H       
@<TRIPOS>BOND
   1    1    2 1
   2    1    3 2
   3    2   12 1
   4    2    5 1
   5    3    4 1
   6    3    6 1
   7    4    5 2
   8    5   27 1
   9    6    7 1
  10    6   36 1
  11    7    8 ar
  12    7   11 ar
  13    8   28 ar
  14    8   37 1
  15    9   10 ar
  16    9   28 ar
  17    9   31 1
  18   10   11 ar
  19   10   38 1
  20   11   39 1
  21   12   13 ar
  22   12   17 ar
  23   13   14 ar
  24   14   15 ar
  25   15   16 ar
  26   15   18 1
  27   16   17 ar
  28   16   22 1
  29   17   40 1
  30   18   19 ar
  31   18   23 ar
  32   19   20 1
  33   19   26 ar
  34   20   21 1
  35   20   41 1
  36   20   42 1
  37   21   22 1
  38   21   43 1
  39   21   44 1
  40   22   45 1
  41   22   46 1
  42   23   24 ar
  43   23   47 1
  44   24   25 ar
  45   24   48 1
  46   25   26 ar
  47   25   49 1
  48   26   50 1
  49   27   51 1
  50   27   52 1
  51   28   29 1
  52   29   30 2
  53   30   31 1
  54   30   32 1
  55   31   53 1
  56   32   33 1
  57   32   54 1
  58   32   55 1
  59   33   34 1
  60   33   35 1
  61   34   56 1
  62   34   57 1
  63   34   58 1
  64   35   59 1
  65   35   60 1
  66   35   61 1

#	End of record

