#	Name: ASD01811700
#	Creating user name:	WinNT
#	Creation time:	15. 06. 2019 19:27

#	Modifying user name:	WinNT
#	Modification time:	15. 06. 2019 19:27

#	Program:	/corina/corina34_cracker 3.40 0067  02.08.2006

@<TRIPOS>MOLECULE
ASD01811700
  62   66    0    0    0
SMALL
NO_CHARGES


@<TRIPOS>ATOM
   1 C1            -0.0167     1.3805     0.0096 C.ar    
   2 C2             0.0021    -0.0041     0.0020 C.ar    
   3 C3            -1.1845    -0.7161     0.0090 C.ar    
   4 C4            -2.3942    -0.0535     0.0241 C.ar    
   5 C5            -2.4213     1.3425     0.0323 C.ar    
   6 C6            -1.2177     2.0512     0.0304 C.ar    
   7 C7             1.2777     2.1522     0.0014 C.3     
   8 C8             1.3184    -0.7376    -0.0144 C.3     
   9 C9            -1.1549    -2.2228    -0.0004 C.3     
  10 C10           -1.0078    -2.7311     1.4107 C.ar    
  11 C11           -2.1317    -2.9915     2.1822 C.ar    
  12 C12           -1.9536    -3.4572     3.4731 C.ar    
  13 C13           -0.6588    -3.6476     3.9515 C.ar    
  14 N14            0.3897    -3.3862     3.1815 N.ar    
  15 C15            0.2476    -2.9478     1.9468 C.ar    
  16 C16           -0.4510    -4.1461     5.3329 C.2     
  17 C17           -1.4564    -4.5590     6.2297 C.2     
  18 N18           -0.8802    -4.9293     7.3421 N.2     
  19 N19            0.5035    -4.7693     7.2017 N.pl3   
  20 C20            0.7499    -4.2943     5.9653 C.2     
  21 C21            1.5107    -5.0716     8.2217 C.3     
  22 C22           -3.5309     2.3149     0.0477 C.2     
  23 N23           -3.0504     3.5703     0.0501 N.am    
  24 C24           -1.5841     3.5142     0.0402 C.3     
  25 O25           -4.7107     2.0226     0.0563 O.2     
  26 C26           -3.8575     4.7928     0.0640 C.3     
  27 C27           -4.7285     4.8146     1.3217 C.3     
  28 C28           -5.5714     6.0914     1.3363 C.3     
  29 C29           -6.4661     6.1261     0.0956 C.3     
  30 C30           -5.5951     6.1043    -1.1620 C.3     
  31 C31           -4.7522     4.8275    -1.1766 C.3     
  32 O32           -3.8929     4.7823     2.4805 O.3     
  33 H33           -3.3180    -0.6130     0.0291 H       
  34 H34            1.5800     2.3437    -1.0282 H       
  35 H35            1.1390     3.0999     0.5217 H       
  36 H36            2.0504     1.5710     0.5048 H       
  37 H37            1.6456    -0.9199     1.0092 H       
  38 H38            1.1977    -1.6891    -0.5323 H       
  39 H39            2.0641    -0.1342    -0.5322 H       
  40 H40           -2.0831    -2.6018    -0.4281 H       
  41 H41           -0.3118    -2.5659    -0.5999 H       
  42 H42           -3.1232    -2.8340     1.7841 H       
  43 H43           -2.8061    -3.6697     4.1011 H       
  44 H44            1.1242    -2.7459     1.3490 H       
  45 H45           -2.5182    -4.5674     6.0320 H       
  46 H46            1.7211    -4.0664     5.5515 H       
  47 H47            1.8354    -6.1067     8.1161 H       
  48 H48            2.3660    -4.4078     8.0957 H       
  49 H49            1.0799    -4.9252     9.2122 H       
  50 H50           -1.1849     3.9949     0.9333 H       
  51 H51           -1.1966     4.0028    -0.8538 H       
  52 H52           -3.2001     5.6623     0.0623 H       
  53 H53           -5.3859     3.9452     1.3235 H       
  54 H54           -6.1919     6.1069     2.2323 H       
  55 H55           -4.9140     6.9608     1.3345 H       
  56 H56           -7.1235     5.2566     0.0974 H       
  57 H57           -7.0666     7.0357     0.1060 H       
  58 H58           -6.2325     6.1290    -2.0459 H       
  59 H59           -4.9377     6.9737    -1.1638 H       
  60 H60           -4.1317     4.8120    -2.0726 H       
  61 H61           -5.4096     3.9581    -1.1749 H       
  62 H62           -4.3789     4.7937     3.3164 H       
@<TRIPOS>BOND
   1    1    2 ar
   2    1    7 1
   3    1    6 ar
   4    2    3 ar
   5    2    8 1
   6    3    4 ar
   7    3    9 1
   8    4    5 ar
   9    4   33 1
  10    5    6 ar
  11    5   22 1
  12    6   24 1
  13    7   34 1
  14    7   35 1
  15    7   36 1
  16    8   37 1
  17    8   38 1
  18    8   39 1
  19    9   10 1
  20    9   40 1
  21    9   41 1
  22   10   11 ar
  23   10   15 ar
  24   11   12 ar
  25   11   42 1
  26   12   13 ar
  27   12   43 1
  28   13   14 ar
  29   13   16 1
  30   14   15 ar
  31   15   44 1
  32   16   17 1
  33   16   20 2
  34   17   18 2
  35   17   45 1
  36   18   19 1
  37   19   20 1
  38   19   21 1
  39   20   46 1
  40   21   47 1
  41   21   48 1
  42   21   49 1
  43   22   23 am
  44   22   25 2
  45   23   24 1
  46   23   26 1
  47   24   50 1
  48   24   51 1
  49   26   27 1
  50   26   31 1
  51   26   52 1
  52   27   28 1
  53   27   32 1
  54   27   53 1
  55   28   29 1
  56   28   54 1
  57   28   55 1
  58   29   30 1
  59   29   56 1
  60   29   57 1
  61   30   31 1
  62   30   58 1
  63   30   59 1
  64   31   60 1
  65   31   61 1
  66   32   62 1

#	End of record

