#	Name: ASD01730079
#	Creating user name:	WinNT
#	Creation time:	15. 06. 2019 19:23

#	Modifying user name:	WinNT
#	Modification time:	15. 06. 2019 19:23

#	Program:	/corina/corina34_cracker 3.40 0067  02.08.2006

@<TRIPOS>MOLECULE
ASD01730079
  36   36    0    0    0
SMALL
NO_CHARGES


@<TRIPOS>ATOM
   1 C1            -0.1797     1.4966     0.6072 C.2     
   2 C2            -0.1487    -0.0098     0.5793 C.3     
   3 C3             1.1025    -0.5077     1.3057 C.3     
   4 C4            -1.3953    -0.5586     1.2762 C.3     
   5 C5            -0.1217    -0.4926    -0.8723 C.3     
   6 O6             0.7113     2.1115     1.1542 O.2     
   7 N7            -1.1946     2.1607     0.0195 N.am    
   8 C8            -1.2684     3.5564     0.1176 C.ar    
   9 C9            -2.4966     4.1961     0.0134 C.ar    
  10 C10           -2.5687     5.5715     0.1106 C.ar    
  11 C11           -1.4144     6.3145     0.3119 C.ar    
  12 C12           -0.1873     5.6762     0.4156 C.ar    
  13 C13           -0.1145     4.3000     0.3247 C.ar    
  14 O14           -1.4860     7.6689     0.4071 O.3     
  15 C15           -0.2585     8.3706     0.6144 C.3     
  16 F16            0.6108     8.1141    -0.4513 F       
  17 F17           -0.5133     9.7442     0.6882 F       
  18 F18            0.3286     7.9403     1.8091 F       
  19 C19           -3.7503     3.3893    -0.2062 C.3     
  20 O20           -4.8753     4.2675    -0.2790 O.3     
  21 H21            1.0833    -0.1638     2.3398 H       
  22 H22            1.1250    -1.5973     1.2855 H       
  23 H23            1.9906    -0.1167     0.8092 H       
  24 H24           -2.2866    -0.2039     0.7587 H       
  25 H25           -1.3728    -1.6482     1.2560 H       
  26 H26           -1.4145    -0.2147     2.3103 H       
  27 H27            0.7664    -0.1016    -1.3688 H       
  28 H28           -0.0992    -1.5822    -0.8925 H       
  29 H29           -1.0130    -0.1379    -1.3898 H       
  30 H30           -1.8739     1.6724    -0.4715 H       
  31 H31           -3.5238     6.0691     0.0296 H       
  32 H32            0.7109     6.2552     0.5716 H       
  33 H33            0.8404     3.8028     0.4098 H       
  34 H34           -3.6644     2.8309    -1.1384 H       
  35 H35           -3.8850     2.6943     0.6226 H       
  36 H36           -5.7185     3.8157    -0.4196 H       
@<TRIPOS>BOND
   1    1    2 1
   2    1    6 2
   3    1    7 am
   4    2    3 1
   5    2    4 1
   6    2    5 1
   7    3   21 1
   8    3   22 1
   9    3   23 1
  10    4   24 1
  11    4   25 1
  12    4   26 1
  13    5   27 1
  14    5   28 1
  15    5   29 1
  16    7    8 1
  17    7   30 1
  18    8    9 ar
  19    8   13 ar
  20    9   10 ar
  21    9   19 1
  22   10   11 ar
  23   10   31 1
  24   11   12 ar
  25   11   14 1
  26   12   13 ar
  27   12   32 1
  28   13   33 1
  29   14   15 1
  30   15   16 1
  31   15   17 1
  32   15   18 1
  33   19   20 1
  34   19   34 1
  35   19   35 1
  36   20   36 1

#	End of record

