#	Name: ASD00071040
#	Creating user name:	WinNT
#	Creation time:	15. 06. 2019 18:30

#	Modifying user name:	WinNT
#	Modification time:	15. 06. 2019 18:30

#	Program:	/corina/corina34_cracker 3.40 0067  02.08.2006

@<TRIPOS>MOLECULE
ASD00071040
  35   37    0    0    0
SMALL
NO_CHARGES


@<TRIPOS>ATOM
   1 N1             2.6359     1.0866    -0.0581 N.ar    
   2 C2             2.4078    -0.1942     0.1586 C.ar    
   3 C3             1.1048    -0.7133     0.1902 C.ar    
   4 C4             0.0384     0.1119    -0.0057 C.ar    
   5 C5             0.2893     1.4790    -0.2365 C.ar    
   6 C6            -0.7456     2.3993    -0.4483 C.ar    
   7 N7            -0.4633     3.6651    -0.6601 N.ar    
   8 C8             0.7793     4.1255    -0.6841 C.ar    
   9 C9             1.8530     3.3106    -0.4893 C.ar    
  10 C10            1.6305     1.9410    -0.2562 C.ar    
  11 N11            3.4805    -1.0475     0.3592 N.pl3   
  12 C12            0.8848    -2.1830     0.4402 C.3     
  13 C13            0.8586    -2.4416     1.9246 C.ar    
  14 C14           -0.3027    -2.2133     2.6488 C.ar    
  15 C15           -0.3236    -2.4523     4.0150 C.ar    
  16 C16            0.8115    -2.9169     4.6513 C.ar    
  17 C17            1.9674    -3.1432     3.9276 C.ar    
  18 C18            1.9889    -2.9116     2.5644 C.ar    
  19 O19           -1.4177    -1.7559     2.0208 O.3     
  20 C20           -2.5767    -1.5434     2.8293 C.3     
  21 H21           -0.9711    -0.2713     0.0151 H       
  22 H22           -1.7738     2.0689    -0.4378 H       
  23 H23            0.9453     5.1775    -0.8637 H       
  24 H24            2.8569     3.7083    -0.5136 H       
  25 H25            4.3776    -0.6877     0.4414 H       
  26 H26            3.3345    -2.0046     0.4174 H       
  27 H27           -0.0653    -2.4879     0.0015 H       
  28 H28            1.6946    -2.7540    -0.0139 H       
  29 H29           -1.2261    -2.2750     4.5810 H       
  30 H30            0.7957    -3.1032     5.7150 H       
  31 H31            2.8538    -3.5057     4.4269 H       
  32 H32            2.8918    -3.0937     2.0004 H       
  33 H33           -3.3929    -1.1790     2.2056 H       
  34 H34           -2.8694    -2.4826     3.2986 H       
  35 H35           -2.3517    -0.8066     3.6003 H       
@<TRIPOS>BOND
   1    1    2 ar
   2    1   10 ar
   3    2    3 ar
   4    2   11 1
   5    3    4 ar
   6    3   12 1
   7    4    5 ar
   8    4   21 1
   9    5    6 ar
  10    5   10 ar
  11    6    7 ar
  12    6   22 1
  13    7    8 ar
  14    8    9 ar
  15    8   23 1
  16    9   10 ar
  17    9   24 1
  18   11   25 1
  19   11   26 1
  20   12   13 1
  21   12   27 1
  22   12   28 1
  23   13   14 ar
  24   13   18 ar
  25   14   15 ar
  26   14   19 1
  27   15   16 ar
  28   15   29 1
  29   16   17 ar
  30   16   30 1
  31   17   18 ar
  32   17   31 1
  33   18   32 1
  34   19   20 1
  35   20   33 1
  36   20   34 1
  37   20   35 1

#	End of record

