#	Name: ASD04882287
#	Creating user name:	WinNT
#	Creation time:	15. 06. 2019 20:54

#	Modifying user name:	WinNT
#	Modification time:	15. 06. 2019 20:54

#	Program:	/corina/corina34_cracker 3.40 0067  02.08.2006

@<TRIPOS>MOLECULE
ASD04882287
  80   85    0    0    0
SMALL
NO_CHARGES


@<TRIPOS>ATOM
   1 N1            -0.0169     1.3970     0.0097 N.am    
   2 C2             0.1097     0.0022    -0.0340 C.ar    
   3 C3            -1.0275    -0.8062     0.0459 C.ar    
   4 C4            -0.9033    -2.1902     0.0031 C.ar    
   5 C5             0.3402    -2.7696    -0.1179 C.ar    
   6 C6             1.4816    -1.9670    -0.1983 C.ar    
   7 C7             1.3589    -0.5752    -0.1618 C.ar    
   8 N8            -2.2868    -0.2246     0.1689 N.3     
   9 C9            -3.1526    -0.6000    -0.9577 C.3     
  10 C10           -2.9098    -0.5835     1.4505 C.3     
  11 C11           -4.2536     0.1373     1.5811 C.3     
  12 N12           -5.1194    -0.2381     0.4545 N.3     
  13 C13           -4.4964     0.1209    -0.8271 C.3     
  14 C14            2.8136    -2.5880    -0.3271 C.2     
  15 O15            3.8061    -1.8890    -0.3969 O.2     
  16 C16            0.9210     2.1771    -0.5631 C.2     
  17 C17            0.7439     3.6401    -0.5948 C.2     
  18 O18            1.9136     1.6739    -1.0540 O.2     
  19 C19            1.6022     4.5470    -1.1363 C.2     
  20 N20           -0.3113     4.3377    -0.0934 N.2     
  21 C21           -0.1089     5.6028    -0.3100 C.2     
  22 O22            1.0590     5.7604    -0.9489 O.3     
  23 N23            2.9304    -3.9301    -0.3673 N.am    
  24 C24           -6.3824     0.3453     0.5779 C.ar    
  25 C25           -7.5143    -0.4557     0.6574 C.ar    
  26 C26           -6.5089     1.7280     0.6270 C.ar    
  27 C27           -7.7591     2.3015     0.7489 C.ar    
  28 C28           -8.8846     1.5010     0.8226 C.ar    
  29 C29           -8.7618     0.1245     0.7793 C.ar    
  30 C30           -7.3815    -1.9561     0.6103 C.3     
  31 C31            4.2532    -4.5467    -0.4952 C.3     
  32 C32            4.1061    -6.0695    -0.5168 C.3     
  33 C33            5.4875    -6.7135    -0.6504 C.3     
  34 C34            5.3404    -8.2362    -0.6720 C.3     
  35 C35            6.7287    -8.9133    -0.7759 C.3     
  36 C36            4.6030    -8.6888    -1.9472 C.3     
  37 O37            5.5185    -9.4961    -2.7064 O.3     
  38 C38            6.4513   -10.0723    -1.7670 C.3     
  39 C39           -1.0416     6.7166     0.0905 C.3     
  40 C40           -0.5004     7.7820     1.0461 C.3     
  41 C41           -0.7281     8.1214    -0.4283 C.3     
  42 H42           -0.7817     1.8010     0.4488 H       
  43 H43           -1.7839    -2.8123     0.0654 H       
  44 H44            0.4334    -3.8451    -0.1505 H       
  45 H45            2.2391     0.0476    -0.2240 H       
  46 H46           -2.6753    -0.3127    -1.8946 H       
  47 H47           -3.3155    -1.6777    -0.9477 H       
  48 H48           -3.0700    -1.6610     1.4879 H       
  49 H49           -2.2555    -0.2842     2.2693 H       
  50 H50           -4.7308    -0.1499     2.5180 H       
  51 H51           -4.0906     1.2151     1.5711 H       
  52 H52           -4.3362     1.1984    -0.8645 H       
  53 H53           -5.1506    -0.1784    -1.6459 H       
  54 H54            2.5415     4.3315    -1.6239 H       
  55 H55            2.1387    -4.4877    -0.3116 H       
  56 H56           -5.6304     2.3536     0.5702 H       
  57 H57           -7.8581     3.3762     0.7872 H       
  58 H58           -9.8612     1.9521     0.9187 H       
  59 H59           -9.6427    -0.4976     0.8370 H       
  60 H60           -7.2604    -2.3421     1.6225 H       
  61 H61           -8.2772    -2.3862     0.1622 H       
  62 H62           -6.5109    -2.2251     0.0122 H       
  63 H63            4.7212    -4.2137    -1.4216 H       
  64 H64            4.8741    -4.2536     0.3513 H       
  65 H65            3.6380    -6.4024     0.4095 H       
  66 H66            3.4852    -6.3625    -1.3634 H       
  67 H67            5.9555    -6.3805    -1.5768 H       
  68 H68            6.1084    -6.4204     0.1962 H       
  69 H69            4.8115    -8.5801     0.2169 H       
  70 H70            7.4686    -8.2233    -1.1815 H       
  71 H71            7.0474    -9.2979     0.1930 H       
  72 H72            3.7252    -9.2767    -1.6788 H       
  73 H73            4.3043    -7.8184    -2.5313 H       
  74 H74            7.3690   -10.3728    -2.2726 H       
  75 H75            6.0014   -10.9199    -1.2501 H       
  76 H76           -2.0909     6.4386     0.1889 H       
  77 H77           -1.1939     8.2051     1.7729 H       
  78 H78            0.5302     7.6772     1.3851 H       
  79 H79            0.1527     8.2400    -1.0593 H       
  80 H80           -1.5713     8.7679    -0.6715 H       
@<TRIPOS>BOND
   1    1    2 1
   2    1   16 am
   3    1   42 1
   4    2    3 ar
   5    2    7 ar
   6    3    4 ar
   7    3    8 1
   8    4    5 ar
   9    4   43 1
  10    5    6 ar
  11    5   44 1
  12    6    7 ar
  13    6   14 1
  14    7   45 1
  15    8    9 1
  16    8   10 1
  17    9   13 1
  18    9   46 1
  19    9   47 1
  20   10   11 1
  21   10   48 1
  22   10   49 1
  23   11   12 1
  24   11   50 1
  25   11   51 1
  26   12   13 1
  27   12   24 1
  28   13   52 1
  29   13   53 1
  30   14   15 2
  31   14   23 am
  32   16   18 2
  33   16   17 1
  34   17   19 2
  35   17   20 1
  36   19   22 1
  37   19   54 1
  38   20   21 2
  39   21   22 1
  40   21   39 1
  41   23   31 1
  42   23   55 1
  43   24   25 ar
  44   24   26 ar
  45   25   30 1
  46   25   29 ar
  47   26   27 ar
  48   26   56 1
  49   27   28 ar
  50   27   57 1
  51   28   29 ar
  52   28   58 1
  53   29   59 1
  54   30   60 1
  55   30   61 1
  56   30   62 1
  57   31   32 1
  58   31   63 1
  59   31   64 1
  60   32   33 1
  61   32   65 1
  62   32   66 1
  63   33   34 1
  64   33   67 1
  65   33   68 1
  66   34   36 1
  67   34   35 1
  68   34   69 1
  69   35   38 1
  70   35   70 1
  71   35   71 1
  72   36   37 1
  73   36   72 1
  74   36   73 1
  75   37   38 1
  76   38   74 1
  77   38   75 1
  78   39   40 1
  79   39   41 1
  80   39   76 1
  81   40   41 1
  82   40   77 1
  83   40   78 1
  84   41   79 1
  85   41   80 1

#	End of record

