#	Name: ASD03082395
#	Creating user name:	WinNT
#	Creation time:	15. 06. 2019 20:27

#	Modifying user name:	WinNT
#	Modification time:	15. 06. 2019 20:27

#	Program:	/corina/corina34_cracker 3.40 0067  02.08.2006

@<TRIPOS>MOLECULE
ASD03082395
  41   43    0    0    0
SMALL
NO_CHARGES


@<TRIPOS>ATOM
   1 C1             2.3185     1.3912     0.4831 C.ar    
   2 C2             3.4727     1.9027    -0.0952 C.ar    
   3 C3             4.6630     1.1995    -0.0000 C.ar    
   4 C4             4.6997    -0.0140     0.6726 C.ar    
   5 C5             3.5497    -0.5226     1.2482 C.ar    
   6 Cl6            3.5997    -2.0405     2.0892 Cl      
   7 N7             1.1168     2.0972     0.3885 N.pl3   
   8 C8             1.1313     3.4927     0.2921 C.2     
   9 C9             0.0118     4.3158     0.0802 C.2     
  10 N10            2.1917     4.2599     0.3895 N.2     
  11 N11            1.7841     5.5915     0.2372 N.pl3   
  12 C12            0.4386     5.5981     0.0484 C.2     
  13 C13            2.6146     6.7155     0.2770 C.ar    
  14 C14            2.2305     7.8639     0.9664 C.ar    
  15 C15            3.8506     6.7142    -0.3671 C.ar    
  16 C16            4.6409     7.8433    -0.3037 C.ar    
  17 N17            4.2397     8.9136     0.3558 N.ar    
  18 C18            3.0791     8.9521     0.9820 C.ar    
  19 C19            5.9794     7.8543    -0.9960 C.3     
  20 H20            2.7878     9.8478     1.5106 H       
  21 C21           -0.4234     6.8165    -0.1597 C.3     
  22 C22            2.3590     0.1736     1.1508 C.ar    
  23 O23            5.7939     1.6977    -0.5654 O.3     
  24 C24            6.9847     0.9199    -0.4283 C.3     
  25 C25           -1.0292     7.2137     1.1217 C.1     
  26 N26           -1.4967     7.5202     2.1107 N.1     
  27 H27            3.4427     2.8469    -0.6186 H       
  28 H28            5.6275    -0.5619     0.7463 H       
  29 H29            0.2724     1.6199     0.3897 H       
  30 H30           -1.0088     3.9827    -0.0369 H       
  31 H31            1.2818     7.9019     1.4811 H       
  32 H32            4.1853     5.8414    -0.9080 H       
  33 H33            5.8575     8.2161    -2.0169 H       
  34 H34            6.6620     8.5112    -0.4568 H       
  35 H35            6.3870     6.8436    -1.0150 H       
  36 H36            0.1887     7.6339    -0.5410 H       
  37 H37           -1.2105     6.5864    -0.8778 H       
  38 H38            1.4621    -0.2252     1.6013 H       
  39 H39            7.8109     1.4300    -0.9236 H       
  40 H40            7.2169     0.7942     0.6292 H       
  41 H41            6.8347    -0.0579    -0.8861 H       
@<TRIPOS>BOND
   1    1    2 ar
   2    1    7 1
   3    1   22 ar
   4    2    3 ar
   5    2   27 1
   6    3    4 ar
   7    3   23 1
   8    4    5 ar
   9    4   28 1
  10    5   22 ar
  11    5    6 1
  12    7    8 1
  13    7   29 1
  14    8    9 1
  15    8   10 2
  16    9   12 2
  17    9   30 1
  18   10   11 1
  19   11   12 1
  20   11   13 1
  21   12   21 1
  22   13   14 ar
  23   13   15 ar
  24   14   18 ar
  25   14   31 1
  26   15   16 ar
  27   15   32 1
  28   16   17 ar
  29   16   19 1
  30   17   18 ar
  31   18   20 1
  32   19   33 1
  33   19   34 1
  34   19   35 1
  35   21   25 1
  36   21   36 1
  37   21   37 1
  38   22   38 1
  39   23   24 1
  40   24   39 1
  41   24   40 1
  42   24   41 1
  43   25   26 3

#	End of record

