#	Name: ASD08170182
#	Creating user name:	WinNT
#	Creation time:	15. 06. 2019 21:17

#	Modifying user name:	WinNT
#	Modification time:	15. 06. 2019 21:17

#	Program:	/corina/corina34_cracker 3.40 0067  02.08.2006

@<TRIPOS>MOLECULE
ASD08170182
  71   74    0    0    0
SMALL
NO_CHARGES


@<TRIPOS>ATOM
   1 N1            -0.0150     1.2583     0.0090 N.2     
   2 N2             0.0021    -0.0041     0.0020 N.2     
   3 C3             1.1271     1.8769     0.0014 C.2     
   4 S4             2.3826     0.7116    -0.0169 S.3     
   5 C5             1.1681    -0.5677    -0.0121 C.2     
   6 C6             1.4387    -2.0502    -0.0227 C.3     
   7 C7             1.5165    -2.5442    -1.4687 C.3     
   8 S8             1.8422    -4.3286    -1.4814 S.3     
   9 C9             1.8986    -4.7206    -3.2516 C.3     
  10 C10            2.1699    -6.2152    -3.4347 C.3     
  11 C11            2.2167    -6.5408    -4.9053 C.2     
  12 N12            3.2694    -6.5184    -5.6596 N.2     
  13 S13            0.8491    -7.0282    -5.9071 S.3     
  14 C14            1.9000    -7.1354    -7.2557 C.2     
  15 N15            3.1017    -6.8250    -6.8728 N.2     
  16 N16            1.5289    -7.4992    -8.5457 N.am    
  17 C17            2.4537    -7.5464    -9.5250 C.2     
  18 O18            3.6096    -7.2716    -9.2812 O.2     
  19 C19            2.0516    -7.9407   -10.9228 C.3     
  20 N20            1.3017     3.2566     0.0067 N.am    
  21 C21            0.2284     4.0717     0.0214 C.2     
  22 O22           -0.8897     3.6019     0.0299 O.2     
  23 C23            0.4176     5.5667     0.0272 C.3     
  24 C24           -0.9288     6.2434     0.0438 C.ar    
  25 C25           -1.5319     6.5463     1.2469 C.ar    
  26 C26           -1.5547     6.5647    -1.1477 C.ar    
  27 C27           -2.7906     7.1869    -1.1415 C.ar    
  28 C28           -3.4071     7.4912     0.0543 C.ar    
  29 C29           -2.7792     7.1737     1.2604 C.ar    
  30 C30            3.2622    -7.9149   -11.8199 C.ar    
  31 C31            4.0349    -9.0530   -11.9693 C.ar    
  32 C32            5.1481    -9.0381   -12.7910 C.ar    
  33 C33            5.4948    -7.8869   -13.4672 C.ar    
  34 C34            4.7192    -6.7350   -13.3214 C.ar    
  35 C35            3.5942    -6.7585   -12.4947 C.ar    
  36 C36           -3.4335     7.4965     2.5449 C.2     
  37 O37           -2.8848     7.2192     3.5926 O.2     
  38 O38           -4.6386     8.0985     2.5545 O.3     
  39 C39           -5.2217     8.3857     3.8529 C.3     
  40 C40            5.0844    -5.4985   -14.0425 C.2     
  41 O41            6.1677    -5.4805   -14.8429 O.3     
  42 O42            4.4077    -4.4979   -13.9136 O.2     
  43 C43            6.4664    -4.2312   -15.5200 C.3     
  44 H44            2.3843    -2.2506     0.4811 H       
  45 H45            0.6334    -2.5702     0.4961 H       
  46 H46            0.5709    -2.3438    -1.9724 H       
  47 H47            2.3218    -2.0242    -1.9874 H       
  48 H48            0.9434    -4.4658    -3.7108 H       
  49 H49            2.6943    -4.1461    -3.7258 H       
  50 H50            3.1250    -6.4700    -2.9755 H       
  51 H51            1.3741    -6.7896    -2.9605 H       
  52 H52            0.6045    -7.7190    -8.7407 H       
  53 H53            1.6303    -8.9459   -10.9098 H       
  54 H54            1.3064    -7.2392   -11.2980 H       
  55 H55            2.1959     3.6323    -0.0001 H       
  56 H56            0.9817     5.8582     0.9132 H       
  57 H57            0.9643     5.8672    -0.8667 H       
  58 H58           -1.0406     6.2985     2.1762 H       
  59 H59           -1.0762     6.3290    -2.0868 H       
  60 H60           -3.2734     7.4352    -2.0751 H       
  61 H61           -4.3716     7.9772     0.0577 H       
  62 H62            3.7682    -9.9569   -11.4419 H       
  63 H63            5.7471    -9.9298   -12.9028 H       
  64 H64            6.3644    -7.8764   -14.1077 H       
  65 H65            2.9900    -5.8711   -12.3775 H       
  66 H66           -5.3546     7.4555     4.4053 H       
  67 H67           -4.5592     9.0479     4.4103 H       
  68 H68           -6.1891     8.8694     3.7177 H       
  69 H69            5.6268    -3.9535   -16.1572 H       
  70 H70            6.6356    -3.4485   -14.7805 H       
  71 H71            7.3610    -4.3537   -16.1306 H       
@<TRIPOS>BOND
   1    1    2 1
   2    1    3 2
   3    2    5 2
   4    3    4 1
   5    3   20 1
   6    4    5 1
   7    5    6 1
   8    6    7 1
   9    6   44 1
  10    6   45 1
  11    7    8 1
  12    7   46 1
  13    7   47 1
  14    8    9 1
  15    9   10 1
  16    9   48 1
  17    9   49 1
  18   10   11 1
  19   10   50 1
  20   10   51 1
  21   11   12 2
  22   11   13 1
  23   12   15 1
  24   13   14 1
  25   14   15 2
  26   14   16 1
  27   16   17 am
  28   16   52 1
  29   17   18 2
  30   17   19 1
  31   19   30 1
  32   19   53 1
  33   19   54 1
  34   20   21 am
  35   20   55 1
  36   21   22 2
  37   21   23 1
  38   23   24 1
  39   23   56 1
  40   23   57 1
  41   24   25 ar
  42   24   26 ar
  43   25   29 ar
  44   25   58 1
  45   26   27 ar
  46   26   59 1
  47   27   28 ar
  48   27   60 1
  49   28   29 ar
  50   28   61 1
  51   29   36 1
  52   30   31 ar
  53   30   35 ar
  54   31   32 ar
  55   31   62 1
  56   32   33 ar
  57   32   63 1
  58   33   34 ar
  59   33   64 1
  60   34   35 ar
  61   34   40 1
  62   35   65 1
  63   36   37 2
  64   36   38 1
  65   38   39 1
  66   39   66 1
  67   39   67 1
  68   39   68 1
  69   40   41 1
  70   40   42 2
  71   41   43 1
  72   43   69 1
  73   43   70 1
  74   43   71 1

#	End of record

