#	Name: ASD01918517
#	Creating user name:	WinNT
#	Creation time:	15. 06. 2019 20:11

#	Modifying user name:	WinNT
#	Modification time:	15. 06. 2019 20:11

#	Program:	/corina/corina34_cracker 3.40 0067  02.08.2006

@<TRIPOS>MOLECULE
ASD01918517
  42   45    0    0    0
SMALL
NO_CHARGES


@<TRIPOS>ATOM
   1 O1             0.0021    -0.0041     0.0020 O.2     
   2 C2            -0.0144     1.2093     0.0087 C.2     
   3 C3            -1.2621     1.9826     0.0310 C.2     
   4 C4            -2.5640     1.5804    -0.1260 C.2     
   5 C5            -3.3195     2.7522    -0.0062 C.2     
   6 C6            -4.8201     2.8519    -0.1021 C.3     
   7 O7            -5.3697     1.5539    -0.3372 O.3     
   8 C8            -6.7212     1.4674    -0.4500 C.ar    
   9 C9            -7.5020     2.6091    -0.3425 C.ar    
  10 C10           -8.8756     2.5185    -0.4580 C.ar    
  11 C11           -9.4724     1.2912    -0.6802 C.ar    
  12 C12           -8.6965     0.1518    -0.7873 C.ar    
  13 C13           -7.3221     0.2380    -0.6787 C.ar    
  14 N14           -2.4926     3.7488     0.2043 N.2     
  15 N15           -1.2775     3.3438     0.2328 N.pl3   
  16 C16           -0.0629     4.1406     0.4385 C.3     
  17 C17            1.0749     3.2400     0.9249 C.3     
  18 C18            1.2521     2.0428     0.0011 C.3     
  19 C19            2.4402     1.1837     0.4628 C.3     
  20 C20            3.0877     0.6949    -0.8582 C.3     
  21 C21            2.9409     1.9246    -1.7891 C.3     
  22 C22            1.5597     2.5117    -1.4260 C.3     
  23 H23           -2.9266     0.5786    -0.3032 H       
  24 H24           -5.2181     3.2514     0.8307 H       
  25 H25           -5.0884     3.5145    -0.9249 H       
  26 H26           -7.0363     3.5678    -0.1683 H       
  27 H27           -9.4839     3.4070    -0.3744 H       
  28 H28          -10.5465     1.2224    -0.7699 H       
  29 H29           -9.1651    -0.8057    -0.9605 H       
  30 H30           -6.7161    -0.6517    -0.7668 H       
  31 H31            0.2246     4.6116    -0.5015 H       
  32 H32           -0.2579     4.9120     1.1836 H       
  33 H33            2.0010     3.8142     0.9512 H       
  34 H34            0.8460     2.8832     1.9291 H       
  35 H35            3.1468     1.7850     1.0348 H       
  36 H36            2.0921     0.3366     1.0538 H       
  37 H37            4.1387     0.4498    -0.7052 H       
  38 H38            2.5453    -0.1607    -1.2604 H       
  39 H39            3.7287     2.6509    -1.5889 H       
  40 H40            2.9616     1.6164    -2.8344 H       
  41 H41            0.8016     2.1378    -2.1142 H       
  42 H42            1.5945     3.6005    -1.4627 H       
@<TRIPOS>BOND
   1    1    2 2
   2    2   18 1
   3    2    3 1
   4    3   15 1
   5    3    4 2
   6    4    5 1
   7    4   23 1
   8    5    6 1
   9    5   14 2
  10    6    7 1
  11    6   24 1
  12    6   25 1
  13    7    8 1
  14    8   13 ar
  15    8    9 ar
  16    9   10 ar
  17    9   26 1
  18   10   11 ar
  19   10   27 1
  20   11   12 ar
  21   11   28 1
  22   12   13 ar
  23   12   29 1
  24   13   30 1
  25   14   15 1
  26   15   16 1
  27   16   17 1
  28   16   31 1
  29   16   32 1
  30   17   18 1
  31   17   33 1
  32   17   34 1
  33   18   22 1
  34   18   19 1
  35   19   20 1
  36   19   35 1
  37   19   36 1
  38   20   21 1
  39   20   37 1
  40   20   38 1
  41   21   22 1
  42   21   39 1
  43   21   40 1
  44   22   41 1
  45   22   42 1

#	End of record

