#	Name: ASD01320159
#	Creating user name:	WinNT
#	Creation time:	15. 06. 2019 19:16

#	Modifying user name:	WinNT
#	Modification time:	15. 06. 2019 19:16

#	Program:	/corina/corina34_cracker 3.40 0067  02.08.2006

@<TRIPOS>MOLECULE
ASD01320159
  31   32    0    0    0
SMALL
NO_CHARGES


@<TRIPOS>ATOM
   1 C1            -0.0173     1.4248     0.0099 C.3     
   2 O2             0.0021    -0.0041     0.0020 O.3     
   3 C3             1.4181     1.9544    -0.0010 C.3     
   4 O4             2.0484     1.6242    -1.2441 O.3     
   5 C5             1.4095     3.4931     0.1235 C.3     
   6 O6             1.7088     3.8968     1.4613 O.3     
   7 C7             2.5486     3.9087    -0.8470 C.3     
   8 C8             2.4090     2.8248    -1.9455 C.3     
   9 N9             3.6835     2.6421    -2.6444 N.am    
  10 C10            4.2142     3.6639    -3.3404 C.2     
  11 O11            3.6295     4.7291    -3.3811 O.2     
  12 N12            5.3837     3.5237    -3.9919 N.am    
  13 C13            6.0448     2.3491    -3.9562 C.2     
  14 O14            7.1032     2.2214    -4.5450 O.2     
  15 C15            5.4975     1.2657    -3.2276 C.2     
  16 C16            6.2163    -0.0577    -3.1717 C.3     
  17 C17            4.3256     1.4356    -2.5787 C.2     
  18 H18           -0.5445     1.7859    -0.8732 H       
  19 H19           -0.5275     1.7763     0.9067 H       
  20 H20           -0.8759    -0.4094     0.0082 H       
  21 H21            1.9792     1.5183     0.8255 H       
  22 H22            0.4523     3.9031    -0.1986 H       
  23 H23            1.7154     4.8550     1.5908 H       
  24 H24            2.3743     4.9048    -1.2537 H       
  25 H25            3.5214     3.8503    -0.3589 H       
  26 H26            1.6255     3.1003    -2.6514 H       
  27 H27            5.7521     4.2705    -4.4892 H       
  28 H28            7.1385     0.0051    -3.7494 H       
  29 H29            6.4524    -0.2995    -2.1354 H       
  30 H30            5.5778    -0.8359    -3.5900 H       
  31 H31            3.8951     0.6219    -2.0140 H       
@<TRIPOS>BOND
   1    1    2 1
   2    1    3 1
   3    1   18 1
   4    1   19 1
   5    2   20 1
   6    3    4 1
   7    3    5 1
   8    3   21 1
   9    4    8 1
  10    5    6 1
  11    5    7 1
  12    5   22 1
  13    6   23 1
  14    7    8 1
  15    7   24 1
  16    7   25 1
  17    8    9 1
  18    8   26 1
  19    9   10 am
  20    9   17 1
  21   10   11 2
  22   10   12 am
  23   12   13 am
  24   12   27 1
  25   13   14 2
  26   13   15 1
  27   15   16 1
  28   15   17 2
  29   16   28 1
  30   16   29 1
  31   16   30 1
  32   17   31 1

#	End of record

