#	Name: ASD01190002
#	Creating user name:	WinNT
#	Creation time:	15. 06. 2019 19:07

#	Modifying user name:	WinNT
#	Modification time:	15. 06. 2019 19:07

#	Program:	/corina/corina34_cracker 3.40 0067  02.08.2006

@<TRIPOS>MOLECULE
ASD01190002
  93   97    0    0    0
SMALL
NO_CHARGES


@<TRIPOS>ATOM
   1 N1             6.2517     0.1243     3.0066 N.pl3   
   2 N2             5.7640     1.1271     2.8655 N.1     
   3 N3             5.2764     2.1300     2.7245 N.2     
   4 C4             5.1299     2.6904     1.3789 C.3     
   5 C5             3.6463     2.9126     1.0777 C.3     
   6 O6             3.1249     3.9079     1.9606 O.3     
   7 C7             1.7387     4.1923     1.7620 C.3     
   8 C8             1.2908     5.2658     2.7560 C.3     
   9 O9             1.9720     6.4899     2.4742 O.3     
  10 C10            1.6237     7.5639     3.3501 C.3     
  11 C11            2.4087     8.8172     2.9576 C.3     
  12 O12            2.0036     9.2447     1.6556 O.3     
  13 C13            2.6801    10.4147     1.1914 C.3     
  14 C14            2.1698    10.7788    -0.2043 C.3     
  15 N15            0.7560    11.1544    -0.1248 N.pl3   
  16 C16            0.3987    12.4862     0.0981 C.ar    
  17 C17           -0.9414    12.8441     0.1738 C.ar    
  18 C18           -1.2911    14.1617     0.3948 C.ar    
  19 C19           -0.3091    15.1243     0.5406 C.ar    
  20 C20            1.0259    14.7714     0.4658 C.ar    
  21 C21            1.3827    13.4548     0.2503 C.ar    
  22 C22           -0.6946    16.5612     0.7811 C.3     
  23 C23           -1.8275    16.6145     1.8183 C.3     
  24 C24           -1.2396    16.1832     3.1499 C.3     
  25 C25           -0.5058    14.8505     2.9873 C.3     
  26 C26           -2.2260    16.0945     4.3120 C.3     
  27 O27           -2.6997    14.7542     4.4575 O.3     
  28 C28           -1.4248    16.5188     5.5667 C.3     
  29 C29           -0.0100    16.9179     5.0690 C.3     
  30 C30           -0.2413    17.2852     3.5939 C.3     
  31 C31            0.9926    17.1799     2.7088 C.3     
  32 C32            0.5178    17.3280     1.2714 C.2     
  33 C33            1.1384    18.1136     0.3935 C.2     
  34 C34            0.6203    18.2475    -1.0201 C.3     
  35 C35            0.7222    19.7159    -1.4430 C.3     
  36 C36            2.1071    20.2361    -1.1672 C.2     
  37 O37            2.6103    21.0290    -1.9377 O.2     
  38 C38            2.8293    19.8220    -0.0344 C.2     
  39 C39            2.3627    18.8292     0.7529 C.2     
  40 C40            3.0753    18.4193     2.0185 C.3     
  41 C41            2.0191    18.2164     3.1304 C.3     
  42 C42           -3.3558    17.0123     4.0924 C.1     
  43 C43           -4.2568    17.7442     3.9173 C.1     
  44 C44           -5.3866    18.6619     3.6977 C.3     
  45 C45           -0.2830    10.1332    -0.2790 C.3     
  46 H46            5.6586     3.6419     1.3220 H       
  47 H47            5.5490     1.9977     0.6491 H       
  48 H48            3.5309     3.2455     0.0462 H       
  49 H49            3.1027     1.9788     1.2212 H       
  50 H50            1.5836     4.5517     0.7448 H       
  51 H51            1.1554     3.2851     1.9197 H       
  52 H52            0.2155     5.4191     2.6651 H       
  53 H53            1.5274     4.9434     3.7700 H       
  54 H54            0.5553     7.7649     3.2716 H       
  55 H55            1.8673     7.2892     4.3764 H       
  56 H56            2.2108     9.6105     3.6785 H       
  57 H57            3.4749     8.5906     2.9502 H       
  58 H58            2.4878    11.2411     1.8756 H       
  59 H59            3.7519    10.2213     1.1474 H       
  60 H60            2.7470    11.6168    -0.5950 H       
  61 H61            2.2810     9.9206    -0.8671 H       
  62 H62           -1.7088    12.0928     0.0597 H       
  63 H63           -2.3328    14.4407     0.4534 H       
  64 H64            1.7904    15.5257     0.5801 H       
  65 H65            2.4255    13.1798     0.1923 H       
  66 H66           -1.0427    17.0006    -0.1537 H       
  67 H67           -2.2128    17.6312     1.8948 H       
  68 H68           -2.6282    15.9341     1.5285 H       
  69 H69            0.4013    15.0042     2.4028 H       
  70 H70           -0.2429    14.4583     3.9697 H       
  71 H71           -1.1530    14.1397     2.4736 H       
  72 H72           -3.3303    14.6362     5.1811 H       
  73 H73           -1.9061    17.3703     6.0477 H       
  74 H74           -1.3542    15.6849     6.2651 H       
  75 H75            0.3673    17.7746     5.6274 H       
  76 H76            0.6769    16.0749     5.1444 H       
  77 H77           -0.7053    18.2681     3.5119 H       
  78 H78            1.4332    16.1910     2.8357 H       
  79 H79            1.2208    17.6316    -1.6895 H       
  80 H80           -0.4208    17.9269    -1.0599 H       
  81 H81            0.5093    19.8010    -2.5086 H       
  82 H82           -0.0037    20.3050    -0.8825 H       
  83 H83            3.7659    20.3020     0.2081 H       
  84 H84            3.6141    17.4862     1.8537 H       
  85 H85            3.7724    19.2012     2.3200 H       
  86 H86            1.5143    19.1662     3.3069 H       
  87 H87            2.4953    17.8904     4.0550 H       
  88 H88           -6.0821    18.5885     4.5337 H       
  89 H89           -5.0152    19.6840     3.6227 H       
  90 H90           -5.8990    18.3929     2.7741 H       
  91 H91           -0.5278     9.7137     0.6968 H       
  92 H92           -1.1745    10.5847    -0.7143 H       
  93 H93            0.0801     9.3414    -0.9341 H       
@<TRIPOS>BOND
   1    1    2 2
   2    2    3 2
   3    3    4 1
   4    4    5 1
   5    4   46 1
   6    4   47 1
   7    5    6 1
   8    5   48 1
   9    5   49 1
  10    6    7 1
  11    7    8 1
  12    7   50 1
  13    7   51 1
  14    8    9 1
  15    8   52 1
  16    8   53 1
  17    9   10 1
  18   10   11 1
  19   10   54 1
  20   10   55 1
  21   11   12 1
  22   11   56 1
  23   11   57 1
  24   12   13 1
  25   13   14 1
  26   13   58 1
  27   13   59 1
  28   14   15 1
  29   14   60 1
  30   14   61 1
  31   15   16 1
  32   15   45 1
  33   16   17 ar
  34   16   21 ar
  35   17   18 ar
  36   17   62 1
  37   18   19 ar
  38   18   63 1
  39   19   20 ar
  40   19   22 1
  41   20   21 ar
  42   20   64 1
  43   21   65 1
  44   22   23 1
  45   22   32 1
  46   22   66 1
  47   23   24 1
  48   23   67 1
  49   23   68 1
  50   24   25 1
  51   24   26 1
  52   24   30 1
  53   25   69 1
  54   25   70 1
  55   25   71 1
  56   26   27 1
  57   26   28 1
  58   26   42 1
  59   27   72 1
  60   28   29 1
  61   28   73 1
  62   28   74 1
  63   29   30 1
  64   29   75 1
  65   29   76 1
  66   30   31 1
  67   30   77 1
  68   31   32 1
  69   31   41 1
  70   31   78 1
  71   32   33 2
  72   33   34 1
  73   33   39 1
  74   34   35 1
  75   34   79 1
  76   34   80 1
  77   35   36 1
  78   35   81 1
  79   35   82 1
  80   36   37 2
  81   36   38 1
  82   38   39 2
  83   38   83 1
  84   39   40 1
  85   40   41 1
  86   40   84 1
  87   40   85 1
  88   41   86 1
  89   41   87 1
  90   42   43 3
  91   43   44 1
  92   44   88 1
  93   44   89 1
  94   44   90 1
  95   45   91 1
  96   45   92 1
  97   45   93 1

#	End of record

