#	Name: ASD01420054
#	Creating user name:	WinNT
#	Creation time:	15. 06. 2019 19:20

#	Modifying user name:	WinNT
#	Modification time:	15. 06. 2019 19:20

#	Program:	/corina/corina34_cracker 3.40 0067  02.08.2006

@<TRIPOS>MOLECULE
ASD01420054
  46   48    0    0    0
SMALL
NO_CHARGES


@<TRIPOS>ATOM
   1 C1            -0.0144     1.2118     0.0087 C.2     
   2 O2             0.0887     0.0856     0.4556 O.2     
   3 N3             1.0660     1.8362    -0.5005 N.am    
   4 C4             0.9292     3.1335    -1.1765 C.3     
   5 C5             1.7681     3.0839    -2.4602 C.3     
   6 C6             3.2384     2.9045    -2.0825 C.3     
   7 C7             3.4023     1.7429    -1.1382 C.ar    
   8 C8             4.6478     1.1497    -1.0155 C.ar    
   9 C9             4.8308     0.0844    -0.1556 C.ar    
  10 C10            3.7698    -0.3972     0.5896 C.ar    
  11 C11            2.5250     0.1875     0.4725 C.ar    
  12 C12            2.3389     1.2617    -0.3889 C.ar    
  13 C13           -1.3237     1.8924     0.0183 C.ar    
  14 C14           -2.4991     1.1529    -0.1396 C.ar    
  15 C15           -3.7187     1.7917    -0.1300 C.ar    
  16 C16           -3.7820     3.1705     0.0364 C.ar    
  17 C17           -2.6156     3.9095     0.1937 C.ar    
  18 C18           -1.3920     3.2773     0.1911 C.ar    
  19 O19           -4.9861     3.7965     0.0447 O.3     
  20 C20           -4.9867     0.9954    -0.3007 C.3     
  21 C21           -4.6405    -0.4859    -0.4641 C.3     
  22 C22           -5.8739     1.1788     0.9322 C.3     
  23 C23           -5.7329     1.4848    -1.5435 C.3     
  24 H24           -0.1169     3.3115    -1.4258 H       
  25 H25            1.2951     3.9287    -0.5269 H       
  26 H26            1.4442     2.2448    -3.0759 H       
  27 H27            1.6442     4.0147    -3.0137 H       
  28 H28            3.8216     2.7198    -2.9847 H       
  29 H29            3.5996     3.8132    -1.6011 H       
  30 H30            5.4798     1.5216    -1.5951 H       
  31 H31            5.8046    -0.3739    -0.0653 H       
  32 H32            3.9151    -1.2298     1.2620 H       
  33 H33            1.6956    -0.1878     1.0535 H       
  34 H34           -2.4508     0.0818    -0.2692 H       
  35 H35           -2.6689     4.9805     0.3224 H       
  36 H36           -0.4863     3.8517     0.3182 H       
  37 H37           -5.3851     3.8700     0.9225 H       
  38 H38           -4.1088    -0.8346     0.4212 H       
  39 H39           -5.5576    -1.0619    -0.5876 H       
  40 H40           -4.0084    -0.6166    -1.3425 H       
  41 H41           -6.1206     2.2341     1.0486 H       
  42 H42           -6.7910     0.6028     0.8087 H       
  43 H43           -5.3423     0.8301     1.8175 H       
  44 H44           -5.1008     1.3542    -2.4218 H       
  45 H45           -6.6501     0.9089    -1.6669 H       
  46 H46           -5.9796     2.5402    -1.4270 H       
@<TRIPOS>BOND
   1    1    2 2
   2    1    3 am
   3    1   13 1
   4    3    4 1
   5    3   12 1
   6    4    5 1
   7    4   24 1
   8    4   25 1
   9    5    6 1
  10    5   26 1
  11    5   27 1
  12    6    7 1
  13    6   28 1
  14    6   29 1
  15    7    8 ar
  16    7   12 ar
  17    8    9 ar
  18    8   30 1
  19    9   10 ar
  20    9   31 1
  21   10   11 ar
  22   10   32 1
  23   11   12 ar
  24   11   33 1
  25   13   14 ar
  26   13   18 ar
  27   14   15 ar
  28   14   34 1
  29   15   16 ar
  30   15   20 1
  31   16   17 ar
  32   16   19 1
  33   17   18 ar
  34   17   35 1
  35   18   36 1
  36   19   37 1
  37   20   21 1
  38   20   23 1
  39   20   22 1
  40   21   38 1
  41   21   39 1
  42   21   40 1
  43   22   41 1
  44   22   42 1
  45   22   43 1
  46   23   44 1
  47   23   45 1
  48   23   46 1

#	End of record

