#	Name: ASD03240803
#	Creating user name:	WinNT
#	Creation time:	15. 06. 2019 20:35

#	Modifying user name:	WinNT
#	Modification time:	15. 06. 2019 20:35

#	Program:	/corina/corina34_cracker 3.40 0067  02.08.2006

@<TRIPOS>MOLECULE
ASD03240803
  76   83    0    0    0
SMALL
NO_CHARGES


@<TRIPOS>ATOM
   1 C1            -0.0470     1.2460     0.1175 C.3     
   2 C2             0.1513    -0.2777     0.0552 C.3     
   3 C3             1.5491    -0.0412     0.6511 C.3     
   4 C4             1.4840     1.3693     0.0418 C.3     
   5 O5            -0.7216     1.7825    -1.0222 O.3     
   6 C6             2.6191    -0.9120     0.0447 C.ar    
   7 C7             3.7104    -1.2927     0.8051 C.ar    
   8 C8             4.6936    -2.0895     0.2554 C.ar    
   9 C9             4.5854    -2.5116    -1.0697 C.ar    
  10 C10            3.4825    -2.1247    -1.8311 C.ar    
  11 C11            2.5033    -1.3320    -1.2684 C.ar    
  12 C12           10.1765    -4.5142    -1.9772 C.2     
  13 N13            9.9138    -5.4762    -2.8744 N.2     
  14 C14            8.6973    -5.7273    -3.2882 C.2     
  15 C15            7.5903    -4.9356    -2.7569 C.ar    
  16 C16            7.8741    -3.9250    -1.8131 C.ar    
  17 N17            9.1903    -3.7340    -1.4372 N.pl3   
  18 C18            6.2688    -5.1554    -3.1592 C.ar    
  19 C19            5.2767    -4.3548    -2.6019 C.ar    
  20 C20            5.6374    -3.3664    -1.6659 C.ar    
  21 N21            6.9007    -3.1876    -1.3086 N.ar    
  22 N22            9.7868    -2.8357    -0.5445 N.2     
  23 C23           11.0792    -3.0418    -0.5258 C.2     
  24 C24           11.3828    -4.0829    -1.4125 C.2     
  25 C25            3.8575    -4.5397    -2.9891 C.ar    
  26 C26            3.5006    -4.5907    -4.3357 C.ar    
  27 C27            2.1780    -4.7629    -4.6901 C.ar    
  28 C28            1.2073    -4.8843    -3.7121 C.ar    
  29 C29            1.5555    -4.8339    -2.3743 C.ar    
  30 C30            2.8757    -4.6688    -2.0080 C.ar    
  31 C31           12.0772    -2.2803     0.3080 C.3     
  32 C32           12.7306    -4.6289    -1.6974 C.ar    
  33 C33           13.6920    -3.8300    -2.3158 C.ar    
  34 C34           14.9454    -4.3415    -2.5795 C.ar    
  35 C35           15.2505    -5.6499    -2.2300 C.ar    
  36 C36           14.2961    -6.4479    -1.6144 C.ar    
  37 C37           13.0425    -5.9412    -1.3425 C.ar    
  38 O38           16.4867    -6.1509    -2.4918 O.3     
  39 C39           16.7331    -7.5045    -2.1058 C.3     
  40 C40           -0.6363     1.7336     1.4426 C.3     
  41 C41           -0.7319     3.2452     1.6595 C.3     
  42 C42           -1.9987     2.4285     1.3967 C.3     
  43 N43            1.5713    -0.0472     2.1199 N.3     
  44 H44           -0.5163    -0.8323     0.7146 H       
  45 H45            0.1708    -0.6743    -0.9599 H       
  46 H46            1.8678     1.4229    -0.9770 H       
  47 H47            1.8922     2.1444     0.6903 H       
  48 H48           -0.3465     1.5035    -1.8687 H       
  49 H49            3.7930    -0.9652     1.8309 H       
  50 H50            5.5454    -2.3855     0.8498 H       
  51 H51            3.3933    -2.4480    -2.8577 H       
  52 H52            1.6467    -1.0354    -1.8555 H       
  53 H53            8.5149    -6.5079    -4.0118 H       
  54 H54            6.0262    -5.9224    -3.8797 H       
  55 H55            4.2576    -4.4953    -5.1000 H       
  56 H56            1.9003    -4.8026    -5.7330 H       
  57 H57            0.1734    -5.0185    -3.9942 H       
  58 H58            0.7933    -4.9289    -1.6151 H       
  59 H59            3.1471    -4.6345    -0.9632 H       
  60 H60           12.1989    -2.7756     1.2714 H       
  61 H61           13.0361    -2.2515    -0.2094 H       
  62 H62           11.7184    -1.2631     0.4651 H       
  63 H63           13.4552    -2.8121    -2.5883 H       
  64 H64           15.6903    -3.7236    -3.0587 H       
  65 H65           14.5367    -7.4655    -1.3442 H       
  66 H66           12.3019    -6.5611    -0.8591 H       
  67 H67           17.7544    -7.7778    -2.3712 H       
  68 H68           16.5981    -7.6056    -1.0289 H       
  69 H69           16.0348    -8.1627    -2.6229 H       
  70 H70           -0.4163     1.1134     2.3115 H       
  71 H71           -0.5751     3.6193     2.6712 H       
  72 H72           -0.3749     3.8922     0.8582 H       
  73 H73           -2.4751     2.5381     0.4225 H       
  74 H74           -2.6754     2.2653     2.2355 H       
  75 H75            2.5186    -0.0574     2.4672 H       
  76 H76            1.0581     0.7376     2.4925 H       
@<TRIPOS>BOND
   1    1    2 1
   2    1    4 1
   3    1    5 1
   4    1   40 1
   5    2    3 1
   6    2   44 1
   7    2   45 1
   8    3    4 1
   9    3    6 1
  10    3   43 1
  11    4   46 1
  12    4   47 1
  13    5   48 1
  14    6    7 ar
  15    6   11 ar
  16    7    8 ar
  17    7   49 1
  18    8    9 ar
  19    8   50 1
  20    9   10 ar
  21    9   20 1
  22   10   11 ar
  23   10   51 1
  24   11   52 1
  25   12   13 1
  26   12   17 1
  27   12   24 2
  28   13   14 2
  29   14   15 1
  30   14   53 1
  31   15   16 ar
  32   15   18 ar
  33   16   17 1
  34   16   21 ar
  35   17   22 1
  36   18   19 ar
  37   18   54 1
  38   19   20 ar
  39   19   25 1
  40   20   21 ar
  41   22   23 2
  42   23   24 1
  43   23   31 1
  44   24   32 1
  45   25   26 ar
  46   25   30 ar
  47   26   27 ar
  48   26   55 1
  49   27   28 ar
  50   27   56 1
  51   28   29 ar
  52   28   57 1
  53   29   30 ar
  54   29   58 1
  55   30   59 1
  56   31   60 1
  57   31   61 1
  58   31   62 1
  59   32   33 ar
  60   32   37 ar
  61   33   34 ar
  62   33   63 1
  63   34   35 ar
  64   34   64 1
  65   35   36 ar
  66   35   38 1
  67   36   37 ar
  68   36   65 1
  69   37   66 1
  70   38   39 1
  71   39   67 1
  72   39   68 1
  73   39   69 1
  74   40   41 1
  75   40   42 1
  76   40   70 1
  77   41   42 1
  78   41   71 1
  79   41   72 1
  80   42   73 1
  81   42   74 1
  82   43   75 1
  83   43   76 1

#	End of record

