#	Name: ASD06170025
#	Creating user name:	WinNT
#	Creation time:	15. 06. 2019 21:05

#	Modifying user name:	WinNT
#	Modification time:	15. 06. 2019 21:05

#	Program:	/corina/corina34_cracker 3.40 0067  02.08.2006

@<TRIPOS>MOLECULE
ASD06170025
  66   71    0    0    0
SMALL
NO_CHARGES


@<TRIPOS>ATOM
   1 N1             0.6418     0.3114     1.1961 N.pl3   
   2 N2             0.1752    -0.3498     0.0564 N.am    
   3 C3             1.1918    -0.4819    -0.8192 C.2     
   4 C4             2.3734     0.1321    -0.1978 C.2     
   5 C5             1.9644     0.6035     1.0479 C.2     
   6 C6             3.7179     0.2293    -0.7749 C.2     
   7 O7             4.5849     0.8569    -0.1954 O.2     
   8 N8             3.9936    -0.3762    -1.9469 N.am    
   9 C9            -1.1335    -0.8009    -0.1432 C.ar    
  10 C10           -1.7290    -0.6786    -1.3920 C.ar    
  11 C11           -3.0214    -1.1251    -1.5857 C.ar    
  12 C12           -3.7228    -1.6930    -0.5379 C.ar    
  13 C13           -3.1330    -1.8158     0.7068 C.ar    
  14 C14           -1.8385    -1.3774     0.9055 C.ar    
  15 O15            1.1406    -1.0090    -1.9150 O.2     
  16 O16            4.4834     2.2376     2.8617 O.3     
  17 N17            4.0550     1.6978     1.8683 N.2     
  18 C18            2.8168     1.2994     2.0364 C.2     
  19 C19            2.4590     1.6729     3.3634 C.2     
  20 C20            3.5721     2.2725     3.8439 C.2     
  21 C21            3.7529     2.8644     5.2180 C.3     
  22 C22           -0.1696     0.6453     2.3693 C.3     
  23 C23            5.3092    -0.4105    -2.4248 C.ar    
  24 C24            6.1942     0.6085    -2.0967 C.ar    
  25 C25            7.4928     0.5734    -2.5685 C.ar    
  26 C26            7.9120    -0.4812    -3.3707 C.ar    
  27 C27            7.0277    -1.4979    -3.6976 C.ar    
  28 C28            5.7310    -1.4661    -3.2220 C.ar    
  29 O29            9.1895    -0.5159    -3.8355 O.3     
  30 N30           12.1876    -1.3648    -1.1337 N.ar    
  31 C31           10.9297    -1.4241    -0.7641 C.ar    
  32 C32            9.8934    -1.1449    -1.6457 C.ar    
  33 C33           10.1805    -0.7932    -2.9532 C.ar    
  34 C34           11.5385    -0.7326    -3.3403 C.ar    
  35 C35           11.9072    -0.3838    -4.6477 C.ar    
  36 C36           13.2235    -0.3341    -4.9899 C.ar    
  37 C37           14.2177    -0.6273    -4.0520 C.ar    
  38 C38           13.8879    -0.9734    -2.7611 C.ar    
  39 C39           12.5374    -1.0317    -2.3819 C.ar    
  40 O40           15.5243    -0.5704    -4.4188 O.3     
  41 C41           15.8030    -0.2058    -5.7721 C.3     
  42 F42            8.3544     1.5643    -2.2503 F       
  43 H43            3.2805    -0.7883    -2.4594 H       
  44 H44           -1.1820    -0.2346    -2.2105 H       
  45 H45           -3.4851    -1.0303    -2.5565 H       
  46 H46           -4.7335    -2.0410    -0.6919 H       
  47 H47           -3.6836    -2.2591     1.5233 H       
  48 H48           -1.3765    -1.4783     1.8765 H       
  49 H49            1.5176     1.5145     3.8685 H       
  50 H50            4.7589     3.2743     5.3075 H       
  51 H51            3.0220     3.6585     5.3706 H       
  52 H52            3.6086     2.0884     5.9697 H       
  53 H53           -1.2100     0.3825     2.1783 H       
  54 H54            0.1933     0.0877     3.2327 H       
  55 H55           -0.0958     1.7141     2.5699 H       
  56 H56            5.8676     1.4279    -1.4735 H       
  57 H57            7.3539    -2.3172    -4.3210 H       
  58 H58            5.0442    -2.2607    -3.4734 H       
  59 H59           10.6938    -1.6978     0.2537 H       
  60 H60            8.8677    -1.2023    -1.3125 H       
  61 H61           11.1483    -0.1554    -5.3814 H       
  62 H62           13.5032    -0.0654    -5.9978 H       
  63 H63           14.6636    -1.1987    -2.0442 H       
  64 H64           15.3409    -0.9278    -6.4454 H       
  65 H65           15.3994     0.7869    -5.9714 H       
  66 H66           16.8812    -0.1984    -5.9317 H       
@<TRIPOS>BOND
   1    1    2 1
   2    1    5 1
   3    1   22 1
   4    2    3 am
   5    2    9 1
   6    3    4 1
   7    3   15 2
   8    4    5 2
   9    4    6 1
  10    5   18 1
  11    6    7 2
  12    6    8 am
  13    8   23 1
  14    8   43 1
  15    9   10 ar
  16    9   14 ar
  17   10   11 ar
  18   10   44 1
  19   11   12 ar
  20   11   45 1
  21   12   13 ar
  22   12   46 1
  23   13   14 ar
  24   13   47 1
  25   14   48 1
  26   16   17 1
  27   16   20 1
  28   17   18 2
  29   18   19 1
  30   19   20 2
  31   19   49 1
  32   20   21 1
  33   21   50 1
  34   21   51 1
  35   21   52 1
  36   22   53 1
  37   22   54 1
  38   22   55 1
  39   23   24 ar
  40   23   28 ar
  41   24   25 ar
  42   24   56 1
  43   25   26 ar
  44   25   42 1
  45   26   27 ar
  46   26   29 1
  47   27   28 ar
  48   27   57 1
  49   28   58 1
  50   29   33 1
  51   30   31 ar
  52   30   39 ar
  53   31   32 ar
  54   31   59 1
  55   32   33 ar
  56   32   60 1
  57   33   34 ar
  58   34   35 ar
  59   34   39 ar
  60   35   36 ar
  61   35   61 1
  62   36   37 ar
  63   36   62 1
  64   37   38 ar
  65   37   40 1
  66   38   39 ar
  67   38   63 1
  68   40   41 1
  69   41   64 1
  70   41   65 1
  71   41   66 1

#	End of record

