#	Name: ASD01150723
#	Creating user name:	WinNT
#	Creation time:	15. 06. 2019 19:04

#	Modifying user name:	WinNT
#	Modification time:	15. 06. 2019 19:04

#	Program:	/corina/corina34_cracker 3.40 0067  02.08.2006

@<TRIPOS>MOLECULE
ASD01150723
  30   31    0    0    0
SMALL
NO_CHARGES


@<TRIPOS>ATOM
   1 C1            -0.0422     1.1921     0.0129 C.2     
   2 O2             0.6610     1.2331    -0.9785 O.2     
   3 C3             0.3953     0.4262     1.1974 C.ar    
   4 C4             1.5597    -0.3446     1.1431 C.ar    
   5 C5             1.9636    -1.0577     2.2533 C.ar    
   6 C6             1.2144    -1.0098     3.4220 C.ar    
   7 C7             0.0588    -0.2468     3.4793 C.ar    
   8 C8            -0.3502     0.4743     2.3778 C.ar    
   9 F9             1.6133    -1.7099     4.5064 F       
  10 F10            3.0889    -1.8036     2.2033 F       
  11 C11           -1.3278     1.9115     0.0345 C.ar    
  12 C12           -2.5349     1.2048    -0.0924 C.ar    
  13 C13           -3.7413     1.8922    -0.0709 C.ar    
  14 C14           -3.7542     3.2644     0.0746 C.ar    
  15 C15           -2.5627     3.9695     0.2006 C.ar    
  16 C16           -1.3535     3.3011     0.1871 C.ar    
  17 O17           -2.5876     5.3218     0.3434 O.3     
  18 C18           -3.8714     5.9493     0.3552 C.3     
  19 F19           -4.6273     5.4449     1.4189 F       
  20 F20           -3.7138     7.3308     0.5089 F       
  21 F21           -4.5301     5.6864    -0.8507 F       
  22 N22           -2.5220    -0.1778    -0.2394 N.pl3   
  23 H23            2.1418    -0.3824     0.2343 H       
  24 H24           -0.5201    -0.2134     4.3904 H       
  25 H25           -1.2484     1.0721     2.4260 H       
  26 H26           -4.6713     1.3519    -0.1685 H       
  27 H27           -4.6954     3.7937     0.0902 H       
  28 H28           -0.4298     3.8513     0.2901 H       
  29 H29           -1.6785    -0.6481    -0.3293 H       
  30 H30           -3.3566    -0.6720    -0.2520 H       
@<TRIPOS>BOND
   1    1    2 2
   2    1    3 1
   3    1   11 1
   4    3    4 ar
   5    3    8 ar
   6    4    5 ar
   7    4   23 1
   8    5    6 ar
   9    5   10 1
  10    6    7 ar
  11    6    9 1
  12    7    8 ar
  13    7   24 1
  14    8   25 1
  15   11   12 ar
  16   11   16 ar
  17   12   13 ar
  18   12   22 1
  19   13   14 ar
  20   13   26 1
  21   14   15 ar
  22   14   27 1
  23   15   16 ar
  24   15   17 1
  25   16   28 1
  26   17   18 1
  27   18   19 1
  28   18   20 1
  29   18   21 1
  30   22   29 1
  31   22   30 1

#	End of record

