#	Name: ASD02560374
#	Creating user name:	WinNT
#	Creation time:	15. 06. 2019 20:25

#	Modifying user name:	WinNT
#	Modification time:	15. 06. 2019 20:25

#	Program:	/corina/corina34_cracker 3.40 0067  02.08.2006

@<TRIPOS>MOLECULE
ASD02560374
  45   48    0    0    0
SMALL
NO_CHARGES


@<TRIPOS>ATOM
   1 C1             6.0965    -2.3639     4.6340 C.2     
   2 C2             4.7560    -2.1038     4.3000 C.2     
   3 C3             4.3647    -2.0947     3.0085 C.2     
   4 N4             5.2653    -2.3381     2.0057 N.pl3   
   5 C5             6.5845    -2.5959     2.3030 C.2     
   6 C6             7.0033    -2.6076     3.6509 C.2     
   7 C7             5.1351    -2.3872     0.6457 C.2     
   8 C8             6.3903    -2.6769     0.1347 C.2     
   9 N9             7.2427    -2.7960     1.1735 N.2     
  10 C10            6.7320    -2.8270    -1.2855 C.2     
  11 N11            3.9684    -2.1853    -0.0841 N.3     
  12 C12            3.0466    -3.3183     0.0729 C.3     
  13 C13            2.4114    -3.6501    -1.2789 C.3     
  14 C14            8.0329    -4.1633    -2.9284 C.3     
  15 C15            8.1126    -3.2799    -1.6846 C.3     
  16 C16            3.8178    -4.5358     0.5865 C.3     
  17 C17            2.8578    -5.7159     0.7500 C.3     
  18 C18            2.2226    -6.0476    -0.6018 C.3     
  19 C19            1.4514    -4.8301    -1.1154 C.3     
  20 C20            5.8087    -2.5649    -2.2326 C.2     
  21 C21            6.1414    -2.7589    -3.6451 C.2     
  22 C22            7.1964    -3.4962    -3.9858 C.2     
  23 Cl23           9.1363    -1.8385    -2.0388 Cl      
  24 Br24           2.5568    -1.7433     2.5795 Br      
  25 H25            6.4061    -2.3659     5.6687 H       
  26 H26            4.0355    -1.9106     5.0810 H       
  27 H27            8.0350    -2.8087     3.8990 H       
  28 H28            3.5236    -1.3183     0.1777 H       
  29 H29            2.2658    -3.0553     0.7864 H       
  30 H30            1.8620    -2.7827    -1.6449 H       
  31 H31            3.1923    -3.9131    -1.9925 H       
  32 H32            9.0374    -4.3321    -3.3166 H       
  33 H33            7.5845    -5.1208    -2.6634 H       
  34 H34            8.5582    -3.8460    -0.8666 H       
  35 H35            4.5987    -4.7989    -0.1270 H       
  36 H36            4.2703    -4.2995     1.5496 H       
  37 H37            3.4072    -6.5832     1.1160 H       
  38 H38            2.0769    -5.4528     1.4636 H       
  39 H39            3.0034    -6.3107    -1.3154 H       
  40 H40            1.5386    -6.8883    -0.4853 H       
  41 H41            0.6706    -4.5671    -0.4019 H       
  42 H42            0.9989    -5.0665    -2.0785 H       
  43 H43            4.8272    -2.2135    -1.9502 H       
  44 H44            5.5307    -2.3041    -4.4110 H       
  45 H45            7.4504    -3.6195    -5.0282 H       
@<TRIPOS>BOND
   1    1    2 1
   2    1    6 2
   3    1   25 1
   4    2    3 2
   5    2   26 1
   6    3    4 1
   7    3   24 1
   8    4    5 1
   9    4    7 1
  10    5    6 1
  11    5    9 2
  12    6   27 1
  13    7    8 2
  14    7   11 1
  15    8    9 1
  16    8   10 1
  17   10   20 2
  18   10   15 1
  19   11   12 1
  20   11   28 1
  21   12   16 1
  22   12   13 1
  23   12   29 1
  24   13   19 1
  25   13   30 1
  26   13   31 1
  27   14   15 1
  28   14   22 1
  29   14   32 1
  30   14   33 1
  31   15   23 1
  32   15   34 1
  33   16   17 1
  34   16   35 1
  35   16   36 1
  36   17   18 1
  37   17   37 1
  38   17   38 1
  39   18   19 1
  40   18   39 1
  41   18   40 1
  42   19   41 1
  43   19   42 1
  44   20   21 1
  45   20   43 1
  46   21   22 2
  47   21   44 1
  48   22   45 1

#	End of record

