#	Name: ASD03570008
#	Creating user name:	WinNT
#	Creation time:	15. 06. 2019 20:43

#	Modifying user name:	WinNT
#	Modification time:	15. 06. 2019 20:43

#	Program:	/corina/corina34_cracker 3.40 0067  02.08.2006

@<TRIPOS>MOLECULE
ASD03570008
  28   29    0    0    0
SMALL
NO_CHARGES


@<TRIPOS>ATOM
   1 C1            -0.0168     1.3859     0.0097 C.ar    
   2 C2             0.0021    -0.0041     0.0020 C.ar    
   3 C3             1.1969    -0.6901    -0.0127 C.ar    
   4 C4             2.3986     0.0125    -0.0204 C.ar    
   5 C5             2.3774     1.4211    -0.0131 C.ar    
   6 C6             1.1487     2.0966     0.0024 C.ar    
   7 N7             3.7164    -0.3789    -0.0348 N.pl3   
   8 C8             4.5155     0.7492    -0.0366 C.2     
   9 C9             3.7242     1.8550    -0.0236 C.2     
  10 C10            4.1968     3.2860    -0.0213 C.3     
  11 C11            4.3434     3.7770    -1.4629 C.3     
  12 Br12          -1.6279    -0.9627     0.0125 Br      
  13 Br13           1.1062     3.9871     0.0117 Br      
  14 C14            4.8160     5.2079    -1.4606 C.2     
  15 O15            5.0152     5.7767    -0.4134 O.2     
  16 O16            5.0157     5.8507    -2.6220 O.3     
  17 C17            5.9838     0.7529    -0.0500 C.2     
  18 O18            6.5891     1.8072    -0.0499 O.2     
  19 O19            6.6609    -0.4133    -0.0623 O.3     
  20 H20           -0.9620     1.9082     0.0170 H       
  21 H21            1.2011    -1.7700    -0.0178 H       
  22 H22            4.0334    -1.2957    -0.0419 H       
  23 H23            3.4705     3.9076     0.5022 H       
  24 H24            5.1606     3.3495     0.4839 H       
  25 H25            5.0697     3.1553    -1.9865 H       
  26 H26            3.3796     3.7135    -1.9681 H       
  27 H27            5.3190     6.7674    -2.5699 H       
  28 H28            7.6264    -0.3603    -0.0708 H       
@<TRIPOS>BOND
   1    1    2 ar
   2    1    6 ar
   3    1   20 1
   4    2    3 ar
   5    2   12 1
   6    3    4 ar
   7    3   21 1
   8    4    5 ar
   9    4    7 1
  10    5    6 ar
  11    5    9 1
  12    6   13 1
  13    7    8 1
  14    7   22 1
  15    8    9 2
  16    8   17 1
  17    9   10 1
  18   10   11 1
  19   10   23 1
  20   10   24 1
  21   11   14 1
  22   11   25 1
  23   11   26 1
  24   14   15 2
  25   14   16 1
  26   16   27 1
  27   17   18 2
  28   17   19 1
  29   19   28 1

#	End of record

