#	Name: ASD01900709
#	Creating user name:	WinNT
#	Creation time:	15. 06. 2019 19:52

#	Modifying user name:	WinNT
#	Modification time:	15. 06. 2019 19:52

#	Program:	/corina/corina34_cracker 3.40 0067  02.08.2006

@<TRIPOS>MOLECULE
ASD01900709
  53   56    0    0    0
SMALL
NO_CHARGES


@<TRIPOS>ATOM
   1 C1             0.4888     1.2933     0.1744 C.ar    
   2 C2             0.6845    -0.0525     0.4585 C.ar    
   3 C3            -0.3908    -0.9088     0.5815 C.ar    
   4 C4            -1.6840    -0.4293     0.4216 C.ar    
   5 C5            -1.8790     0.9277     0.1313 C.ar    
   6 O6            -2.7436    -1.2575     0.5513 O.3     
   7 C7            -3.9689    -0.9109     0.1197 C.2     
   8 C8            -4.3051     0.3685    -0.1843 C.2     
   9 C9            -3.2723     1.4103    -0.0480 C.2     
  10 C10           -4.9880    -1.9628    -0.0297 C.2     
  11 N11           -6.2328    -1.6451    -0.4627 N.2     
  12 C12           -7.1605    -2.5421    -0.6081 C.2     
  13 N13           -6.9290    -3.8613    -0.3305 N.pl3   
  14 C14           -5.6790    -4.2529     0.1157 C.2     
  15 C15           -4.6746    -3.2788     0.2666 C.2     
  16 C16           -0.7956     1.7882     0.0158 C.ar    
  17 C17           -7.7202    -4.9675    -0.4012 C.2     
  18 C18           -7.0030    -6.0495    -0.0111 C.2     
  19 C19           -5.7142    -5.6198     0.3186 C.2     
  20 O20            1.5574     2.1259     0.0575 O.3     
  21 C21            2.8521     1.5491     0.2393 C.3     
  22 C22            3.9206     2.6312     0.0715 C.3     
  23 N23            3.8190     3.5950     1.1755 N.3     
  24 C24            5.0405     4.4040     1.2822 C.3     
  25 C25            2.6337     4.4491     1.0212 C.3     
  26 C26            5.0720     5.1030     2.6428 C.3     
  27 C27            2.6576     5.1102    -0.3584 C.3     
  28 N28           -3.5658     2.6885    -0.0823 N.2     
  29 O29           -2.5670     3.6522     0.1985 O.3     
  30 H30            1.6877    -0.4322     0.5839 H       
  31 H31           -0.2261    -1.9531     0.8020 H       
  32 H32           -5.3022     0.6159    -0.5174 H       
  33 H33           -8.1372    -2.2395    -0.9559 H       
  34 H34           -3.6878    -3.5491     0.6122 H       
  35 H35           -0.9523     2.8337    -0.2049 H       
  36 H36           -8.7530    -4.9805    -0.7169 H       
  37 H37           -7.3642    -7.0662     0.0367 H       
  38 H38           -4.9003    -6.2387     0.6664 H       
  39 H39            2.9221     1.1212     1.2393 H       
  40 H40            3.0084     0.7660    -0.5027 H       
  41 H41            4.9086     2.1708     0.0810 H       
  42 H42            3.7693     3.1473    -0.8765 H       
  43 H43            5.9134     3.7585     1.1850 H       
  44 H44            5.0515     5.1518     0.4892 H       
  45 H45            1.7335     3.8421     1.1177 H       
  46 H46            2.6375     5.2187     1.7930 H       
  47 H47            4.2520     5.8186     2.7027 H       
  48 H48            4.9658     4.3616     3.4347 H       
  49 H49            6.0207     5.6268     2.7603 H       
  50 H50            1.8403     5.8276    -0.4317 H       
  51 H51            3.6076     5.6262    -0.4977 H       
  52 H52            2.5419     4.3477    -1.1287 H       
  53 H53           -2.8776     4.5666     0.1486 H       
@<TRIPOS>BOND
   1    1    2 ar
   2    1   20 1
   3    1   16 ar
   4    2    3 ar
   5    2   30 1
   6    3    4 ar
   7    3   31 1
   8    4    5 ar
   9    4    6 1
  10    5   16 ar
  11    5    9 1
  12    6    7 1
  13    7    8 2
  14    7   10 1
  15    8    9 1
  16    8   32 1
  17    9   28 2
  18   10   11 1
  19   10   15 2
  20   11   12 2
  21   12   13 1
  22   12   33 1
  23   13   14 1
  24   13   17 1
  25   14   15 1
  26   14   19 2
  27   15   34 1
  28   16   35 1
  29   17   18 2
  30   17   36 1
  31   18   19 1
  32   18   37 1
  33   19   38 1
  34   20   21 1
  35   21   22 1
  36   21   39 1
  37   21   40 1
  38   22   23 1
  39   22   41 1
  40   22   42 1
  41   23   24 1
  42   23   25 1
  43   24   26 1
  44   24   43 1
  45   24   44 1
  46   25   27 1
  47   25   45 1
  48   25   46 1
  49   26   47 1
  50   26   48 1
  51   26   49 1
  52   27   50 1
  53   27   51 1
  54   27   52 1
  55   28   29 1
  56   29   53 1

#	End of record

