#	Name: ASD01890410
#	Creating user name:	WinNT
#	Creation time:	15. 06. 2019 19:50

#	Modifying user name:	WinNT
#	Modification time:	15. 06. 2019 19:50

#	Program:	/corina/corina34_cracker 3.40 0067  02.08.2006

@<TRIPOS>MOLECULE
ASD01890410
  34   35    0    0    0
SMALL
NO_CHARGES


@<TRIPOS>ATOM
   1 C1            -0.0177     1.4575     0.0101 C.2     
   2 C2             0.0021    -0.0041     0.0020 C.2     
   3 C3             1.1813    -0.6637    -0.0128 C.2     
   4 O4             1.0281     2.0804     0.0034 O.2     
   5 C5            -1.3086     2.1795     0.0201 C.ar    
   6 C6            -1.3311     3.5754     0.0278 C.ar    
   7 C7            -2.5384     4.2426     0.0372 C.ar    
   8 C8            -3.7255     3.5314     0.0395 C.ar    
   9 C9            -3.7103     2.1478     0.0323 C.ar    
  10 C10           -2.5099     1.4682     0.0162 C.ar    
  11 C11           -5.0406     4.2671     0.0503 C.3     
  12 C12           -5.4932     4.5239    -1.3886 C.3     
  13 C13            1.2012    -2.1340    -0.0209 C.ar    
  14 C14            2.4205    -2.8206    -0.0362 C.ar    
  15 C15            2.4313    -4.1986    -0.0438 C.ar    
  16 C16            1.2388    -4.9043    -0.0367 C.ar    
  17 C17            0.0276    -4.2313    -0.0215 C.ar    
  18 C18            0.0011    -2.8535    -0.0075 C.ar    
  19 Cl19           1.2623    -6.6401    -0.0474 Cl      
  20 H20           -0.9258    -0.5567     0.0079 H       
  21 H21            2.1092    -0.1110    -0.0187 H       
  22 H22           -0.4054     4.1317     0.0268 H       
  23 H23           -2.5572     5.3224     0.0432 H       
  24 H24           -4.6403     1.5987     0.0345 H       
  25 H25           -2.4994     0.3883     0.0057 H       
  26 H26           -5.7896     3.6650     0.5647 H       
  27 H27           -4.9206     5.2184     0.5686 H       
  28 H28           -4.7443     5.1261    -1.9030 H       
  29 H29           -5.6132     3.5726    -1.9069 H       
  30 H30           -6.4444     5.0560    -1.3808 H       
  31 H31            3.3507    -2.2719    -0.0425 H       
  32 H32            3.3716    -4.7299    -0.0556 H       
  33 H33           -0.8979    -4.7880    -0.0164 H       
  34 H34           -0.9436    -2.3304     0.0088 H       
@<TRIPOS>BOND
   1    1    2 1
   2    1    4 2
   3    1    5 1
   4    2    3 2
   5    2   20 1
   6    3   13 1
   7    3   21 1
   8    5    6 ar
   9    5   10 ar
  10    6    7 ar
  11    6   22 1
  12    7    8 ar
  13    7   23 1
  14    8    9 ar
  15    8   11 1
  16    9   10 ar
  17    9   24 1
  18   10   25 1
  19   11   12 1
  20   11   26 1
  21   11   27 1
  22   12   28 1
  23   12   29 1
  24   12   30 1
  25   13   14 ar
  26   13   18 ar
  27   14   15 ar
  28   14   31 1
  29   15   16 ar
  30   15   32 1
  31   16   17 ar
  32   16   19 1
  33   17   18 ar
  34   17   33 1
  35   18   34 1

#	End of record

