#	Name: ASD03740029
#	Creating user name:	WinNT
#	Creation time:	15. 06. 2019 20:46

#	Modifying user name:	WinNT
#	Modification time:	15. 06. 2019 20:46

#	Program:	/corina/corina34_cracker 3.40 0067  02.08.2006

@<TRIPOS>MOLECULE
ASD03740029
  42   44    0    0    0
SMALL
NO_CHARGES


@<TRIPOS>ATOM
   1 C1            -0.0008     1.4093     0.0485 C.ar    
   2 C2             0.0326     0.0283     0.0586 C.ar    
   3 C3             1.2510    -0.6350     0.0583 C.ar    
   4 C4             2.4333     0.0909     0.0479 C.ar    
   5 C5             2.3945     1.4717     0.0378 C.ar    
   6 C6             1.1789     2.1304     0.0381 C.ar    
   7 C7             1.1396     3.6369     0.0272 C.3     
   8 N8             1.2424     4.1180    -1.3528 N.pl3   
   9 O9             1.2865    -1.9935     0.0687 O.3     
  10 C10            0.2182     4.2625    -2.2230 C.2     
  11 C11            0.7334     4.7327    -3.3900 C.2     
  12 C12            2.1135     4.8777    -3.2213 C.2     
  13 N13            2.4184     4.5153    -2.0015 N.2     
  14 O14           -1.0882     3.9874    -1.9765 O.3     
  15 C15           -1.9742     4.3165    -2.9365 C.2     
  16 C16           -3.4221     4.1580    -2.6910 C.ar    
  17 O17           -1.5823     4.7436    -4.0042 O.2     
  18 C18           -4.3432     4.4982    -3.6838 C.ar    
  19 C19           -5.6939     4.3477    -3.4478 C.ar    
  20 C20           -6.1367     3.8614    -2.2304 C.ar    
  21 C21           -5.2295     3.5224    -1.2422 C.ar    
  22 C22           -3.8757     3.6620    -1.4671 C.ar    
  23 C23            3.0832     5.3716    -4.2638 C.3     
  24 C24            2.5762    -2.6088     0.0677 C.3     
  25 H25           -0.9491     1.9261     0.0442 H       
  26 H26           -0.8892    -0.5345     0.0670 H       
  27 H27            3.3831    -0.4232     0.0480 H       
  28 H28            3.3146     2.0373     0.0300 H       
  29 H29            0.2005     3.9790     0.4622 H       
  30 H30            1.9737     4.0264     0.6108 H       
  31 H31            0.1757     4.9543    -4.2879 H       
  32 H32           -3.9989     4.8785    -4.6342 H       
  33 H33           -6.4074     4.6104    -4.2148 H       
  34 H34           -7.1954     3.7463    -2.0506 H       
  35 H35           -5.5820     3.1434    -0.2943 H       
  36 H36           -3.1686     3.3967    -0.6950 H       
  37 H37            3.1758     6.4551    -4.1896 H       
  38 H38            4.0578     4.9116    -4.1005 H       
  39 H39            2.7173     5.1053    -5.2554 H       
  40 H40            2.4617    -3.6927     0.0766 H       
  41 H41            3.1214    -2.3084    -0.8271 H       
  42 H42            3.1294    -2.2946     0.9528 H       
@<TRIPOS>BOND
   1    1    2 ar
   2    1    6 ar
   3    1   25 1
   4    2    3 ar
   5    2   26 1
   6    3    4 ar
   7    3    9 1
   8    4    5 ar
   9    4   27 1
  10    5    6 ar
  11    5   28 1
  12    6    7 1
  13    7    8 1
  14    7   29 1
  15    7   30 1
  16    8   10 1
  17    8   13 1
  18    9   24 1
  19   10   11 2
  20   10   14 1
  21   11   12 1
  22   11   31 1
  23   12   13 2
  24   12   23 1
  25   14   15 1
  26   15   16 1
  27   15   17 2
  28   16   18 ar
  29   16   22 ar
  30   18   19 ar
  31   18   32 1
  32   19   20 ar
  33   19   33 1
  34   20   21 ar
  35   20   34 1
  36   21   22 ar
  37   21   35 1
  38   22   36 1
  39   23   37 1
  40   23   38 1
  41   23   39 1
  42   24   40 1
  43   24   41 1
  44   24   42 1

#	End of record

