#	Name: ASD01881084
#	Creating user name:	WinNT
#	Creation time:	15. 06. 2019 19:42

#	Modifying user name:	WinNT
#	Modification time:	15. 06. 2019 19:42

#	Program:	/corina/corina34_cracker 3.40 0067  02.08.2006

@<TRIPOS>MOLECULE
ASD01881084
  48   51    0    0    0
SMALL
NO_CHARGES


@<TRIPOS>ATOM
   1 C1             0.6085     0.5574     0.1160 C.ar    
   2 C2             0.3354    -0.7100    -0.4103 C.ar    
   3 C3             1.3344    -1.4415    -1.0416 C.ar    
   4 C4             2.6134    -0.9005    -1.1467 C.ar    
   5 C5             2.8791     0.3827    -0.6113 C.ar    
   6 C6             1.8590     1.0991     0.0194 C.ar    
   7 C7             3.7079    -1.6221    -1.7998 C.2     
   8 C8             4.9217    -1.0532    -1.8727 C.2     
   9 N9             5.1816     0.1844    -1.3569 N.am    
  10 C10            4.2366     0.9205    -0.7397 C.2     
  11 C11            6.5353     0.7310    -1.4790 C.3     
  12 C12            6.6502     1.5221    -2.7835 C.3     
  13 C13            8.0640     2.0929    -2.9110 C.3     
  14 O14            4.5076     2.0208    -0.2929 O.2     
  15 Cl15           2.1790     2.6734     0.6773 Cl      
  16 C16           -1.0296    -1.2770    -0.2932 C.ar    
  17 C17           -2.0366    -0.5489     0.3393 C.ar    
  18 C18           -3.3050    -1.0785     0.4463 C.ar    
  19 C19           -3.5802    -2.3360    -0.0753 C.ar    
  20 C20           -2.5793    -3.0636    -0.7059 C.ar    
  21 C21           -1.3103    -2.5370    -0.8205 C.ar    
  22 O22           -4.8307    -2.8554     0.0320 O.3     
  23 C23           -5.1119    -3.6224     1.1178 C.ar    
  24 C24           -4.1726    -3.7668     2.1288 C.ar    
  25 C25           -4.4611    -4.5468     3.2318 C.ar    
  26 C26           -5.6847    -5.1834     3.3288 C.ar    
  27 C27           -6.6225    -5.0412     2.3227 C.ar    
  28 C28           -6.3410    -4.2581     1.2201 C.ar    
  29 H29           -0.1792     1.1155     0.6002 H       
  30 H30            1.1211    -2.4198    -1.4464 H       
  31 H31            3.5400    -2.6033    -2.2188 H       
  32 H32            5.7217    -1.5939    -2.3564 H       
  33 H33            6.7384     1.3904    -0.6351 H       
  34 H34            7.2576    -0.0853    -1.4843 H       
  35 H35            6.4471     0.8627    -3.6274 H       
  36 H36            5.9279     2.3384    -2.7783 H       
  37 H37            8.1459     2.6565    -3.8404 H       
  38 H38            8.2671     2.7522    -2.0672 H       
  39 H39            8.7863     1.2766    -2.9163 H       
  40 H40           -1.8231     0.4288     0.7454 H       
  41 H41           -4.0852    -0.5152     0.9364 H       
  42 H42           -2.7961    -4.0413    -1.1101 H       
  43 H43           -0.5325    -3.1031    -1.3113 H       
  44 H44           -3.2165    -3.2700     2.0533 H       
  45 H45           -3.7302    -4.6597     4.0188 H       
  46 H46           -5.9082    -5.7930     4.1918 H       
  47 H47           -7.5775    -5.5395     2.4010 H       
  48 H48           -7.0740    -4.1470     0.4347 H       
@<TRIPOS>BOND
   1    1    2 ar
   2    1    6 ar
   3    1   29 1
   4    2    3 ar
   5    2   16 1
   6    3    4 ar
   7    3   30 1
   8    4    5 ar
   9    4    7 1
  10    5    6 ar
  11    5   10 1
  12    6   15 1
  13    7    8 2
  14    7   31 1
  15    8    9 1
  16    8   32 1
  17    9   10 am
  18    9   11 1
  19   10   14 2
  20   11   12 1
  21   11   33 1
  22   11   34 1
  23   12   13 1
  24   12   35 1
  25   12   36 1
  26   13   37 1
  27   13   38 1
  28   13   39 1
  29   16   17 ar
  30   16   21 ar
  31   17   18 ar
  32   17   40 1
  33   18   19 ar
  34   18   41 1
  35   19   20 ar
  36   19   22 1
  37   20   21 ar
  38   20   42 1
  39   21   43 1
  40   22   23 1
  41   23   24 ar
  42   23   28 ar
  43   24   25 ar
  44   24   44 1
  45   25   26 ar
  46   25   45 1
  47   26   27 ar
  48   26   46 1
  49   27   28 ar
  50   27   47 1
  51   28   48 1

#	End of record

