#	Name: ASD01840384
#	Creating user name:	WinNT
#	Creation time:	15. 06. 2019 19:37

#	Modifying user name:	WinNT
#	Modification time:	15. 06. 2019 19:37

#	Program:	/corina/corina34_cracker 3.40 0067  02.08.2006

@<TRIPOS>MOLECULE
ASD01840384
  56   59    0    0    0
SMALL
NO_CHARGES


@<TRIPOS>ATOM
   1 C1             0.2611     1.7552    -0.9980 C.ar    
   2 C2             0.3841     0.5320    -1.6195 C.ar    
   3 N3             1.4990    -0.1677    -1.4965 N.ar    
   4 N4             2.4999     0.2427    -0.8111 N.ar    
   5 C5             1.3546     2.2267    -0.2364 C.ar    
   6 C6             1.5104     3.4570     0.5171 C.2     
   7 C7             2.4928     1.4121    -0.1670 C.ar    
   8 S8             3.7250     2.1824     0.8223 S.3     
   9 C9             2.7118     3.5783     1.1344 C.2     
  10 C10           -0.9999     2.5697    -1.1313 C.3     
  11 C11           -0.7562    -0.0106    -2.4419 C.3     
  12 N12            0.5179     4.4243     0.5985 N.pl3   
  13 C13            3.1102     4.7236     1.9514 C.2     
  14 O14            2.3404     5.6527     2.1138 O.2     
  15 N15            4.3297     4.7507     2.5248 N.am    
  16 C16            5.3531     3.6998     2.4105 C.3     
  17 C17            6.5727     4.1504     3.2471 C.3     
  18 C18            5.9616     5.1821     4.2079 C.3     
  19 C19            4.8601     5.8432     3.3657 C.3     
  20 C20            5.5574     4.6693     5.5846 C.3     
  21 C21            6.9389     6.1201     4.9056 C.3     
  22 N22            6.0677     5.9620     6.0901 N.am    
  23 C23            5.8321     6.7019     7.1917 C.2     
  24 O24            6.4762     7.8710     7.3679 O.3     
  25 C25            6.1731     8.6149     8.5774 C.3     
  26 C26            6.5227     7.7646     9.8003 C.3     
  27 C27            6.9946     9.9054     8.6018 C.3     
  28 C28            4.6824     8.9587     8.6045 C.3     
  29 O29            5.0383     6.3139     8.0259 O.2     
  30 H30           -1.6441     2.3852    -0.2716 H       
  31 H31           -0.7456     3.6287    -1.1742 H       
  32 H32           -1.5220     2.2841    -2.0445 H       
  33 H33           -0.6493     0.3210    -3.4747 H       
  34 H34           -0.7433    -1.1000    -2.4068 H       
  35 H35           -1.7008     0.3547    -2.0389 H       
  36 H36           -0.4028     4.1923     0.4002 H       
  37 H37            0.7452     5.3322     0.8537 H       
  38 H38            4.9636     2.7594     2.8003 H       
  39 H39            5.6443     3.5782     1.3671 H       
  40 H40            6.9940     3.3104     3.7992 H       
  41 H41            7.3272     4.6139     2.6115 H       
  42 H42            5.2780     6.6338     2.7425 H       
  43 H43            4.0766     6.2409     4.0108 H       
  44 H44            4.4821     4.5408     5.7090 H       
  45 H45            6.1329     3.8065     5.9201 H       
  46 H46            7.9370     5.7012     5.0334 H       
  47 H47            6.9480     7.1306     4.4969 H       
  48 H48            7.5846     7.5197     9.7810 H       
  49 H49            6.2951     8.3231    10.7083 H       
  50 H50            5.9374     6.8452     9.7829 H       
  51 H51            6.7455    10.5112     7.7305 H       
  52 H52            6.7670    10.4639     9.5097 H       
  53 H53            8.0565     9.6605     8.5824 H       
  54 H54            4.0971     8.0394     8.5871 H       
  55 H55            4.4548     9.5172     9.5125 H       
  56 H56            4.4333     9.5645     7.7333 H       
@<TRIPOS>BOND
   1    1    2 ar
   2    1    5 ar
   3    1   10 1
   4    2   11 1
   5    2    3 ar
   6    3    4 ar
   7    4    7 ar
   8    5    7 ar
   9    5    6 1
  10    6    9 2
  11    6   12 1
  12    7    8 1
  13    8    9 1
  14    9   13 1
  15   10   30 1
  16   10   31 1
  17   10   32 1
  18   11   33 1
  19   11   34 1
  20   11   35 1
  21   12   36 1
  22   12   37 1
  23   13   14 2
  24   13   15 am
  25   15   16 1
  26   15   19 1
  27   16   17 1
  28   16   38 1
  29   16   39 1
  30   17   18 1
  31   17   40 1
  32   17   41 1
  33   18   19 1
  34   18   20 1
  35   18   21 1
  36   19   42 1
  37   19   43 1
  38   20   22 1
  39   20   44 1
  40   20   45 1
  41   21   22 1
  42   21   46 1
  43   21   47 1
  44   22   23 am
  45   23   24 1
  46   23   29 2
  47   24   25 1
  48   25   26 1
  49   25   27 1
  50   25   28 1
  51   26   48 1
  52   26   49 1
  53   26   50 1
  54   27   51 1
  55   27   52 1
  56   27   53 1
  57   28   54 1
  58   28   55 1
  59   28   56 1

#	End of record

