#	Name: ASD00550001
#	Creating user name:	WinNT
#	Creation time:	15. 06. 2019 18:36

#	Modifying user name:	WinNT
#	Modification time:	15. 06. 2019 18:36

#	Program:	/corina/corina34_cracker 3.40 0067  02.08.2006

@<TRIPOS>MOLECULE
ASD00550001
  71   73    0    0    0
SMALL
NO_CHARGES


@<TRIPOS>ATOM
   1 C1            -1.1871     3.0227    -0.4473 C.ar    
   2 C2            -0.9907     1.6658    -0.6803 C.ar    
   3 C3            -2.0636     0.8008    -0.6687 C.ar    
   4 C4            -3.3492     1.2891    -0.4219 C.ar    
   5 C5            -3.5416     2.6533    -0.1878 C.ar    
   6 C6            -2.4640     3.5106    -0.1963 C.ar    
   7 C7            -4.5013     0.3665    -0.4089 C.2     
   8 O8            -0.1283     3.8719    -0.4595 O.3     
   9 C9            -0.4134     5.2662    -0.3306 C.3     
  10 C10           -0.5350     5.6270     1.1513 C.3     
  11 C11            0.7188     6.0788    -0.9621 C.3     
  12 Cl12           0.6074     1.0611    -0.9868 Cl      
  13 O13           -4.3322    -0.8201    -0.6131 O.2     
  14 N14           -5.7407     0.8393    -0.1706 N.am    
  15 C15           -6.8841    -0.0764    -0.1578 C.3     
  16 C16           -7.3938    -0.2760    -1.5865 C.3     
  17 C17           -6.3198    -0.9811    -2.4173 C.3     
  18 O18           -6.7959    -1.1675    -3.7517 O.3     
  19 C19           -8.0013     0.5148     0.7043 C.3     
  20 C20           -7.5403     0.5972     2.1367 C.ar    
  21 C21           -6.9014     1.7374     2.5902 C.ar    
  22 C22           -6.4765     1.8189     3.9003 C.ar    
  23 C23           -6.6929     0.7483     4.7686 C.ar    
  24 C24           -7.3383    -0.3987     4.3052 C.ar    
  25 C25           -7.7629    -0.4656     2.9941 C.ar    
  26 C26           -6.2396     0.8287     6.1743 C.2     
  27 N27           -6.3899    -0.1440     7.1189 N.pl3   
  28 C28           -5.8346     0.3322     8.2758 C.2     
  29 C29           -5.3657     1.5683     8.0092 C.2     
  30 N30           -5.6180     1.8474     6.7253 N.2     
  31 C31           -5.7614    -0.3883     9.5974 C.3     
  32 C32           -4.6708     2.4780     8.9893 C.3     
  33 C33           -3.4922     1.7378     9.6248 C.3     
  34 C34           -4.1581     3.7199     8.2572 C.3     
  35 C35           -5.6564     2.9000    10.0808 C.3     
  36 H36           -1.9109    -0.2528    -0.8504 H       
  37 H37           -4.5340     3.0343     0.0030 H       
  38 H38           -2.6123     4.5649    -0.0151 H       
  39 H39           -1.3508     5.4938    -0.8381 H       
  40 H40           -0.7525     6.6906     1.2496 H       
  41 H41           -1.3416     5.0481     1.6011 H       
  42 H42            0.4024     5.3994     1.6588 H       
  43 H43            0.8055     5.8217    -2.0178 H       
  44 H44            0.5014     7.1423    -0.8638 H       
  45 H45            1.6562     5.8512    -0.4546 H       
  46 H46           -5.8756     1.7860    -0.0077 H       
  47 H47           -6.5759    -1.0368     0.2555 H       
  48 H48           -8.2973    -0.8854    -1.5681 H       
  49 H49           -7.6185     0.6937    -2.0309 H       
  50 H50           -5.4163    -0.3717    -2.4356 H       
  51 H51           -6.0951    -1.9508    -1.9729 H       
  52 H52           -6.1651    -1.6099    -4.3361 H       
  53 H53           -8.2483     1.5135     0.3442 H       
  54 H54           -8.8836    -0.1222     0.6427 H       
  55 H55           -6.7345     2.5654     1.9171 H       
  56 H56           -5.9772     2.7093     4.2529 H       
  57 H57           -7.5084    -1.2309     4.9722 H       
  58 H58           -8.2629    -1.3527     2.6342 H       
  59 H59           -6.8110    -1.0089     6.9944 H       
  60 H60           -4.8821    -1.0322     9.6120 H       
  61 H61           -5.6914     0.3404    10.4050 H       
  62 H62           -6.6576    -0.9940     9.7311 H       
  63 H63           -2.7900     1.4372     8.8472 H       
  64 H64           -2.9895     2.3958    10.3337 H       
  65 H65           -3.8574     0.8531    10.1464 H       
  66 H66           -4.9977     4.2472     7.8044 H       
  67 H67           -3.6554     4.3779     8.9660 H       
  68 H68           -3.4559     3.4192     7.4796 H       
  69 H69           -5.9347     2.0298    10.6752 H       
  70 H70           -5.1887     3.6452    10.7243 H       
  71 H71           -6.5480     3.3257     9.6204 H       
@<TRIPOS>BOND
   1    1    2 ar
   2    1    8 1
   3    1    6 ar
   4    2    3 ar
   5    2   12 1
   6    3    4 ar
   7    3   36 1
   8    4    5 ar
   9    4    7 1
  10    5    6 ar
  11    5   37 1
  12    6   38 1
  13    7   13 2
  14    7   14 am
  15    8    9 1
  16    9   10 1
  17    9   11 1
  18    9   39 1
  19   10   40 1
  20   10   41 1
  21   10   42 1
  22   11   43 1
  23   11   44 1
  24   11   45 1
  25   14   15 1
  26   14   46 1
  27   15   16 1
  28   15   19 1
  29   15   47 1
  30   16   17 1
  31   16   48 1
  32   16   49 1
  33   17   18 1
  34   17   50 1
  35   17   51 1
  36   18   52 1
  37   19   20 1
  38   19   53 1
  39   19   54 1
  40   20   21 ar
  41   20   25 ar
  42   21   22 ar
  43   21   55 1
  44   22   23 ar
  45   22   56 1
  46   23   24 ar
  47   23   26 1
  48   24   25 ar
  49   24   57 1
  50   25   58 1
  51   26   27 1
  52   26   30 2
  53   27   28 1
  54   27   59 1
  55   28   29 2
  56   28   31 1
  57   29   30 1
  58   29   32 1
  59   31   60 1
  60   31   61 1
  61   31   62 1
  62   32   33 1
  63   32   34 1
  64   32   35 1
  65   33   63 1
  66   33   64 1
  67   33   65 1
  68   34   66 1
  69   34   67 1
  70   34   68 1
  71   35   69 1
  72   35   70 1
  73   35   71 1

#	End of record

