#	Name: ASD08150983
#	Creating user name:	WinNT
#	Creation time:	15. 06. 2019 21:16

#	Modifying user name:	WinNT
#	Modification time:	15. 06. 2019 21:16

#	Program:	/corina/corina34_cracker 3.40 0067  02.08.2006

@<TRIPOS>MOLECULE
ASD08150983
  29   30    0    0    0
SMALL
NO_CHARGES


@<TRIPOS>ATOM
   1 C1             0.1276     1.2071    -0.3082 C.ar    
   2 C2             0.0439    -0.1746    -0.3909 C.ar    
   3 C3             1.1867    -0.9426    -0.6772 C.ar    
   4 C4             2.3912    -0.3503    -0.8783 C.ar    
   5 C5             2.5096     1.0496    -0.8017 C.ar    
   6 C6             3.7461     1.6842    -1.0066 C.ar    
   7 C7             3.8300     3.0407    -0.9267 C.ar    
   8 C8             2.7058     3.8141    -0.6440 C.ar    
   9 C9             1.4912     3.2350    -0.4395 C.ar    
  10 C10            1.3657     1.8364    -0.5135 C.ar    
  11 C11           -1.2547    -0.8445    -0.1763 C.2     
  12 O12           -2.2754    -0.3442    -0.6075 O.2     
  13 N13           -1.3082    -2.0105     0.4975 N.am    
  14 C14           -2.6046    -2.6171     0.8099 C.3     
  15 O15           -0.1115    -2.6492     0.9035 O.3     
  16 C16            0.2827    -2.3474     2.2435 C.3     
  17 Br17          -1.4138     2.2351     0.0699 Br      
  18 H18            1.1049    -2.0179    -0.7375 H       
  19 H19            3.2596    -0.9541    -1.0969 H       
  20 H20            4.6265     1.0985    -1.2263 H       
  21 H21            4.7824     3.5248    -1.0845 H       
  22 H22            2.7997     4.8885    -0.5859 H       
  23 H23            0.6282     3.8465    -0.2208 H       
  24 H24           -2.8994    -3.2825    -0.0016 H       
  25 H25           -2.5257    -3.1864     1.7360 H       
  26 H26           -3.3534    -1.8338     0.9276 H       
  27 H27            0.4417    -1.2736     2.3423 H       
  28 H28           -0.5004    -2.6637     2.9325 H       
  29 H29            1.2075    -2.8747     2.4777 H       
@<TRIPOS>BOND
   1    1    2 ar
   2    1   10 ar
   3    1   17 1
   4    2    3 ar
   5    2   11 1
   6    3    4 ar
   7    3   18 1
   8    4    5 ar
   9    4   19 1
  10    5    6 ar
  11    5   10 ar
  12    6    7 ar
  13    6   20 1
  14    7    8 ar
  15    7   21 1
  16    8    9 ar
  17    8   22 1
  18    9   10 ar
  19    9   23 1
  20   11   12 2
  21   11   13 am
  22   13   14 1
  23   13   15 1
  24   14   24 1
  25   14   25 1
  26   14   26 1
  27   15   16 1
  28   16   27 1
  29   16   28 1
  30   16   29 1

#	End of record

