#	Name: ASD03240698
#	Creating user name:	WinNT
#	Creation time:	15. 06. 2019 20:35

#	Modifying user name:	WinNT
#	Modification time:	15. 06. 2019 20:35

#	Program:	/corina/corina34_cracker 3.40 0067  02.08.2006

@<TRIPOS>MOLECULE
ASD03240698
  54   59    0    0    0
SMALL
NO_CHARGES


@<TRIPOS>ATOM
   1 C1            -0.0188     1.5336     0.0105 C.3     
   2 C2             0.0021    -0.0041     0.0020 C.3     
   3 C3             1.3815     0.0967    -0.6702 C.3     
   4 C4             1.5179     1.4762    -0.0045 C.3     
   5 N5            -0.5976     2.1209    -1.2052 N.3     
   6 C6            -0.5886     2.1226     1.2751 C.ar    
   7 C7            -1.2406     3.3421     1.2342 C.ar    
   8 C8            -1.7649     3.8865     2.3886 C.ar    
   9 C9            -1.6363     3.2045     3.5987 C.ar    
  10 C10           -0.9778     1.9753     3.6334 C.ar    
  11 C11           -0.4624     1.4390     2.4713 C.ar    
  12 C12           -3.1538     7.5856     7.4203 C.2     
  13 N13           -3.6893     6.8356     8.3996 N.2     
  14 C14           -3.7522     5.5315     8.3193 C.2     
  15 C15           -3.2254     4.8672     7.1289 C.ar    
  16 C16           -2.6643     5.6599     6.1048 C.ar    
  17 N17           -2.6414     7.0304     6.2791 N.pl3   
  18 C18           -3.2644     3.4766     6.9846 C.ar    
  19 C19           -2.7396     2.9276     5.8189 C.ar    
  20 C20           -2.1962     3.7834     4.8414 C.ar    
  21 N21           -2.1772     5.0968     5.0131 N.ar    
  22 N22           -2.1663     8.0708     5.4715 N.2     
  23 C23           -2.3754     9.2110     6.0847 C.2     
  24 C24           -2.9850     8.9590     7.3074 C.2     
  25 C25           -2.7519     1.4600     5.6087 C.ar    
  26 C26           -2.2722     0.6070     6.6013 C.ar    
  27 C27           -2.2865    -0.7583     6.4002 C.ar    
  28 C28           -2.7754    -1.2806     5.2162 C.ar    
  29 C29           -3.2524    -0.4389     4.2275 C.ar    
  30 C30           -3.2487     0.9277     4.4199 C.ar    
  31 C31           -2.0091    10.5724     5.5523 C.3     
  32 H32            0.0329    -0.4458     0.9980 H       
  33 H33           -0.7629    -0.4476    -0.6353 H       
  34 H34            2.0998    -0.6373    -0.3050 H       
  35 H35            1.3349     0.1396    -1.7584 H       
  36 H36            1.9766     2.2276    -0.6471 H       
  37 H37            1.9632     1.4391     0.9897 H       
  38 H38           -0.5917     3.1288    -1.1580 H       
  39 H39           -0.1154     1.7947    -2.0293 H       
  40 H40           -1.3392     3.8693     0.2968 H       
  41 H41           -2.2734     4.8387     2.3555 H       
  42 H42           -0.8748     1.4428     4.5673 H       
  43 H43            0.0441     0.4854     2.4962 H       
  44 H44           -4.1875     4.9538     9.1212 H       
  45 H45           -3.6880     2.8485     7.7544 H       
  46 H46           -3.2768     9.6988     8.0381 H       
  47 H47           -1.8896     1.0137     7.5257 H       
  48 H48           -1.9151    -1.4201     7.1685 H       
  49 H49           -2.7844    -2.3496     5.0631 H       
  50 H50           -3.6326    -0.8522     3.3050 H       
  51 H51           -3.6255     1.5837     3.6492 H       
  52 H52           -2.8425    10.9732     4.9754 H       
  53 H53           -1.7886    11.2408     6.3846 H       
  54 H54           -1.1312    10.4878     4.9118 H       
@<TRIPOS>BOND
   1    1    2 1
   2    1    4 1
   3    1    5 1
   4    1    6 1
   5    2    3 1
   6    2   32 1
   7    2   33 1
   8    3    4 1
   9    3   34 1
  10    3   35 1
  11    4   36 1
  12    4   37 1
  13    5   38 1
  14    5   39 1
  15    6    7 ar
  16    6   11 ar
  17    7    8 ar
  18    7   40 1
  19    8    9 ar
  20    8   41 1
  21    9   10 ar
  22    9   20 1
  23   10   11 ar
  24   10   42 1
  25   11   43 1
  26   12   13 1
  27   12   17 1
  28   12   24 2
  29   13   14 2
  30   14   15 1
  31   14   44 1
  32   15   16 ar
  33   15   18 ar
  34   16   17 1
  35   16   21 ar
  36   17   22 1
  37   18   19 ar
  38   18   45 1
  39   19   20 ar
  40   19   25 1
  41   20   21 ar
  42   22   23 2
  43   23   24 1
  44   23   31 1
  45   24   46 1
  46   25   26 ar
  47   25   30 ar
  48   26   27 ar
  49   26   47 1
  50   27   28 ar
  51   27   48 1
  52   28   29 ar
  53   28   49 1
  54   29   30 ar
  55   29   50 1
  56   30   51 1
  57   31   52 1
  58   31   53 1
  59   31   54 1

#	End of record

