#	Name: ASD03900003
#	Creating user name:	WinNT
#	Creation time:	15. 06. 2019 20:47

#	Modifying user name:	WinNT
#	Modification time:	15. 06. 2019 20:47

#	Program:	/corina/corina34_cracker 3.40 0067  02.08.2006

@<TRIPOS>MOLECULE
ASD03900003
  59   61    0    0    0
SMALL
NO_CHARGES


@<TRIPOS>ATOM
   1 C1             0.0124     1.4903     0.0768 C.3     
   2 C2            -0.0303     0.0009     0.3028 C.ar    
   3 C3             1.4422     1.9297    -0.1065 C.ar    
   4 C4            -0.7810     1.8340    -1.1575 C.ar    
   5 C5            -0.5904     2.2072     1.2866 C.3     
   6 C6            -1.2447    -0.6354     0.4821 C.ar    
   7 C7            -1.2866    -2.0005     0.6894 C.ar    
   8 C8            -0.1087    -2.7332     0.7173 C.ar    
   9 C9             1.1085    -2.0923     0.5368 C.ar    
  10 C10            1.1446    -0.7277     0.3250 C.ar    
  11 C11            2.1483     1.5316    -1.2266 C.ar    
  12 C12            3.4591     1.9331    -1.3970 C.ar    
  13 C13            4.0667     2.7369    -0.4433 C.ar    
  14 C14            3.3558     3.1353     0.6796 C.ar    
  15 C15            2.0438     2.7351     0.8429 C.ar    
  16 C16           -1.0194     3.1576    -1.4783 C.ar    
  17 C17           -1.7463     3.4753    -2.6092 C.ar    
  18 C18           -2.2370     2.4649    -3.4236 C.ar    
  19 C19           -1.9960     1.1375    -3.0997 C.ar    
  20 C20           -1.2644     0.8252    -1.9703 C.ar    
  21 O21           -2.9528     2.7749    -4.5365 O.3     
  22 C22           -2.2917     3.3891    -5.5381 C.2     
  23 C23           -3.0233     3.8549    -6.7242 C.2     
  24 O24           -1.0906     3.5575    -5.4599 O.2     
  25 O25           -0.1472    -4.0763     0.9216 O.3     
  26 C26           -0.5433    -4.8419    -0.1149 C.2     
  27 O27           -0.7555    -4.3347    -1.1989 O.2     
  28 C28           -0.7184    -6.2895     0.0658 C.2     
  29 O29            5.3563     3.1328    -0.6084 O.3     
  30 C30            5.5858     4.1115    -1.5067 C.2     
  31 C31            6.9379     4.6661    -1.6596 C.2     
  32 O32            4.6743     4.5350    -2.1902 O.2     
  33 C33            7.1645     5.6322    -2.5465 C.2     
  34 C34           -1.1095    -7.0454    -0.9575 C.2     
  35 C35           -2.3707     4.4613    -7.7130 C.2     
  36 H36           -0.0166     1.9586     2.1793 H       
  37 H37           -0.5595     3.2844     1.1231 H       
  38 H38           -1.6246     1.8893     1.4192 H       
  39 H39           -2.1613    -0.0646     0.4602 H       
  40 H40           -2.2354    -2.4970     0.8301 H       
  41 H41            2.0268    -2.6604     0.5581 H       
  42 H42            2.0918    -0.2285     0.1840 H       
  43 H43            1.6749     0.9060    -1.9688 H       
  44 H44            4.0105     1.6213    -2.2718 H       
  45 H45            3.8266     3.7610     1.4235 H       
  46 H46            1.4898     3.0453     1.7166 H       
  47 H47           -0.6372     3.9438    -0.8440 H       
  48 H48           -1.9328     4.5094    -2.8590 H       
  49 H49           -2.3769     0.3492    -3.7320 H       
  50 H50           -1.0762    -0.2079    -1.7179 H       
  51 H51           -4.0906     3.7052    -6.7936 H       
  52 H52           -0.5299    -6.7402     1.0290 H       
  53 H53            7.7478     4.2897    -1.0523 H       
  54 H54            6.3545     6.0086    -3.1538 H       
  55 H55            8.1582     6.0399    -2.6589 H       
  56 H56           -1.2980    -6.5947    -1.9207 H       
  57 H57           -1.2382    -8.1094    -0.8246 H       
  58 H58           -1.3034     4.6109    -7.6435 H       
  59 H59           -2.9084     4.8036    -8.5848 H       
@<TRIPOS>BOND
   1    1    2 1
   2    1    3 1
   3    1    4 1
   4    1    5 1
   5    2    6 ar
   6    2   10 ar
   7    3   11 ar
   8    3   15 ar
   9    4   16 ar
  10    4   20 ar
  11    5   36 1
  12    5   37 1
  13    5   38 1
  14    6    7 ar
  15    6   39 1
  16    7    8 ar
  17    7   40 1
  18    8    9 ar
  19    8   25 1
  20    9   10 ar
  21    9   41 1
  22   10   42 1
  23   11   12 ar
  24   11   43 1
  25   12   13 ar
  26   12   44 1
  27   13   14 ar
  28   13   29 1
  29   14   15 ar
  30   14   45 1
  31   15   46 1
  32   16   17 ar
  33   16   47 1
  34   17   18 ar
  35   17   48 1
  36   18   19 ar
  37   18   21 1
  38   19   20 ar
  39   19   49 1
  40   20   50 1
  41   21   22 1
  42   22   23 1
  43   22   24 2
  44   23   35 2
  45   23   51 1
  46   25   26 1
  47   26   27 2
  48   26   28 1
  49   28   34 2
  50   28   52 1
  51   29   30 1
  52   30   31 1
  53   30   32 2
  54   31   33 2
  55   31   53 1
  56   33   54 1
  57   33   55 1
  58   34   56 1
  59   34   57 1
  60   35   58 1
  61   35   59 1

#	End of record

