#	Name: ASD03090033
#	Creating user name:	WinNT
#	Creation time:	15. 06. 2019 20:28

#	Modifying user name:	WinNT
#	Modification time:	15. 06. 2019 20:28

#	Program:	/corina/corina34_cracker 3.40 0067  02.08.2006

@<TRIPOS>MOLECULE
ASD03090033
 116  117    0    0    0
SMALL
NO_CHARGES


@<TRIPOS>ATOM
   1 C1            -0.0167     1.3784     0.0096 C.ar    
   2 C2             0.0021    -0.0041     0.0020 C.ar    
   3 C3             1.2070    -0.6796    -0.0132 C.ar    
   4 C4             2.3989     0.0304    -0.0208 C.ar    
   5 C5             2.3774     1.4175    -0.0131 C.ar    
   6 C6             1.1698     2.0883     0.0021 C.ar    
   7 O7             3.5855    -0.6319    -0.0353 O.3     
   8 C8             3.5315    -2.0599    -0.0419 C.3     
   9 C9             3.6702     2.1918    -0.0209 C.3     
  10 N10            4.2013     2.2444    -1.3895 N.3     
  11 C11            5.4642     2.9934    -1.4357 C.3     
  12 C12            5.9852     3.0264    -2.8739 C.3     
  13 C13            7.3006     3.8064    -2.9220 C.3     
  14 C14            7.8216     3.8395    -4.3601 C.3     
  15 C15            9.1369     4.6195    -4.4083 C.3     
  16 C16            9.6579     4.6525    -5.8464 C.3     
  17 N17           10.9209     5.4014    -5.8926 N.3     
  18 C18           11.4519     5.4541    -7.2613 C.3     
  19 C19           12.7645     6.2402    -7.2691 C.3     
  20 C20           13.3176     6.2950    -8.6946 C.3     
  21 C21           14.6302     7.0812    -8.7024 C.3     
  22 C22           15.1833     7.1360   -10.1279 C.3     
  23 C23           16.4959     7.9221   -10.1357 C.3     
  24 C24           17.0490     7.9769   -11.5612 C.3     
  25 C25           18.3616     8.7631   -11.5691 C.3     
  26 C26           18.9147     8.8179   -12.9945 C.3     
  27 C27           20.2273     9.6040   -13.0024 C.3     
  28 C28           20.7804     9.6588   -14.4278 C.3     
  29 C29           22.0929    10.4450   -14.4357 C.3     
  30 N30           22.6240    10.4976   -15.8043 N.3     
  31 C31           23.8869    11.2465   -15.8505 C.3     
  32 C32           24.4080    11.2796   -17.2887 C.3     
  33 C33           25.7233    12.0596   -17.3368 C.3     
  34 C34           26.2443    12.0927   -18.7750 C.3     
  35 C35           27.5597    12.8727   -18.8231 C.3     
  36 C36           28.0807    12.9057   -20.2613 C.3     
  37 N37           29.3436    13.6546   -20.3075 N.3     
  38 C38           29.8747    13.7072   -21.6761 C.3     
  39 C39           31.1675    14.4816   -21.6838 C.ar    
  40 C40           32.3468    13.8678   -21.2872 C.ar    
  41 C41           33.5353    14.5834   -21.2954 C.ar    
  42 C42           33.5418    15.9048   -21.6983 C.ar    
  43 C43           32.3651    16.5143   -22.0927 C.ar    
  44 C44           31.1803    15.8015   -22.0913 C.ar    
  45 O45           32.3376    12.5679   -20.8908 O.3     
  46 C46           33.5886    12.0013   -20.4958 C.3     
  47 H47           -0.9597     1.9047     0.0170 H       
  48 H48           -0.9260    -0.5563     0.0083 H       
  49 H49            1.2211    -1.7595    -0.0187 H       
  50 H50            1.1525     3.1682     0.0081 H       
  51 H51            2.9959    -2.3990    -0.9287 H       
  52 H52            4.5446    -2.4617    -0.0535 H       
  53 H53            3.0127    -2.4080     0.8512 H       
  54 H54            3.4890     3.2051     0.3378 H       
  55 H55            4.3924     1.6996     0.6305 H       
  56 H56            4.3171     1.3165    -1.7683 H       
  57 H57            5.2954     4.0122    -1.0869 H       
  58 H58            6.1989     2.5067    -0.7942 H       
  59 H59            6.1540     2.0076    -3.2227 H       
  60 H60            5.2505     3.5131    -3.5154 H       
  61 H61            7.1318     4.8252    -2.5732 H       
  62 H62            8.0352     3.3198    -2.2805 H       
  63 H63            7.9903     2.8207    -4.7090 H       
  64 H64            7.0869     4.3261    -5.0016 H       
  65 H65            8.9682     5.6383    -4.0595 H       
  66 H66            9.8716     4.1328    -3.7668 H       
  67 H67            9.8267     3.6337    -6.1952 H       
  68 H68            8.9233     5.1392    -6.4879 H       
  69 H69           10.8050     6.3294    -5.5138 H       
  70 H70           11.6331     4.4408    -7.6199 H       
  71 H71           10.7297     5.9463    -7.9126 H       
  72 H72           12.5833     7.2535    -6.9105 H       
  73 H73           13.4867     5.7480    -6.6178 H       
  74 H74           13.4988     5.2818    -9.0532 H       
  75 H75           12.5954     6.7872    -9.3459 H       
  76 H76           14.4490     8.0944    -8.3438 H       
  77 H77           15.3524     6.5890    -8.0511 H       
  78 H78           15.3645     6.1227   -10.4865 H       
  79 H79           14.4611     7.6282   -10.7792 H       
  80 H80           16.3147     8.9354    -9.7771 H       
  81 H81           17.2181     7.4299    -9.4844 H       
  82 H82           17.2302     6.9637   -11.9198 H       
  83 H83           16.3268     8.4691   -12.2125 H       
  84 H84           18.1804     9.7763   -11.2104 H       
  85 H85           19.0838     8.2709   -10.9177 H       
  86 H86           19.0959     7.8047   -13.3531 H       
  87 H87           18.1925     9.3101   -13.6458 H       
  88 H88           20.0460    10.6173   -12.6438 H       
  89 H89           20.9495     9.1118   -12.3511 H       
  90 H90           20.9616     8.6456   -14.7865 H       
  91 H91           20.0582    10.1511   -15.0791 H       
  92 H92           21.9117    11.4582   -14.0771 H       
  93 H93           22.8152     9.9528   -13.7844 H       
  94 H94           22.7399     9.5696   -16.1832 H       
  95 H95           23.7182    12.2653   -15.5017 H       
  96 H96           24.6216    10.7599   -15.2090 H       
  97 H97           24.5767    10.2608   -17.6375 H       
  98 H98           23.6733    11.7662   -17.9302 H       
  99 H99           25.5545    13.0784   -16.9880 H       
 100 H100          26.4580    11.5729   -16.6953 H       
 101 H101          26.4131    11.0739   -19.1238 H       
 102 H102          25.5097    12.5793   -19.4165 H       
 103 H103          27.3909    13.8915   -18.4743 H       
 104 H104          28.2944    12.3860   -18.1816 H       
 105 H105          28.2495    11.8869   -20.6101 H       
 106 H106          27.3460    13.3924   -20.9028 H       
 107 H107          29.2278    14.5826   -19.9286 H       
 108 H108          30.0559    12.6940   -22.0347 H       
 109 H109          29.1525    14.1995   -22.3274 H       
 110 H110          34.4545    14.1079   -20.9867 H       
 111 H111          34.4668    16.4623   -21.7048 H       
 112 H112          32.3722    17.5476   -22.4067 H       
 113 H113          30.2625    16.2798   -22.3999 H       
 114 H114          33.9913    12.5619   -19.6522 H       
 115 H115          33.4406    10.9617   -20.2037 H       
 116 H116          34.2883    12.0482   -21.3303 H       
@<TRIPOS>BOND
   1    1    2 ar
   2    1    6 ar
   3    1   47 1
   4    2    3 ar
   5    2   48 1
   6    3    4 ar
   7    3   49 1
   8    4    5 ar
   9    4    7 1
  10    5    6 ar
  11    5    9 1
  12    6   50 1
  13    7    8 1
  14    8   51 1
  15    8   52 1
  16    8   53 1
  17    9   10 1
  18    9   54 1
  19    9   55 1
  20   10   11 1
  21   10   56 1
  22   11   12 1
  23   11   57 1
  24   11   58 1
  25   12   13 1
  26   12   59 1
  27   12   60 1
  28   13   14 1
  29   13   61 1
  30   13   62 1
  31   14   15 1
  32   14   63 1
  33   14   64 1
  34   15   16 1
  35   15   65 1
  36   15   66 1
  37   16   17 1
  38   16   67 1
  39   16   68 1
  40   17   18 1
  41   17   69 1
  42   18   19 1
  43   18   70 1
  44   18   71 1
  45   19   20 1
  46   19   72 1
  47   19   73 1
  48   20   21 1
  49   20   74 1
  50   20   75 1
  51   21   22 1
  52   21   76 1
  53   21   77 1
  54   22   23 1
  55   22   78 1
  56   22   79 1
  57   23   24 1
  58   23   80 1
  59   23   81 1
  60   24   25 1
  61   24   82 1
  62   24   83 1
  63   25   26 1
  64   25   84 1
  65   25   85 1
  66   26   27 1
  67   26   86 1
  68   26   87 1
  69   27   28 1
  70   27   88 1
  71   27   89 1
  72   28   29 1
  73   28   90 1
  74   28   91 1
  75   29   30 1
  76   29   92 1
  77   29   93 1
  78   30   31 1
  79   30   94 1
  80   31   32 1
  81   31   95 1
  82   31   96 1
  83   32   33 1
  84   32   97 1
  85   32   98 1
  86   33   34 1
  87   33   99 1
  88   33  100 1
  89   34   35 1
  90   34  101 1
  91   34  102 1
  92   35   36 1
  93   35  103 1
  94   35  104 1
  95   36   37 1
  96   36  105 1
  97   36  106 1
  98   37   38 1
  99   37  107 1
 100   38   39 1
 101   38  108 1
 102   38  109 1
 103   39   40 ar
 104   39   44 ar
 105   40   41 ar
 106   40   45 1
 107   41   42 ar
 108   41  110 1
 109   42   43 ar
 110   42  111 1
 111   43   44 ar
 112   43  112 1
 113   44  113 1
 114   45   46 1
 115   46  114 1
 116   46  115 1
 117   46  116 1

#	End of record

