#	Name: ASD01148723
#	Creating user name:	WinNT
#	Creation time:	15. 06. 2019 19:03

#	Modifying user name:	WinNT
#	Modification time:	15. 06. 2019 19:03

#	Program:	/corina/corina34_cracker 3.40 0067  02.08.2006

@<TRIPOS>MOLECULE
ASD01148723
  58   61    0    0    0
SMALL
NO_CHARGES


@<TRIPOS>ATOM
   1 N1            -0.0160     1.3406     0.0806 N.pl3   
   2 C2             0.0026     0.0048    -0.1114 C.2     
   3 C3             1.3185    -0.4070    -0.1549 C.2     
   4 C4             2.1213     0.7502     0.0213 C.2     
   5 C5             1.2766     1.8042     0.1629 C.2     
   6 C6             1.7987    -1.7847    -0.3467 C.2     
   7 O7             1.0021    -2.6921    -0.4862 O.2     
   8 O8             3.1219    -2.0404    -0.3677 O.3     
   9 C9            -1.2061    -0.8839    -0.2535 C.3     
  10 C10           -1.1690     2.1308     0.1752 C.ar    
  11 C11           -2.0124     2.0027     1.2710 C.ar    
  12 C12           -3.1482     2.7830     1.3614 C.ar    
  13 C13           -3.4462     3.6913     0.3620 C.ar    
  14 C14           -2.6085     3.8212    -0.7303 C.ar    
  15 C15           -1.4679     3.0476    -0.8236 C.ar    
  16 S16           -4.2191     2.6207     2.7511 S.o2    
  17 O17           -5.4886     3.0355     2.2656 O.2     
  18 O18           -4.0068     1.2906     3.2038 O.2     
  19 C19           -3.5784     3.8138     3.9581 C.3     
  20 C20            1.6782     3.2113     0.3703 C.ar    
  21 C21            0.7777     4.1195     0.9315 C.ar    
  22 C22            1.1527     5.4302     1.1242 C.ar    
  23 C23            2.4315     5.8511     0.7592 C.ar    
  24 C24            3.3313     4.9449     0.1983 C.ar    
  25 C25            2.9603     3.6324     0.0104 C.ar    
  26 C26            1.9425     8.1781     1.5270 C.ar    
  27 C27            2.8344     7.2631     0.9673 C.ar    
  28 C28            4.1110     7.6951     0.6064 C.ar    
  29 C29            4.4402     9.0368     0.8243 C.ar    
  30 C30            3.4856     9.8847     1.3902 C.ar    
  31 N31            2.2913     9.4346     1.7162 N.ar    
  32 C32            5.7366     9.5335     0.4730 C.1     
  33 N33            6.7650     9.9276     0.1944 N.1     
  34 C34            3.5233    -3.4224    -0.5611 C.3     
  35 C35            5.0504    -3.5153    -0.5564 C.3     
  36 H36            3.2006     0.7857     0.0399 H       
  37 H37           -1.4857    -0.9517    -1.3048 H       
  38 H38           -0.9721    -1.8788     0.1252 H       
  39 H39           -2.0349    -0.4639     0.3165 H       
  40 H40           -1.7804     1.2933     2.0516 H       
  41 H41           -4.3352     4.3002     0.4347 H       
  42 H42           -2.8441     4.5311    -1.5094 H       
  43 H43           -0.8114     3.1529    -1.6747 H       
  44 H44           -3.6138     4.8164     3.5319 H       
  45 H45           -4.1886     3.7809     4.8606 H       
  46 H46           -2.5477     3.5610     4.2069 H       
  47 H47           -0.2126     3.7939     1.2138 H       
  48 H48            0.4564     6.1327     1.5578 H       
  49 H49            4.3211     5.2719    -0.0844 H       
  50 H50            3.6590     2.9297    -0.4192 H       
  51 H51            0.9508     7.8532     1.8051 H       
  52 H52            4.8255     7.0121     0.1710 H       
  53 H53            3.7298    10.9225     1.5631 H       
  54 H54            3.1195    -4.0342     0.2456 H       
  55 H55            3.1404    -3.7817    -1.5163 H       
  56 H56            5.4542    -2.9035    -1.3630 H       
  57 H57            5.4334    -3.1560     0.3988 H       
  58 H58            5.3517    -4.5528    -0.7015 H       
@<TRIPOS>BOND
   1    1    2 1
   2    1    5 1
   3    1   10 1
   4    2    3 2
   5    2    9 1
   6    3    4 1
   7    3    6 1
   8    4    5 2
   9    4   36 1
  10    5   20 1
  11    6    7 2
  12    6    8 1
  13    8   34 1
  14    9   37 1
  15    9   38 1
  16    9   39 1
  17   10   11 ar
  18   10   15 ar
  19   11   12 ar
  20   11   40 1
  21   12   13 ar
  22   12   16 1
  23   13   14 ar
  24   13   41 1
  25   14   15 ar
  26   14   42 1
  27   15   43 1
  28   16   17 2
  29   16   18 2
  30   16   19 1
  31   19   44 1
  32   19   45 1
  33   19   46 1
  34   20   21 ar
  35   20   25 ar
  36   21   22 ar
  37   21   47 1
  38   22   23 ar
  39   22   48 1
  40   23   24 ar
  41   23   27 1
  42   24   25 ar
  43   24   49 1
  44   25   50 1
  45   26   27 ar
  46   26   31 ar
  47   26   51 1
  48   27   28 ar
  49   28   29 ar
  50   28   52 1
  51   29   30 ar
  52   29   32 1
  53   30   31 ar
  54   30   53 1
  55   32   33 3
  56   34   35 1
  57   34   54 1
  58   34   55 1
  59   35   56 1
  60   35   57 1
  61   35   58 1

#	End of record

