#	Name: ASD08710064
#	Creating user name:	WinNT
#	Creation time:	15. 06. 2019 21:19

#	Modifying user name:	WinNT
#	Modification time:	15. 06. 2019 21:19

#	Program:	/corina/corina34_cracker 3.40 0067  02.08.2006

@<TRIPOS>MOLECULE
ASD08710064
  64   66    0    0    0
SMALL
NO_CHARGES


@<TRIPOS>ATOM
   1 N1            -0.5973     1.9044    -0.4552 N.3     
   2 C2             0.3664     0.8233    -0.2023 C.3     
   3 C3             1.1160     0.5017    -1.4979 C.3     
   4 O4             1.7490     1.6886    -1.9837 O.3     
   5 C5             0.8396     2.7619    -2.2413 C.3     
   6 C6             0.0872     3.1064    -0.9532 C.3     
   7 C7            -1.3343     2.1883     0.6820 C.ar    
   8 C8            -2.3038     3.1890     0.6406 C.ar    
   9 C9            -3.0306     3.4667     1.7665 C.ar    
  10 C10           -2.7705     2.7271     2.9306 C.ar    
  11 C11           -1.7849     1.7395     2.9000 C.ar    
  12 N12           -1.1117     1.5008     1.7938 N.ar    
  13 C13           -3.5278     2.9904     4.1692 C.2     
  14 O14           -3.6237     4.1258     4.5935 O.2     
  15 N15           -4.1134     1.9723     4.8303 N.am    
  16 C16           -4.7727     2.2011     6.1236 C.3     
  17 C17           -6.2191     1.6994     6.0319 C.3     
  18 N18           -6.2102     0.3405     5.4721 N.am    
  19 C19           -5.5509     0.1117     4.1788 C.3     
  20 C20           -4.1093     0.6145     4.2678 C.3     
  21 S21           -6.9297    -0.9104     6.2844 S.o2    
  22 O22           -6.3053    -2.1005     5.8227 O.2     
  23 O23           -6.9651    -0.5321     7.6537 O.2     
  24 C24           -8.6056    -0.9866     5.7458 C.ar    
  25 C25           -8.9470    -1.7677     4.6576 C.ar    
  26 C26          -10.2619    -1.8275     4.2350 C.ar    
  27 C27          -11.2353    -1.1066     4.9010 C.ar    
  28 C28          -10.8941    -0.3262     5.9897 C.ar    
  29 C29           -9.5799    -0.2698     6.4150 C.ar    
  30 C30          -12.6685    -1.1709     4.4397 C.3     
  31 F31          -13.3238    -2.2169     5.0982 F       
  32 F32          -13.3078     0.0383     4.7336 F       
  33 F33          -12.7045    -1.3939     3.0590 F       
  34 C34           -4.7676     3.6970     6.4450 C.3     
  35 C35           -4.0860     4.5424     1.7566 C.3     
  36 H36            1.0774     1.1406     0.5605 H       
  37 H37           -0.1646    -0.0646     0.1410 H       
  38 H38            1.8712    -0.2595    -1.3021 H       
  39 H39            0.4119     0.1333    -2.2439 H       
  40 H40            1.3949     3.6353    -2.5831 H       
  41 H41            0.1274     2.4592    -3.0089 H       
  42 H42           -0.6476     3.8850    -1.1581 H       
  43 H43            0.7938     3.4602    -0.2025 H       
  44 H44           -2.4794     3.7403    -0.2713 H       
  45 H45           -1.5756     1.1638     3.7894 H       
  46 H46           -4.2448     1.6547     6.9051 H       
  47 H47           -6.6641     1.6822     7.0268 H       
  48 H48           -6.7946     2.3588     5.3824 H       
  49 H49           -5.5545    -0.9540     3.9498 H       
  50 H50           -6.0788     0.6581     3.3973 H       
  51 H51           -3.6676     0.6326     3.2714 H       
  52 H52           -3.5331    -0.0475     4.9141 H       
  53 H53           -8.1865    -2.3310     4.1373 H       
  54 H54          -10.5285    -2.4372     3.3844 H       
  55 H55          -11.6546     0.2374     6.5098 H       
  56 H56           -9.3139     0.3370     7.2679 H       
  57 H57           -5.2505     4.2442     5.6355 H       
  58 H58           -5.3092     3.8707     7.3748 H       
  59 H59           -3.7392     4.0417     6.5538 H       
  60 H60           -5.0612     4.0928     1.5695 H       
  61 H61           -4.0983     5.0482     2.7220 H       
  62 H62           -3.8619     5.2640     0.9711 H       
  63 Cl63           6.8712    10.2640    12.6537 Cl      
  64 H64            6.8712    11.6340    12.6537 H       
@<TRIPOS>BOND
   1    1    2 1
   2    1    6 1
   3    1    7 1
   4    2    3 1
   5    2   36 1
   6    2   37 1
   7    3    4 1
   8    3   38 1
   9    3   39 1
  10    4    5 1
  11    5    6 1
  12    5   40 1
  13    5   41 1
  14    6   42 1
  15    6   43 1
  16    7    8 ar
  17    7   12 ar
  18    8    9 ar
  19    8   44 1
  20    9   10 ar
  21    9   35 1
  22   10   11 ar
  23   10   13 1
  24   11   12 ar
  25   11   45 1
  26   13   14 2
  27   13   15 am
  28   15   16 1
  29   15   20 1
  30   16   17 1
  31   16   34 1
  32   16   46 1
  33   17   18 1
  34   17   47 1
  35   17   48 1
  36   18   19 1
  37   18   21 am
  38   19   20 1
  39   19   49 1
  40   19   50 1
  41   20   51 1
  42   20   52 1
  43   21   22 2
  44   21   23 2
  45   21   24 1
  46   24   25 ar
  47   24   29 ar
  48   25   26 ar
  49   25   53 1
  50   26   27 ar
  51   26   54 1
  52   27   28 ar
  53   27   30 1
  54   28   29 ar
  55   28   55 1
  56   29   56 1
  57   30   31 1
  58   30   32 1
  59   30   33 1
  60   34   57 1
  61   34   58 1
  62   34   59 1
  63   35   60 1
  64   35   61 1
  65   35   62 1
  66   63   64 1

#	End of record

