#	Name: ASD01812634
#	Creating user name:	WinNT
#	Creation time:	15. 06. 2019 19:28

#	Modifying user name:	WinNT
#	Modification time:	15. 06. 2019 19:28

#	Program:	/corina/corina34_cracker 3.40 0067  02.08.2006

@<TRIPOS>MOLECULE
ASD01812634
  60   64    0    0    0
SMALL
NO_CHARGES


@<TRIPOS>ATOM
   1 O1            -0.0163     1.3523     0.0095 O.3     
   2 C2             0.0097     0.0100     0.2037 C.ar    
   3 C3             1.2216    -0.6601     0.2774 C.ar    
   4 C4             1.2502    -2.0266     0.4746 C.ar    
   5 C5             0.0680    -2.7399     0.6006 C.ar    
   6 C6            -1.1405    -2.0895     0.5297 C.ar    
   7 C7            -1.1882    -0.7059     0.3368 C.ar    
   8 C8            -2.5721    -2.5555     0.6243 C.3     
   9 N9            -3.4040    -1.3569     0.4672 N.am    
  10 C10           -2.6004    -0.2907     0.3104 C.2     
  11 C11           -4.8685    -1.3255     0.4906 C.3     
  12 O12           -2.9854     0.8519     0.1538 O.2     
  13 C13            1.2359     1.9974    -0.2310 C.3     
  14 C14            1.0015     3.2892    -1.0167 C.3     
  15 C15            0.1294     4.1849    -0.2395 C.1     
  16 C16            1.9045     2.3273     1.1050 C.3     
  17 C17            3.2453     3.0180     0.8476 C.3     
  18 C18            3.0109     4.3098     0.0619 C.3     
  19 C19            2.3423     3.9799    -1.2742 C.3     
  20 C20           -5.3438    -1.1118     1.9046 C.ar    
  21 C21           -5.5385     0.1727     2.3793 C.ar    
  22 C22           -5.9741     0.3742     3.6734 C.ar    
  23 C23           -6.2179    -0.7192     4.5019 C.ar    
  24 C24           -6.0201    -2.0109     4.0184 C.ar    
  25 C25           -5.5893    -2.2010     2.7211 C.ar    
  26 C26           -6.6859    -0.5087     5.8943 C.ar    
  27 N27           -0.5436     4.8761     0.3603 N.1     
  28 F28            1.0757     3.1786     1.8437 F       
  29 C29           -6.8861     0.7793     6.3868 C.ar    
  30 N30           -7.3016     0.9674     7.6225 N.ar    
  31 C31           -7.5435    -0.0418     8.4369 C.ar    
  32 C32           -7.3689    -1.3494     8.0229 C.ar    
  33 C33           -6.9386    -1.5990     6.7307 C.ar    
  34 C34           -8.0172     0.2349     9.8405 C.3     
  35 H35            2.1466    -0.1112     0.1798 H       
  36 H36            2.1976    -2.5420     0.5306 H       
  37 H37            0.0970    -3.8085     0.7543 H       
  38 H38           -2.7875    -3.2682    -0.1717 H       
  39 H39           -2.7538    -3.0129     1.5969 H       
  40 H40           -5.2245    -0.5105    -0.1396 H       
  41 H41           -5.2582    -2.2718     0.1154 H       
  42 H42            1.8817     1.3342    -0.8065 H       
  43 H43            0.5252     3.0542    -1.9685 H       
  44 H44            2.0715     1.4071     1.6648 H       
  45 H45            3.7216     3.2530     1.7994 H       
  46 H46            3.8910     2.3548     0.2721 H       
  47 H47            2.3651     4.9730     0.6374 H       
  48 H48            3.9661     4.8018    -0.1216 H       
  49 H49            2.9880     3.3167    -1.8497 H       
  50 H50            2.1753     4.9002    -1.8339 H       
  51 H51           -5.3489     1.0195     1.7364 H       
  52 H52           -6.1255     1.3776     4.0432 H       
  53 H53           -6.2072    -2.8619     4.6565 H       
  54 H54           -5.4396    -3.2019     2.3440 H       
  55 H55           -6.6986     1.6310     5.7498 H       
  56 H56           -7.5695    -2.1674     8.6990 H       
  57 H57           -6.7981    -2.6106     6.3796 H       
  58 H58           -9.1064     0.2742     9.8553 H       
  59 H59           -7.6732    -0.5592    10.5032 H       
  60 H60           -7.6146     1.1898    10.1783 H       
@<TRIPOS>BOND
   1    1    2 1
   2    1   13 1
   3    2    3 ar
   4    2    7 ar
   5    3    4 ar
   6    3   35 1
   7    4    5 ar
   8    4   36 1
   9    5    6 ar
  10    5   37 1
  11    6    8 1
  12    6    7 ar
  13    7   10 1
  14    8    9 1
  15    8   38 1
  16    8   39 1
  17    9   10 am
  18    9   11 1
  19   10   12 2
  20   11   20 1
  21   11   40 1
  22   11   41 1
  23   13   16 1
  24   13   14 1
  25   13   42 1
  26   14   15 1
  27   14   19 1
  28   14   43 1
  29   15   27 3
  30   16   17 1
  31   16   28 1
  32   16   44 1
  33   17   18 1
  34   17   45 1
  35   17   46 1
  36   18   19 1
  37   18   47 1
  38   18   48 1
  39   19   49 1
  40   19   50 1
  41   20   21 ar
  42   20   25 ar
  43   21   22 ar
  44   21   51 1
  45   22   23 ar
  46   22   52 1
  47   23   24 ar
  48   23   26 1
  49   24   25 ar
  50   24   53 1
  51   25   54 1
  52   26   29 ar
  53   26   33 ar
  54   29   30 ar
  55   29   55 1
  56   30   31 ar
  57   31   32 ar
  58   31   34 1
  59   32   33 ar
  60   32   56 1
  61   33   57 1
  62   34   58 1
  63   34   59 1
  64   34   60 1

#	End of record

