#	Name: ASD01901080
#	Creating user name:	WinNT
#	Creation time:	15. 06. 2019 19:53

#	Modifying user name:	WinNT
#	Modification time:	15. 06. 2019 19:53

#	Program:	/corina/corina34_cracker 3.40 0067  02.08.2006

@<TRIPOS>MOLECULE
ASD01901080
  48   50    0    0    0
SMALL
NO_CHARGES


@<TRIPOS>ATOM
   1 C1            -0.0184     1.5028     0.0103 C.2     
   2 C2             0.0021    -0.0041     0.0020 C.3     
   3 C3             2.4697     1.5816    -0.0130 C.ar    
   4 C4             1.2427     2.2539     0.0023 C.ar    
   5 C5             1.2360     3.6600     0.0094 C.ar    
   6 C6             2.4352     4.3178     0.0011 C.ar    
   7 C7             3.6197     3.5821    -0.0141 C.ar    
   8 N8             3.5998     2.2555    -0.0211 N.ar    
   9 N9             4.8336     4.2453    -0.0226 N.pl3   
  10 C10            4.8682     5.7099    -0.0156 C.3     
  11 C11            6.3223     6.1858    -0.0273 C.3     
  12 O12            6.7963    10.1878     1.1096 O.3     
  13 C13            7.7235     9.6778     0.1475 C.3     
  14 C14            7.7230     8.1480     0.2073 C.3     
  15 N15            6.3570     7.6543    -0.0203 N.3     
  16 C16            5.4323     8.1984     0.9849 C.3     
  17 C17            5.4558     9.7277     0.9173 C.3     
  18 O18           -1.3386    -0.4987     0.0122 O.3     
  19 C19           -1.4983    -1.8484     0.0064 C.ar    
  20 C20           -2.7733    -2.3978     0.0157 C.ar    
  21 C21           -2.9327    -3.7705     0.0099 C.ar    
  22 C22           -1.8235    -4.5962    -0.0051 C.ar    
  23 C23           -0.5531    -4.0513    -0.0139 C.ar    
  24 C24           -0.3882    -2.6792    -0.0144 C.ar    
  25 Br25          -4.2902    -1.2689     0.0368 Br      
  26 O26           -1.0770     2.0949     0.0185 O.2     
  27 H27            0.5123    -0.3556    -0.8948 H       
  28 H28            0.5293    -0.3651     0.8851 H       
  29 H29            2.4894     0.5018    -0.0141 H       
  30 H30            0.3054     4.2080     0.0209 H       
  31 H31            2.4645     5.3974     0.0059 H       
  32 H32            5.6619     3.7407    -0.0332 H       
  33 H33            4.3545     6.0897    -0.8987 H       
  34 H34            4.3718     6.0808     0.8812 H       
  35 H35            6.8360     5.8060     0.8558 H       
  36 H36            6.8187     5.8149    -0.9241 H       
  37 H37            7.4288    10.0032    -0.8501 H       
  38 H38            8.7229    10.0505     0.3722 H       
  39 H39            8.3856     7.7534    -0.5630 H       
  40 H40            8.0692     7.8219     1.1880 H       
  41 H41            4.4228     7.8406     0.7822 H       
  42 H42            5.7419     7.8731     1.9781 H       
  43 H43            4.8152    10.1364     1.6987 H       
  44 H44            5.0952    10.0545    -0.0579 H       
  45 H45           -3.9241    -4.1987     0.0174 H       
  46 H46           -1.9500    -5.6688    -0.0096 H       
  47 H47            0.3114    -4.6985    -0.0252 H       
  48 H48            0.6046    -2.2543    -0.0264 H       
@<TRIPOS>BOND
   1    1    2 1
   2    1    4 1
   3    1   26 2
   4    2   18 1
   5    2   27 1
   6    2   28 1
   7    3    4 ar
   8    3    8 ar
   9    3   29 1
  10    4    5 ar
  11    5    6 ar
  12    5   30 1
  13    6    7 ar
  14    6   31 1
  15    7    8 ar
  16    7    9 1
  17    9   10 1
  18    9   32 1
  19   10   11 1
  20   10   33 1
  21   10   34 1
  22   11   15 1
  23   11   35 1
  24   11   36 1
  25   12   13 1
  26   12   17 1
  27   13   14 1
  28   13   37 1
  29   13   38 1
  30   14   15 1
  31   14   39 1
  32   14   40 1
  33   15   16 1
  34   16   17 1
  35   16   41 1
  36   16   42 1
  37   17   43 1
  38   17   44 1
  39   18   19 1
  40   19   20 ar
  41   19   24 ar
  42   20   21 ar
  43   20   25 1
  44   21   22 ar
  45   21   45 1
  46   22   23 ar
  47   22   46 1
  48   23   24 ar
  49   23   47 1
  50   24   48 1

#	End of record

