#	Name: ASD03091764
#	Creating user name:	WinNT
#	Creation time:	15. 06. 2019 20:31

#	Modifying user name:	WinNT
#	Modification time:	15. 06. 2019 20:31

#	Program:	/corina/corina34_cracker 3.40 0067  02.08.2006

@<TRIPOS>MOLECULE
ASD03091764
  35   37    0    0    0
SMALL
NO_CHARGES


@<TRIPOS>ATOM
   1 C1            -0.0122     1.4740    -0.0286 C.3     
   2 C2             0.0540    -0.0534    -0.0909 C.3     
   3 N3             0.7527    -0.5633     1.0958 N.3     
   4 C4             0.0331    -0.2115     2.3267 C.3     
   5 C5            -0.0342     1.3110     2.4630 C.3     
   6 C6             1.3882     1.8774     2.5290 C.3     
   7 N7             2.0616     1.6124     1.2503 N.am    
   8 C8             1.4107     2.0421     0.0052 C.3     
   9 C9             3.2546     0.9861     1.2201 C.2     
  10 O10            3.7488     0.6708     0.1550 O.2     
  11 C11            3.9608     0.6831     2.4796 C.2     
  12 C12            5.1009    -0.0568     2.6231 C.2     
  13 C13           -0.7521     1.8977     1.2438 C.3     
  14 O14            3.6144     1.0851     3.7172 O.3     
  15 N15            4.3894     0.6785     4.5510 N.2     
  16 C16            5.3460    -0.0336     4.0201 C.2     
  17 O17            6.3728    -0.6327     4.6752 O.3     
  18 C18            6.4189    -0.4716     6.0943 C.3     
  19 H19           -0.5361     1.8530    -0.9061 H       
  20 H20           -0.9570    -0.4598    -0.1197 H       
  21 H21            0.5931    -0.3572    -0.9882 H       
  22 H22            0.8937    -1.5603     1.0318 H       
  23 H23           -0.9776    -0.6174     2.2850 H       
  24 H24            0.5572    -0.6302     3.1858 H       
  25 H25           -0.5742     1.5727     3.3730 H       
  26 H26            1.3457     2.9525     2.7038 H       
  27 H27            1.9366     1.3948     3.3379 H       
  28 H28            1.9740     1.6679    -0.8496 H       
  29 H29            1.3704     3.1308    -0.0292 H       
  30 H30            5.6798    -0.5450     1.8530 H       
  31 H31           -0.7607     2.9854     1.3149 H       
  32 H32           -1.7762     1.5260     1.2104 H       
  33 H33            6.4951     0.5883     6.3374 H       
  34 H34            5.5107    -0.8813     6.5363 H       
  35 H35            7.2862    -0.9987     6.4918 H       
@<TRIPOS>BOND
   1    1    2 1
   2    1    8 1
   3    1   13 1
   4    1   19 1
   5    2    3 1
   6    2   20 1
   7    2   21 1
   8    3    4 1
   9    3   22 1
  10    4    5 1
  11    4   23 1
  12    4   24 1
  13    5    6 1
  14    5   13 1
  15    5   25 1
  16    6    7 1
  17    6   26 1
  18    6   27 1
  19    7    8 1
  20    7    9 am
  21    8   28 1
  22    8   29 1
  23    9   10 2
  24    9   11 1
  25   11   12 2
  26   11   14 1
  27   12   16 1
  28   12   30 1
  29   13   31 1
  30   13   32 1
  31   14   15 1
  32   15   16 2
  33   16   17 1
  34   17   18 1
  35   18   33 1
  36   18   34 1
  37   18   35 1

#	End of record

