#	Name: ASD01881963
#	Creating user name:	WinNT
#	Creation time:	15. 06. 2019 19:43

#	Modifying user name:	WinNT
#	Modification time:	15. 06. 2019 19:43

#	Program:	/corina/corina34_cracker 3.40 0067  02.08.2006

@<TRIPOS>MOLECULE
ASD01881963
  52   55    0    0    0
SMALL
NO_CHARGES


@<TRIPOS>ATOM
   1 N1            -0.0178     1.4642     0.0101 N.3     
   2 C2             0.0021    -0.0041     0.0020 C.3     
   3 C3             0.7039    -0.5130     1.2631 C.3     
   4 C4             2.1331     0.0352     1.3025 C.3     
   5 C5             2.0858     1.5651     1.2611 C.3     
   6 C6             1.3439     2.0138     0.0000 C.3     
   7 C7             2.8099    -0.4136     2.5720 C.2     
   8 O8             2.2116    -1.1015     3.3649 O.2     
   9 O9             4.0773    -0.0491     2.8218 O.3     
  10 F10            2.8469    -0.4405     0.1973 F       
  11 C11            4.6654    -0.5178     4.0639 C.3     
  12 C12            6.1030    -0.0056     4.1728 C.3     
  13 C13            6.7226    -0.4995     5.4816 C.3     
  14 O14            8.0653    -0.0211     5.5833 O.3     
  15 N15           11.0928    -1.2946     9.9669 N.pl3   
  16 N16           12.2465    -0.6063     9.5632 N.2     
  17 N17           12.0346    -0.0466     8.4245 N.2     
  18 C18           10.7817    -0.3064     8.0006 C.ar    
  19 C19           10.1583    -1.1058     8.9744 C.ar    
  20 C20           10.0646     0.0580     6.8527 C.ar    
  21 C21            8.7634    -0.3727     6.6961 C.ar    
  22 C22            8.1593    -1.1646     7.6696 C.ar    
  23 C23            8.8455    -1.5266     8.7945 C.ar    
  24 C24           10.9192    -2.0676    11.1992 C.3     
  25 C25           10.3883    -1.1526    12.3046 C.3     
  26 C26           10.0281    -1.7984    13.6440 C.3     
  27 C27           11.2816    -0.9291    13.5265 C.3     
  28 Br28          10.8765     1.1332     5.5258 Br      
  29 H29           -0.5582     1.8228    -0.7629 H       
  30 H30           -1.0204    -0.3810    -0.0218 H       
  31 H31            0.5390    -0.3552    -0.8792 H       
  32 H32            0.1597    -0.1738     2.1445 H       
  33 H33            0.7324    -1.6025     1.2493 H       
  34 H34            1.5633     1.9370     2.1425 H       
  35 H35            3.1015     1.9603     1.2458 H       
  36 H36            1.8745     1.6533    -0.8812 H       
  37 H37            1.2960     3.1025    -0.0252 H       
  38 H38            4.0820    -0.1447     4.9056 H       
  39 H39            4.6661    -1.6077     4.0770 H       
  40 H40            6.6864    -0.3787     3.3310 H       
  41 H41            6.1023     1.0843     4.1596 H       
  42 H42            6.1393    -0.1263     6.3233 H       
  43 H43            6.7233    -1.5894     5.4947 H       
  44 H44            7.1399    -1.4947     7.5347 H       
  45 H45            8.3681    -2.1407     9.5437 H       
  46 H46           10.2090    -2.8757    11.0242 H       
  47 H47           11.8783    -2.4864    11.5036 H       
  48 H48            9.7760    -0.3157    11.9686 H       
  49 H49            9.1791    -1.3862    14.1894 H       
  50 H50           10.1693    -2.8752    13.7377 H       
  51 H51           12.2475    -1.4339    13.5428 H       
  52 H52           11.2573     0.0550    13.9944 H       
@<TRIPOS>BOND
   1    1    2 1
   2    1    6 1
   3    1   29 1
   4    2    3 1
   5    2   30 1
   6    2   31 1
   7    3    4 1
   8    3   32 1
   9    3   33 1
  10    4    5 1
  11    4    7 1
  12    4   10 1
  13    5    6 1
  14    5   34 1
  15    5   35 1
  16    6   36 1
  17    6   37 1
  18    7    8 2
  19    7    9 1
  20    9   11 1
  21   11   12 1
  22   11   38 1
  23   11   39 1
  24   12   13 1
  25   12   40 1
  26   12   41 1
  27   13   14 1
  28   13   42 1
  29   13   43 1
  30   14   21 1
  31   15   16 1
  32   15   19 1
  33   15   24 1
  34   16   17 2
  35   17   18 1
  36   18   19 ar
  37   18   20 ar
  38   19   23 ar
  39   20   21 ar
  40   20   28 1
  41   21   22 ar
  42   22   23 ar
  43   22   44 1
  44   23   45 1
  45   24   25 1
  46   24   46 1
  47   24   47 1
  48   25   26 1
  49   25   27 1
  50   25   48 1
  51   26   27 1
  52   26   49 1
  53   26   50 1
  54   27   51 1
  55   27   52 1

#	End of record

