#	Name: ASD01816768
#	Creating user name:	WinNT
#	Creation time:	15. 06. 2019 19:35

#	Modifying user name:	WinNT
#	Modification time:	15. 06. 2019 19:35

#	Program:	/corina/corina34_cracker 3.40 0067  02.08.2006

@<TRIPOS>MOLECULE
ASD01816768
  47   50    0    0    0
SMALL
NO_CHARGES


@<TRIPOS>ATOM
   1 C1            -0.0168     1.3897     0.0097 C.ar    
   2 C2             0.0021    -0.0041     0.0020 C.ar    
   3 C3             1.1796    -0.6877    -0.0124 C.ar    
   4 C4             2.3927     0.0187    -0.0202 C.ar    
   5 C5             2.3768     1.4381    -0.0129 C.ar    
   6 C6             1.1385     2.1078     0.0025 C.ar    
   7 C7             3.6297    -0.6529    -0.0346 C.ar    
   8 C8             4.7711     0.0956    -0.0411 C.ar    
   9 C9             4.6871     1.4959    -0.0333 C.ar    
  10 N10            3.5238     2.1168    -0.0202 N.ar    
  11 C11            3.6922    -2.1586    -0.0422 C.3     
  12 C12            5.9353     2.2963    -0.0400 C.2     
  13 O13            7.0146     1.7386    -0.0521 O.2     
  14 N14            5.8725     3.6426    -0.0327 N.am    
  15 C15            7.1057     4.4335    -0.0393 C.3     
  16 C16            6.8256     5.8144    -0.6400 C.3     
  17 C17            7.6112     4.6063     1.3963 C.3     
  18 C18            8.8549     5.4990     1.3870 C.3     
  19 O19            8.5331     6.7558     0.7877 O.3     
  20 C20            8.0996     6.6604    -0.5707 C.3     
  21 C21            3.5763    -2.6591    -1.4590 C.ar    
  22 C22            4.7079    -2.8415    -2.2309 C.ar    
  23 C23            2.3334    -2.9475    -2.0019 C.ar    
  24 C24            2.2743    -3.4058    -3.3088 C.ar    
  25 C25            3.4493    -3.5591    -4.0230 C.ar    
  26 N26            4.6152    -3.2795    -3.4714 N.ar    
  27 Cl27           3.3898    -4.1321    -5.6606 Cl      
  28 H28           -0.9643     1.9080     0.0170 H       
  29 H29           -0.9302    -0.5493     0.0080 H       
  30 H30            1.1803    -1.7677    -0.0175 H       
  31 H31            1.1059     3.1873     0.0079 H       
  32 H32            5.7363    -0.3889    -0.0518 H       
  33 H33            4.6417    -2.4850     0.3819 H       
  34 H34            2.8716    -2.5593     0.5529 H       
  35 H35            5.0108     4.0879    -0.0231 H       
  36 H36            7.8639     3.9241    -0.6340 H       
  37 H37            6.5180     5.7037    -1.6799 H       
  38 H38            6.0323     6.3035    -0.0747 H       
  39 H39            6.8338     5.0710     2.0028 H       
  40 H40            7.8656     3.6317     1.8127 H       
  41 H41            9.1941     5.6605     2.4102 H       
  42 H42            9.6456     5.0148     0.8139 H       
  43 H43            8.8804     6.1914    -1.1694 H       
  44 H44            7.8947     7.6586    -0.9577 H       
  45 H45            5.6796    -2.6225    -1.8136 H       
  46 H46            1.4327    -2.8185    -1.4202 H       
  47 H47            1.3232    -3.6405    -3.7635 H       
@<TRIPOS>BOND
   1    1    2 ar
   2    1    6 ar
   3    1   28 1
   4    2    3 ar
   5    2   29 1
   6    3    4 ar
   7    3   30 1
   8    4    5 ar
   9    4    7 ar
  10    5    6 ar
  11    5   10 ar
  12    6   31 1
  13    7    8 ar
  14    7   11 1
  15    8    9 ar
  16    8   32 1
  17    9   10 ar
  18    9   12 1
  19   11   21 1
  20   11   33 1
  21   11   34 1
  22   12   13 2
  23   12   14 am
  24   14   15 1
  25   14   35 1
  26   15   16 1
  27   15   17 1
  28   15   36 1
  29   16   20 1
  30   16   37 1
  31   16   38 1
  32   17   18 1
  33   17   39 1
  34   17   40 1
  35   18   19 1
  36   18   41 1
  37   18   42 1
  38   19   20 1
  39   20   43 1
  40   20   44 1
  41   21   22 ar
  42   21   23 ar
  43   22   26 ar
  44   22   45 1
  45   23   24 ar
  46   23   46 1
  47   24   25 ar
  48   24   47 1
  49   25   26 ar
  50   25   27 1

#	End of record

