#	Name: ASD09116413
#	Creating user name:	WinNT
#	Creation time:	15. 06. 2019 21:21

#	Modifying user name:	WinNT
#	Modification time:	15. 06. 2019 21:21

#	Program:	/corina/corina34_cracker 3.40 0067  02.08.2006

@<TRIPOS>MOLECULE
ASD09116413
  71   77    0    0    0
SMALL
NO_CHARGES


@<TRIPOS>ATOM
   1 N1            -0.0328     1.4240     0.1731 N.2     
   2 N2            -0.0267     0.0279     0.3232 N.pl3   
   3 C3             1.2198     1.8111     0.1413 C.2     
   4 N4             2.0109     0.7386     0.2628 N.2     
   5 C5             1.2735    -0.3456     0.3736 C.2     
   6 N6             1.7434    -1.6373     0.5161 N.pl3   
   7 C7            -1.1410    -0.8093     0.4052 C.ar    
   8 N8             1.6572     3.1285     0.0023 N.pl3   
   9 C9             3.0195     3.4262     0.0965 C.ar    
  10 C10            3.8665     2.6306     0.8677 C.ar    
  11 C11            3.5519     4.5156    -0.5811 C.ar    
  12 N12            4.8358     4.8034    -0.4953 N.ar    
  13 C13            5.6594     4.0718     0.2330 C.ar    
  14 C14            5.2061     2.9740     0.9229 C.ar    
  15 N15           -1.0397    -2.0829     0.0557 N.ar    
  16 N16           -2.0367    -2.8930     0.1034 N.ar    
  17 C17           -3.2333    -2.4975     0.5071 C.ar    
  18 C18           -3.4297    -1.1753     0.9159 C.ar    
  19 C19           -2.3615    -0.3050     0.8614 C.ar    
  20 C20           -4.3964    -3.4148     0.5116 C.ar    
  21 C21           -5.5901    -2.9934    -0.0762 C.ar    
  22 C22           -5.6482    -1.6476    -0.7454 C.3     
  23 C23           -5.7493    -0.5204     0.2787 C.3     
  24 C24           -4.7731    -0.7466     1.4301 C.3     
  25 C25           -4.3139    -4.6755     1.0924 C.ar    
  26 C26           -5.4236    -5.4984     1.1006 C.ar    
  27 C27           -6.6107    -5.0687     0.5359 C.ar    
  28 C28           -6.6944    -3.8180    -0.0512 C.ar    
  29 C29            7.1257     4.4473     0.3090 C.3     
  30 C30            7.4188     4.9443     1.7282 C.3     
  31 C31            7.7134     3.7831     2.6555 C.3     
  32 N32            6.5739     2.9188     2.9249 N.3     
  33 C33            6.1651     2.1377     1.7424 C.3     
  34 C34            6.8400     2.0385     4.0704 C.3     
  35 C35            5.5800     1.2247     4.4137 C.3     
  36 C36            5.9570    -0.2620     4.2485 C.3     
  37 C37            7.4962    -0.2849     4.4199 C.3     
  38 C38            7.9388     1.0179     3.7086 C.3     
  39 H39            2.6983    -1.8060     0.5413 H       
  40 H40            1.1184    -2.3753     0.5909 H       
  41 H41            1.0158     3.8379    -0.1596 H       
  42 H42            3.4888     1.7735     1.4053 H       
  43 H43            2.9060     5.1345    -1.1862 H       
  44 H44           -2.4665     0.7296     1.1528 H       
  45 H45           -4.7471    -1.5071    -1.3425 H       
  46 H46           -6.5181    -1.6127    -1.4012 H       
  47 H47           -5.5178     0.4275    -0.2070 H       
  48 H48           -6.7652    -0.4827     0.6717 H       
  49 H49           -5.1685    -1.5202     2.0884 H       
  50 H50           -4.6624     0.1800     1.9934 H       
  51 H51           -3.3870    -5.0098     1.5346 H       
  52 H52           -5.3638    -6.4793     1.5486 H       
  53 H53           -7.4774    -5.7129     0.5527 H       
  54 H54           -7.6248    -3.4881    -0.4894 H       
  55 H55            7.7407     3.5743     0.0906 H       
  56 H56            7.3405     5.2383    -0.4095 H       
  57 H57            8.2807     5.6111     1.7037 H       
  58 H58            6.5536     5.4915     2.1023 H       
  59 H59            8.5065     3.1805     2.2129 H       
  60 H60            8.0759     4.1815     3.6031 H       
  61 H61            5.6696     1.2211     2.0626 H       
  62 H62            7.0428     1.8927     1.1443 H       
  63 H63            7.1484     2.6305     4.9321 H       
  64 H64            5.2774     1.4211     5.4423 H       
  65 H65            4.7711     1.4829     3.7303 H       
  66 H66            5.4783    -0.8650     5.0200 H       
  67 H67            5.6783    -0.6183     3.2568 H       
  68 H68            7.7678    -0.2601     5.4753 H       
  69 H69            7.9266    -1.1581     3.9296 H       
  70 H70            7.9801     0.8683     2.6297 H       
  71 H71            8.9062     1.3490     4.0861 H       
@<TRIPOS>BOND
   1    1    2 1
   2    1    3 2
   3    2    7 1
   4    2    5 1
   5    3    4 1
   6    3    8 1
   7    4    5 2
   8    5    6 1
   9    6   39 1
  10    6   40 1
  11    7   15 ar
  12    7   19 ar
  13    8    9 1
  14    8   41 1
  15    9   10 ar
  16    9   11 ar
  17   10   14 ar
  18   10   42 1
  19   11   12 ar
  20   11   43 1
  21   12   13 ar
  22   13   14 ar
  23   13   29 1
  24   14   33 1
  25   15   16 ar
  26   16   17 ar
  27   17   18 ar
  28   17   20 1
  29   18   19 ar
  30   18   24 1
  31   19   44 1
  32   20   21 ar
  33   20   25 ar
  34   21   22 1
  35   21   28 ar
  36   22   23 1
  37   22   45 1
  38   22   46 1
  39   23   24 1
  40   23   47 1
  41   23   48 1
  42   24   49 1
  43   24   50 1
  44   25   26 ar
  45   25   51 1
  46   26   27 ar
  47   26   52 1
  48   27   28 ar
  49   27   53 1
  50   28   54 1
  51   29   30 1
  52   29   55 1
  53   29   56 1
  54   30   31 1
  55   30   57 1
  56   30   58 1
  57   31   32 1
  58   31   59 1
  59   31   60 1
  60   32   33 1
  61   32   34 1
  62   33   61 1
  63   33   62 1
  64   34   35 1
  65   34   38 1
  66   34   63 1
  67   35   36 1
  68   35   64 1
  69   35   65 1
  70   36   37 1
  71   36   66 1
  72   36   67 1
  73   37   38 1
  74   37   68 1
  75   37   69 1
  76   38   70 1
  77   38   71 1

#	End of record

