#	Name: ASD02198047
#	Creating user name:	WinNT
#	Creation time:	15. 06. 2019 20:18

#	Modifying user name:	WinNT
#	Modification time:	15. 06. 2019 20:18

#	Program:	/corina/corina34_cracker 3.40 0067  02.08.2006

@<TRIPOS>MOLECULE
ASD02198047
  55   57    0    0    0
SMALL
NO_CHARGES


@<TRIPOS>ATOM
   1 C1            -0.0187     1.3475    -0.2630 C.2     
   2 C2             0.0073    -0.0299    -0.2125 C.2     
   3 C3            -1.1766    -0.8348    -0.2440 C.1     
   4 S4             1.5605     1.9877    -0.2055 S.3     
   5 C5             2.2768     0.3868    -0.1120 C.2     
   6 C6             1.2902    -0.5683    -0.1281 C.2     
   7 C7             3.6591     0.1218    -0.0322 C.2     
   8 O8             4.0525    -1.0212     0.1312 O.2     
   9 C9             4.6303     1.2272    -0.1464 C.ar    
  10 N10            1.5445    -1.9303    -0.0656 N.pl3   
  11 N11           -1.1643     2.1035    -0.3535 N.pl3   
  12 N12           -2.1159    -1.4734    -0.2690 N.1     
  13 C13           -1.0756     3.5651    -0.4006 C.3     
  14 C14            5.2811     1.7093     0.9920 C.ar    
  15 C15            6.1867     2.7402     0.8817 C.ar    
  16 C16            6.4569     3.3049    -0.3604 C.ar    
  17 C17            5.8161     2.8335    -1.4970 C.ar    
  18 C18            4.9077     1.7940    -1.3990 C.ar    
  19 O19            4.2799     1.3315    -2.5097 O.3     
  20 C20            4.6042     1.9643    -3.7492 C.3     
  21 C21           -2.4824     4.1584    -0.4999 C.3     
  22 N22           -2.3935     5.6240    -0.5471 N.3     
  23 C23           -3.6940     6.2197    -0.8791 C.3     
  24 C24           -3.5995     7.7437    -0.7768 C.3     
  25 C25           -2.5240     8.2494    -1.7423 C.3     
  26 C26           -1.1901     7.5773    -1.4056 C.3     
  27 C27           -1.3544     6.0581    -1.4896 C.3     
  28 O28            7.3509     4.3215    -0.4608 O.3     
  29 C29            7.9745     4.7589     0.7483 C.3     
  30 H30            2.4581    -2.2509    -0.0070 H       
  31 H31            0.8087    -2.5622    -0.0806 H       
  32 H32           -2.0309     1.6689    -0.3862 H       
  33 H33           -0.5909     3.9290     0.5053 H       
  34 H34           -0.4922     3.8658    -1.2708 H       
  35 H35            5.0735     1.2736     1.9582 H       
  36 H36            6.6887     3.1121     1.7626 H       
  37 H37            6.0290     3.2754    -2.4592 H       
  38 H38            4.0342     1.5002    -4.5541 H       
  39 H39            4.3556     3.0240    -3.6921 H       
  40 H40            5.6702     1.8513    -3.9469 H       
  41 H41           -2.9672     3.7945    -1.4058 H       
  42 H42           -3.0658     3.8577     0.3703 H       
  43 H43           -3.9726     5.9405    -1.8952 H       
  44 H44           -4.4489     5.8551    -0.1825 H       
  45 H45           -4.5606     8.1863    -1.0385 H       
  46 H46           -3.3344     8.0243     0.2425 H       
  47 H47           -2.8080     8.0031    -2.7654 H       
  48 H48           -2.4231     9.3301    -1.6415 H       
  49 H49           -0.4298     7.9009    -2.1165 H       
  50 H50           -0.8871     7.8553    -0.3961 H       
  51 H51           -0.4101     5.5761    -1.2365 H       
  52 H52           -1.6440     5.7796    -2.5029 H       
  53 H53            7.2119     5.1072     1.4449 H       
  54 H54            8.5230     3.9296     1.1948 H       
  55 H55            8.6641     5.5736     0.5273 H       
@<TRIPOS>BOND
   1    1    2 2
   2    1    4 1
   3    1   11 1
   4    2    3 1
   5    2    6 1
   6    3   12 3
   7    4    5 1
   8    5    6 2
   9    5    7 1
  10    6   10 1
  11    7    8 2
  12    7    9 1
  13    9   14 ar
  14    9   18 ar
  15   10   30 1
  16   10   31 1
  17   11   13 1
  18   11   32 1
  19   13   21 1
  20   13   33 1
  21   13   34 1
  22   14   15 ar
  23   14   35 1
  24   15   16 ar
  25   15   36 1
  26   16   17 ar
  27   16   28 1
  28   17   18 ar
  29   17   37 1
  30   18   19 1
  31   19   20 1
  32   20   38 1
  33   20   39 1
  34   20   40 1
  35   21   22 1
  36   21   41 1
  37   21   42 1
  38   22   23 1
  39   22   27 1
  40   23   24 1
  41   23   43 1
  42   23   44 1
  43   24   25 1
  44   24   45 1
  45   24   46 1
  46   25   26 1
  47   25   47 1
  48   25   48 1
  49   26   27 1
  50   26   49 1
  51   26   50 1
  52   27   51 1
  53   27   52 1
  54   28   29 1
  55   29   53 1
  56   29   54 1
  57   29   55 1

#	End of record

