#	Name: ASD03910061
#	Creating user name:	WinNT
#	Creation time:	15. 06. 2019 20:47

#	Modifying user name:	WinNT
#	Modification time:	15. 06. 2019 20:47

#	Program:	/corina/corina34_cracker 3.40 0067  02.08.2006

@<TRIPOS>MOLECULE
ASD03910061
  63   65    0    0    0
SMALL
NO_CHARGES


@<TRIPOS>ATOM
   1 C1             0.4627     1.3349     0.2002 C.ar    
   2 C2             0.6383     0.1438     0.8804 C.ar    
   3 C3            -0.4304    -0.4520     1.5245 C.ar    
   4 C4            -1.6773     0.1410     1.4899 C.ar    
   5 C5            -1.8570     1.3371     0.8077 C.ar    
   6 C6            -0.7802     1.9361     0.1670 C.ar    
   7 N7            -3.1189     1.9405     0.7707 N.am    
   8 C8            -3.2234     3.2842     0.7617 C.2     
   9 O9            -2.2307     3.9705     0.8824 O.2     
  10 C10           -4.4160     5.4324     0.6244 C.ar    
  11 C11           -4.2013     6.1218    -0.5548 C.ar    
  12 C12           -4.0621     7.4961    -0.5373 C.ar    
  13 C13           -4.1379     8.1845     0.6648 C.ar    
  14 C14           -4.3534     7.4905     1.8466 C.ar    
  15 C15           -4.4919     6.1162     1.8237 C.ar    
  16 O16           -4.0009     9.5364     0.6847 O.3     
  17 C17           -4.2055    10.1909     1.9385 C.3     
  18 C18           -5.5760     9.8640     2.4733 C.2     
  19 C19            1.6302     1.9808    -0.5004 C.3     
  20 C20           -0.2346    -1.7501     2.2647 C.3     
  21 O21           -5.7488     9.7481     3.6681 O.2     
  22 N22           -6.6095     9.7005     1.6239 N.am    
  23 C23           -4.5737     3.9338     0.6016 C.3     
  24 C24           -7.9157     9.2751     2.1329 C.3     
  25 C25           -8.6849     8.5903     1.0326 C.2     
  26 O26           -8.1924     8.4700    -0.0642 O.2     
  27 O27           -9.9170     8.1141     1.2711 O.3     
  28 C28           -8.6975    10.4981     2.6168 C.3     
  29 C29           -3.1281     9.7506     2.9449 C.3     
  30 C30           -2.3587    11.0241     3.3522 C.3     
  31 C31           -3.3563    12.1759     3.0739 C.3     
  32 C32           -4.0545    11.7167     1.7689 C.3     
  33 O33           -8.9838    11.3504     1.5061 O.3     
  34 H34            1.6122    -0.3222     0.9084 H       
  35 H35           -2.5118    -0.3253     1.9926 H       
  36 H36           -0.9166     2.8665    -0.3641 H       
  37 H37           -3.9185     1.3917     0.7516 H       
  38 H38           -4.1420     5.5853    -1.4903 H       
  39 H39           -3.8941     8.0341    -1.4585 H       
  40 H40           -4.4125     8.0241     2.7837 H       
  41 H41           -4.6597     5.5755     2.7434 H       
  42 H42            1.6868     1.6144    -1.5254 H       
  43 H43            1.4962     3.0625    -0.5080 H       
  44 H44            2.5521     1.7326     0.0256 H       
  45 H45            0.0375    -1.5409     3.2992 H       
  46 H46           -1.1605    -2.3248     2.2416 H       
  47 H47            0.5609    -2.3234     1.7885 H       
  48 H48           -6.4885     9.8644     0.6755 H       
  49 H49           -5.0132     3.6291    -0.3482 H       
  50 H50           -5.2249     3.6246     1.4191 H       
  51 H51           -7.7744     8.5826     2.9627 H       
  52 H52          -10.3711     7.6828     0.5343 H       
  53 H53           -9.6312    10.1739     3.0762 H       
  54 H54           -8.1022    11.0433     3.3492 H       
  55 H55           -3.5965     9.3012     3.8206 H       
  56 H56           -2.4491     9.0377     2.4771 H       
  57 H57           -2.0995    10.9912     4.4104 H       
  58 H58           -1.4627    11.1399     2.7424 H       
  59 H59           -4.0777    12.2666     3.8860 H       
  60 H60           -2.8272    13.1162     2.9189 H       
  61 H61           -3.4326    11.9441     0.9032 H       
  62 H62           -5.0319    12.1896     1.6725 H       
  63 H63           -9.4788    12.1476     1.7395 H       
@<TRIPOS>BOND
   1    1    2 ar
   2    1   19 1
   3    1    6 ar
   4    2    3 ar
   5    2   34 1
   6    3    4 ar
   7    3   20 1
   8    4    5 ar
   9    4   35 1
  10    5    6 ar
  11    5    7 1
  12    6   36 1
  13    7    8 am
  14    7   37 1
  15    8    9 2
  16    8   23 1
  17   10   11 ar
  18   10   15 ar
  19   10   23 1
  20   11   12 ar
  21   11   38 1
  22   12   13 ar
  23   12   39 1
  24   13   14 ar
  25   13   16 1
  26   14   15 ar
  27   14   40 1
  28   15   41 1
  29   16   17 1
  30   17   18 1
  31   17   29 1
  32   17   32 1
  33   18   21 2
  34   18   22 am
  35   19   42 1
  36   19   43 1
  37   19   44 1
  38   20   45 1
  39   20   46 1
  40   20   47 1
  41   22   24 1
  42   22   48 1
  43   23   49 1
  44   23   50 1
  45   24   25 1
  46   24   28 1
  47   24   51 1
  48   25   26 2
  49   25   27 1
  50   27   52 1
  51   28   33 1
  52   28   53 1
  53   28   54 1
  54   29   30 1
  55   29   55 1
  56   29   56 1
  57   30   31 1
  58   30   57 1
  59   30   58 1
  60   31   32 1
  61   31   59 1
  62   31   60 1
  63   32   61 1
  64   32   62 1
  65   33   63 1

#	End of record

