#	Name: ASD01816546
#	Creating user name:	WinNT
#	Creation time:	15. 06. 2019 19:35

#	Modifying user name:	WinNT
#	Modification time:	15. 06. 2019 19:35

#	Program:	/corina/corina34_cracker 3.40 0067  02.08.2006

@<TRIPOS>MOLECULE
ASD01816546
  48   52    0    0    0
SMALL
NO_CHARGES


@<TRIPOS>ATOM
   1 C1            -0.1568     1.2458     0.1569 C.ar    
   2 C2            -0.0877    -0.1379     0.1420 C.ar    
   3 C3             1.1316    -0.7803     0.0809 C.ar    
   4 C4             2.3074    -0.0399     0.0335 C.ar    
   5 C5             2.2339     1.3630     0.0487 C.ar    
   6 C6             0.9985     1.9991     0.1105 C.ar    
   7 N7             3.5340    -0.6784    -0.0274 N.pl3   
   8 C8             4.7013    -0.0164    -0.0752 C.2     
   9 C9             4.7543     1.3552    -0.0665 C.2     
  10 C10            3.4937     2.1293    -0.0024 C.2     
  11 C11            5.8147     2.3575    -0.1069 C.2     
  12 N12            5.1986     3.5587    -0.0694 N.am    
  13 N13            3.8129     3.3916    -0.0071 N.2     
  14 C14            5.8554     4.7958    -0.0892 C.ar    
  15 O15            7.0162     2.1514    -0.1627 O.2     
  16 C16            3.5599    -2.1431    -0.0400 C.3     
  17 C17            3.4225    -2.6358    -1.4575 C.ar    
  18 C18            3.4794    -3.9902    -1.7269 C.ar    
  19 C19            3.3535    -4.4422    -3.0274 C.ar    
  20 C20            3.1702    -3.5397    -4.0581 C.ar    
  21 C21            3.1124    -2.1849    -3.7885 C.ar    
  22 C22            3.2340    -1.7333    -2.4879 C.ar    
  23 C23            6.2197     5.3707    -1.2988 C.ar    
  24 C24            6.8675     6.5910    -1.3153 C.ar    
  25 C25            7.1538     7.2404    -0.1288 C.ar    
  26 C26            6.7933     6.6717     1.0793 C.ar    
  27 C27            6.1389     5.4539     1.1032 C.ar    
  28 F28            5.7866     4.8981     2.2832 F       
  29 C29            3.6793    -4.9743    -0.6032 C.3     
  30 O30            3.5775    -6.3056    -1.1122 O.3     
  31 H31           -1.1179     1.7364     0.2004 H       
  32 H32           -0.9972    -0.7191     0.1790 H       
  33 H33            1.1728    -1.8595     0.0703 H       
  34 H34            0.9436     3.0776     0.1218 H       
  35 H35            5.6227    -0.5780    -0.1212 H       
  36 H36            4.5043    -2.4934     0.3765 H       
  37 H37            2.7341    -2.5262     0.5595 H       
  38 H38            3.3986    -5.5005    -3.2380 H       
  39 H39            3.0725    -3.8928    -5.0740 H       
  40 H40            2.9695    -1.4797    -4.5938 H       
  41 H41            3.1888    -0.6750    -2.2772 H       
  42 H42            5.9974     4.8644    -2.2265 H       
  43 H43            7.1509     7.0382    -2.2566 H       
  44 H44            7.6605     8.1940    -0.1454 H       
  45 H45            7.0187     7.1814     2.0043 H       
  46 H46            4.6657    -4.8279    -0.1632 H       
  47 H47            2.9150    -4.8168     0.1578 H       
  48 H48            3.6960    -6.9929    -0.4423 H       
@<TRIPOS>BOND
   1    1    2 ar
   2    1    6 ar
   3    1   31 1
   4    2    3 ar
   5    2   32 1
   6    3    4 ar
   7    3   33 1
   8    4    5 ar
   9    4    7 1
  10    5    6 ar
  11    5   10 1
  12    6   34 1
  13    7    8 1
  14    7   16 1
  15    8    9 2
  16    8   35 1
  17    9   10 1
  18    9   11 1
  19   10   13 2
  20   11   12 am
  21   11   15 2
  22   12   13 1
  23   12   14 1
  24   14   23 ar
  25   14   27 ar
  26   16   17 1
  27   16   36 1
  28   16   37 1
  29   17   18 ar
  30   17   22 ar
  31   18   19 ar
  32   18   29 1
  33   19   20 ar
  34   19   38 1
  35   20   21 ar
  36   20   39 1
  37   21   22 ar
  38   21   40 1
  39   22   41 1
  40   23   24 ar
  41   23   42 1
  42   24   25 ar
  43   24   43 1
  44   25   26 ar
  45   25   44 1
  46   26   27 ar
  47   26   45 1
  48   27   28 1
  49   29   30 1
  50   29   46 1
  51   29   47 1
  52   30   48 1

#	End of record

