#	Name: ASD01840476
#	Creating user name:	WinNT
#	Creation time:	15. 06. 2019 19:37

#	Modifying user name:	WinNT
#	Modification time:	15. 06. 2019 19:37

#	Program:	/corina/corina34_cracker 3.40 0067  02.08.2006

@<TRIPOS>MOLECULE
ASD01840476
  54   58    0    0    0
SMALL
NO_CHARGES


@<TRIPOS>ATOM
   1 C1            -1.1241     7.7013     0.1974 C.ar    
   2 C2            -1.5213     8.9792     0.5226 C.ar    
   3 N3            -0.6441     9.9686     0.5246 N.ar    
   4 N4             0.5909     9.7971     0.2322 N.ar    
   5 C5             0.2355     7.4903    -0.1286 C.ar    
   6 C6             0.9305     6.2735    -0.5054 C.2     
   7 C7             1.0873     8.6022    -0.0977 C.ar    
   8 S8             2.7216     8.1209    -0.5316 S.3     
   9 C9             2.2529     6.4463    -0.7514 C.2     
  10 C10           -2.1083     6.5601     0.1952 C.3     
  11 C11           -2.9606     9.2509     0.8769 C.3     
  12 N12            0.2979     5.0416    -0.6048 N.pl3   
  13 C13            3.1675     5.3764    -1.1471 C.2     
  14 O14            2.7810     4.2220    -1.1687 O.2     
  15 N15            4.4384     5.6680    -1.4880 N.am    
  16 C16            5.0640     6.9932    -1.4007 C.3     
  17 C17            6.4953     6.8776    -1.9551 C.3     
  18 C18            6.4545     5.5574    -2.7898 C.3     
  19 C19            5.4290     4.7087    -2.0029 C.3     
  20 C20            6.7100     7.9655    -3.0232 C.3     
  21 N21            6.3116     7.4019    -4.3242 N.3     
  22 C22            5.8057     6.0219    -4.1122 C.3     
  23 C23            5.2950     8.2411    -4.9724 C.3     
  24 C24            5.8893     9.6182    -5.3161 C.3     
  25 C25            5.7918     9.7703    -6.8481 C.3     
  26 C26            4.6435     8.8128    -7.2526 C.3     
  27 C27            4.8571     7.6044    -6.3075 C.3     
  28 H28           -2.4625     6.3877    -0.8212 H       
  29 H29           -1.6209     5.6591     0.5678 H       
  30 H30           -2.9535     6.8079     0.8373 H       
  31 H31           -3.0996     9.1295     1.9512 H       
  32 H32           -3.2192    10.2702     0.5900 H       
  33 H33           -3.6042     8.5497     0.3458 H       
  34 H34           -0.6467     4.9634    -0.3986 H       
  35 H35            0.8005     4.2591    -0.8805 H       
  36 H36            4.4954     7.7094    -1.9939 H       
  37 H37            5.0963     7.3182    -0.3608 H       
  38 H38            7.2577     6.8865    -1.1761 H       
  39 H39            7.4204     5.0697    -2.9212 H       
  40 H40            5.9182     4.1923    -1.1769 H       
  41 H41            4.9480     3.9896    -2.6658 H       
  42 H42            6.0945     8.8352    -2.7934 H       
  43 H43            7.7611     8.2529    -3.0514 H       
  44 H44            6.1127     5.3723    -4.9318 H       
  45 H45            4.7197     6.0256    -4.0189 H       
  46 H46            4.4342     8.3596    -4.3143 H       
  47 H47            5.3164    10.4051    -4.8256 H       
  48 H48            6.9321     9.6638    -5.0019 H       
  49 H49            5.5436    10.7976    -7.1145 H       
  50 H50            6.7257     9.4674    -7.3217 H       
  51 H51            3.6732     9.2761    -7.0738 H       
  52 H52            4.7420     8.5101    -8.2951 H       
  53 H53            5.6400     6.9517    -6.6938 H       
  54 H54            3.9268     7.0511    -6.1794 H       
@<TRIPOS>BOND
   1    1    2 ar
   2    1    5 ar
   3    1   10 1
   4    2   11 1
   5    2    3 ar
   6    3    4 ar
   7    4    7 ar
   8    5    7 ar
   9    5    6 1
  10    6    9 2
  11    6   12 1
  12    7    8 1
  13    8    9 1
  14    9   13 1
  15   10   28 1
  16   10   29 1
  17   10   30 1
  18   11   31 1
  19   11   32 1
  20   11   33 1
  21   12   34 1
  22   12   35 1
  23   13   14 2
  24   13   15 am
  25   15   16 1
  26   15   19 1
  27   16   17 1
  28   16   36 1
  29   16   37 1
  30   17   20 1
  31   17   18 1
  32   17   38 1
  33   18   19 1
  34   18   22 1
  35   18   39 1
  36   19   40 1
  37   19   41 1
  38   20   21 1
  39   20   42 1
  40   20   43 1
  41   21   22 1
  42   21   23 1
  43   22   44 1
  44   22   45 1
  45   23   24 1
  46   23   27 1
  47   23   46 1
  48   24   25 1
  49   24   47 1
  50   24   48 1
  51   25   26 1
  52   25   49 1
  53   25   50 1
  54   26   27 1
  55   26   51 1
  56   26   52 1
  57   27   53 1
  58   27   54 1

#	End of record

