#	Name: ASD01410596
#	Creating user name:	WinNT
#	Creation time:	15. 06. 2019 19:18

#	Modifying user name:	WinNT
#	Modification time:	15. 06. 2019 19:18

#	Program:	/corina/corina34_cracker 3.40 0067  02.08.2006

@<TRIPOS>MOLECULE
ASD01410596
  75   77    0    0    0
SMALL
NO_CHARGES


@<TRIPOS>ATOM
   1 C1             1.4991    -2.0849    -1.6130 C.ar    
   2 O2             0.9113    -3.3057    -1.6131 O.3     
   3 C3            -0.4208    -3.3731    -1.3465 C.ar    
   4 C4            -1.1932    -4.3807    -1.9187 C.ar    
   5 C5            -2.5481    -4.4571    -1.6540 C.ar    
   6 C6            -3.1467    -3.5289    -0.8149 C.ar    
   7 C7            -2.3725    -2.5115    -0.2352 C.ar    
   8 C8            -1.0022    -2.4452    -0.5045 C.ar    
   9 N9            -4.5128    -3.6059    -0.5486 N.am    
  10 C10           -4.9500    -4.2573     0.5473 C.2     
  11 C11           -5.4732    -2.9788    -1.4599 C.3     
  12 O12           -6.1402    -4.3644     0.7546 O.2     
  13 C13           -3.9601    -4.8525     1.5152 C.3     
  14 C14           -4.5984    -6.0464     2.2280 C.3     
  15 C15           -3.5934    -6.6507     3.2106 C.3     
  16 C16           -3.1919    -5.5953     4.2431 C.3     
  17 C17           -2.5535    -4.4015     3.5302 C.3     
  18 C18           -3.5586    -3.7972     2.5476 C.3     
  19 C19           -2.1868    -6.1996     5.2257 C.3     
  20 C20           -4.7229    -2.1179    -2.4781 C.3     
  21 O21           -7.1118    -4.7446    -1.2665 O.3     
  22 C22           -6.2636    -4.0641    -2.1936 C.3     
  23 C23           -7.8982    -5.7838    -1.8529 C.3     
  24 O24           -4.1166    -1.0097    -1.8101 O.3     
  25 C25           -3.3868    -0.1378    -2.6756 C.3     
  26 F26           -0.6159    -5.2877    -2.7368 F       
  27 C27            2.8812    -1.9657    -1.7520 C.ar    
  28 C28            3.4381    -0.7005    -1.7469 C.ar    
  29 N29            2.6485     0.3540    -1.6111 N.ar    
  30 C30            1.3378     0.2101    -1.4808 C.ar    
  31 N31            0.7663    -0.9848    -1.4860 N.ar    
  32 N32            0.5458     1.3364    -1.3407 N.pl3   
  33 C33            1.1365     2.6695    -1.4827 C.3     
  34 C34           -0.8832     1.1955    -1.0503 C.3     
  35 C35           -2.9999    -1.5215     0.6565 C.2     
  36 O36           -4.1601    -1.6556     0.9926 O.2     
  37 O37           -2.2875    -0.4668     1.0998 O.3     
  38 C38            3.7485    -3.1887    -1.9039 C.3     
  39 F39            5.0868    -2.7993    -2.0249 F       
  40 F40            3.6010    -4.0077    -0.7793 F       
  41 F41            3.3630    -3.8946    -3.0486 F       
  42 H42           -3.1415    -5.2407    -2.1016 H       
  43 H43           -0.4009    -1.6652    -0.0614 H       
  44 H44           -6.1593    -2.3523    -0.8899 H       
  45 H45           -3.0753    -5.1843     0.9719 H       
  46 H46           -5.4832    -5.7145     2.7713 H       
  47 H47           -4.8845    -6.7982     1.4924 H       
  48 H48           -4.0482    -7.5012     3.7184 H       
  49 H49           -2.7086    -6.9825     2.6673 H       
  50 H50           -4.0766    -5.2635     4.7864 H       
  51 H51           -2.2675    -3.6496     4.2658 H       
  52 H52           -1.6688    -4.7333     2.9869 H       
  53 H53           -3.1038    -2.9466     2.0398 H       
  54 H54           -4.4433    -3.4653     3.0909 H       
  55 H55           -1.3021    -6.5315     4.6824 H       
  56 H56           -1.9008    -5.4478     5.9612 H       
  57 H57           -2.6416    -7.0502     5.7335 H       
  58 H58           -3.9514    -2.7169    -2.9620 H       
  59 H59           -5.4224    -1.7509    -3.2293 H       
  60 H60           -6.8716    -3.6061    -2.9738 H       
  61 H61           -5.5717    -4.7762    -2.6433 H       
  62 H62           -8.5401    -5.3615    -2.6260 H       
  63 H63           -7.2401    -6.5316    -2.2955 H       
  64 H64           -8.5140    -6.2510    -1.0844 H       
  65 H65           -2.5875    -0.6956    -3.1636 H       
  66 H66           -4.0585     0.2703    -3.4309 H       
  67 H67           -2.9576     0.6771    -2.0927 H       
  68 H68            4.5054    -0.5734    -1.8521 H       
  69 H69            1.0800     2.9827    -2.5252 H       
  70 H70            0.5892     3.3775    -0.8604 H       
  71 H71            2.1797     2.6400    -1.1681 H       
  72 H72           -1.0112     0.7264    -0.0748 H       
  73 H73           -1.3515     2.1797    -1.0445 H       
  74 H74           -1.3501     0.5755    -1.8156 H       
  75 H75           -2.7422     0.1562     1.6829 H       
@<TRIPOS>BOND
   1    1    2 1
   2    1   27 ar
   3    1   31 ar
   4    2    3 1
   5    3    4 ar
   6    3    8 ar
   7    4    5 ar
   8    4   26 1
   9    5    6 ar
  10    5   42 1
  11    6    7 ar
  12    6    9 1
  13    7    8 ar
  14    7   35 1
  15    8   43 1
  16    9   10 am
  17    9   11 1
  18   10   12 2
  19   10   13 1
  20   11   20 1
  21   11   22 1
  22   11   44 1
  23   13   14 1
  24   13   18 1
  25   13   45 1
  26   14   15 1
  27   14   46 1
  28   14   47 1
  29   15   16 1
  30   15   48 1
  31   15   49 1
  32   16   17 1
  33   16   19 1
  34   16   50 1
  35   17   18 1
  36   17   51 1
  37   17   52 1
  38   18   53 1
  39   18   54 1
  40   19   55 1
  41   19   56 1
  42   19   57 1
  43   20   24 1
  44   20   58 1
  45   20   59 1
  46   21   22 1
  47   21   23 1
  48   22   60 1
  49   22   61 1
  50   23   62 1
  51   23   63 1
  52   23   64 1
  53   24   25 1
  54   25   65 1
  55   25   66 1
  56   25   67 1
  57   27   28 ar
  58   27   38 1
  59   28   29 ar
  60   28   68 1
  61   29   30 ar
  62   30   31 ar
  63   30   32 1
  64   32   33 1
  65   32   34 1
  66   33   69 1
  67   33   70 1
  68   33   71 1
  69   34   72 1
  70   34   73 1
  71   34   74 1
  72   35   36 2
  73   35   37 1
  74   37   75 1
  75   38   39 1
  76   38   40 1
  77   38   41 1

#	End of record

