#	Name: ASD02320040
#	Creating user name:	WinNT
#	Creation time:	15. 06. 2019 20:20

#	Modifying user name:	WinNT
#	Modification time:	15. 06. 2019 20:20

#	Program:	/corina/corina34_cracker 3.40 0067  02.08.2006

@<TRIPOS>MOLECULE
ASD02320040
  88   94    0    0    0
SMALL
NO_CHARGES


@<TRIPOS>ATOM
   1 C1             1.4128    -0.8966    -0.8466 C.ar    
   2 C2             1.7099    -2.2320    -0.6082 C.ar    
   3 C3             3.0136    -2.6739    -0.6000 C.ar    
   4 C4             4.0528    -1.7693    -0.8347 C.ar    
   5 C5             3.7460    -0.4107    -1.0774 C.ar    
   6 C6             2.4196     0.0148    -1.0806 C.ar    
   7 N7             5.3424    -2.1623    -0.8346 N.2     
   8 C8             6.3176    -1.3185    -1.0534 C.2     
   9 N9             6.1133     0.0120    -1.2968 N.am    
  10 C10            4.8588     0.5193    -1.3209 C.2     
  11 C11            7.7058    -1.8266    -1.0365 C.ar    
  12 C12            8.6541    -1.2432    -0.1955 C.ar    
  13 C13            9.9536    -1.7222    -0.1828 C.ar    
  14 C14           10.3131    -2.7803    -1.0051 C.ar    
  15 C15            9.3734    -3.3630    -1.8432 C.ar    
  16 C16            8.0701    -2.8945    -1.8572 C.ar    
  17 N17           10.2729     2.6922    -5.0147 N.pl3   
  18 C18           11.4224     2.3405    -5.6359 C.2     
  19 N19           10.3577     3.9325    -4.6812 N.2     
  20 N20           11.4934     4.4136    -5.0467 N.2     
  21 C21           12.1974     3.4501    -5.6513 C.2     
  22 C22           13.5815     3.5752    -6.2342 C.3     
  23 N23           13.4906     4.0942    -7.6011 N.am    
  24 C24           13.5882     5.4401    -7.8252 C.2     
  25 C25           13.3161     3.2385    -8.6352 C.2     
  26 C26           13.2318     3.8146    -9.9853 C.ar    
  27 C27           13.3374     5.2177   -10.1203 C.ar    
  28 N28           13.5161     5.9725    -9.0178 N.2     
  29 C29           13.0534     3.0185   -11.1151 C.ar    
  30 C30           12.9817     3.6120   -12.3567 C.ar    
  31 C31           13.0860     4.9907   -12.4879 C.ar    
  32 C32           13.2603     5.7899   -11.3934 C.ar    
  33 C33           13.7840     6.3350    -6.6649 C.ar    
  34 C34           14.8523     6.1261    -5.7920 C.ar    
  35 C35           15.0296     6.9686    -4.7078 C.ar    
  36 C36           14.1458     8.0174    -4.4908 C.ar    
  37 C37           13.0866     8.2254    -5.3546 C.ar    
  38 C38           12.9042     7.3954    -6.4420 C.ar    
  39 O39           13.2326     2.0377    -8.4544 O.2     
  40 O40            4.6592     1.7007    -1.5358 O.2     
  41 C41            7.2596     0.8933    -1.5324 C.3     
  42 C42            7.6771     0.8053    -3.0016 C.3     
  43 C43            8.7929     1.8156    -3.2762 C.3     
  44 C44            9.1264     1.8139    -4.7694 C.3     
  45 O45           10.8781    -1.1547     0.6359 O.3     
  46 S46           10.9586    -1.7933     2.0151 S.o2    
  47 O47           11.8120    -0.9641     2.7920 O.2     
  48 O48            9.6243    -2.1047     2.3917 O.2     
  49 O49           11.6814    -3.1230     1.8544 O.3     
  50 Na50          13.6459    -2.9496     1.5884 Du      
  51 O51            9.7310    -4.3986    -2.6473 O.3     
  52 S52            9.6208    -5.7641    -1.9840 S.o2    
  53 O53           10.1954    -6.6972    -2.8887 O.2     
  54 O54           10.0729    -5.5983    -0.6470 O.2     
  55 O55            8.1400    -6.1049    -1.8978 O.3     
  56 Na56           7.3064    -6.5411    -3.6514 Du      
  57 O57           16.0688     6.7687    -3.8551 O.3     
  58 S58           17.3400     7.5100    -4.2438 S.o2    
  59 O59           18.3616     7.0367    -3.3769 O.2     
  60 O60           17.4283     7.4395    -5.6604 O.2     
  61 O61           17.1292     8.9773    -3.8988 O.3     
  62 Na62          17.2412     9.3753    -1.9523 Du      
  63 H63            0.3833    -0.5703    -0.8530 H       
  64 H64            0.9082    -2.9325    -0.4266 H       
  65 H65            3.2323    -3.7148    -0.4126 H       
  66 H66            2.1818     1.0518    -1.2661 H       
  67 H67            8.3753    -0.4190     0.4443 H       
  68 H68           11.3273    -3.1512    -0.9930 H       
  69 H69            7.3392    -3.3487    -2.5099 H       
  70 H70           11.6716     1.3697    -6.0382 H       
  71 H71           14.1720     4.2591    -5.6244 H       
  72 H72           14.0596     2.5958    -6.2484 H       
  73 H73           12.9725     1.9459   -11.0185 H       
  74 H74           12.8435     2.9996   -13.2355 H       
  75 H75           13.0278     5.4377   -13.4693 H       
  76 H76           13.3397     6.8605   -11.5118 H       
  77 H77           15.5386     5.3096    -5.9614 H       
  78 H78           14.2862     8.6729    -3.6441 H       
  79 H79           12.4022     9.0424    -5.1802 H       
  80 H80           12.0759     7.5608    -7.1150 H       
  81 H81            6.9832     1.9204    -1.2941 H       
  82 H82            8.0914     0.5847    -0.8991 H       
  83 H83            8.0367    -0.2008    -3.2175 H       
  84 H84            6.8201     1.0289    -3.6369 H       
  85 H85            8.4630     2.8110    -2.9787 H       
  86 H86            9.6800     1.5411    -2.7054 H       
  87 H87            8.2661     2.1731    -5.3342 H       
  88 H88            9.3711     0.7999    -5.0858 H       
@<TRIPOS>BOND
   1    1    2 ar
   2    1    6 ar
   3    1   63 1
   4    2    3 ar
   5    2   64 1
   6    3    4 ar
   7    3   65 1
   8    4    5 ar
   9    4    7 1
  10    5    6 ar
  11    5   10 1
  12    6   66 1
  13    7    8 2
  14    8    9 1
  15    8   11 1
  16    9   10 am
  17    9   41 1
  18   10   40 2
  19   11   12 ar
  20   11   16 ar
  21   12   13 ar
  22   12   67 1
  23   13   14 ar
  24   13   45 1
  25   14   15 ar
  26   14   68 1
  27   15   16 ar
  28   15   51 1
  29   16   69 1
  30   17   18 1
  31   17   19 1
  32   17   44 1
  33   18   21 2
  34   18   70 1
  35   19   20 2
  36   20   21 1
  37   21   22 1
  38   22   23 1
  39   22   71 1
  40   22   72 1
  41   23   24 1
  42   23   25 am
  43   24   33 1
  44   24   28 2
  45   25   26 1
  46   25   39 2
  47   26   27 ar
  48   26   29 ar
  49   27   28 1
  50   27   32 ar
  51   29   30 ar
  52   29   73 1
  53   30   31 ar
  54   30   74 1
  55   31   32 ar
  56   31   75 1
  57   32   76 1
  58   33   34 ar
  59   33   38 ar
  60   34   35 ar
  61   34   77 1
  62   35   36 ar
  63   35   57 1
  64   36   37 ar
  65   36   78 1
  66   37   38 ar
  67   37   79 1
  68   38   80 1
  69   41   42 1
  70   41   81 1
  71   41   82 1
  72   42   43 1
  73   42   83 1
  74   42   84 1
  75   43   44 1
  76   43   85 1
  77   43   86 1
  78   44   87 1
  79   44   88 1
  80   45   46 1
  81   46   47 2
  82   46   48 2
  83   46   49 1
  84   49   50 1
  85   51   52 1
  86   52   53 2
  87   52   54 2
  88   52   55 1
  89   55   56 1
  90   57   58 1
  91   58   59 2
  92   58   60 2
  93   58   61 1
  94   61   62 1

#	End of record

