#	Name: ASD01810580
#	Creating user name:	WinNT
#	Creation time:	15. 06. 2019 19:24

#	Modifying user name:	WinNT
#	Modification time:	15. 06. 2019 19:24

#	Program:	/corina/corina34_cracker 3.40 0067  02.08.2006

@<TRIPOS>MOLECULE
ASD01810580
  55   60    0    0    0
SMALL
NO_CHARGES


@<TRIPOS>ATOM
   1 N1            -0.0153     1.2784     0.0091 N.pl3   
   2 N2             0.0021    -0.0041     0.0020 N.2     
   3 C3             1.0992    -0.7158    -0.0123 C.2     
   4 C4             2.4157    -0.0320    -0.0211 C.2     
   5 C5             2.3886     1.4423    -0.0134 C.ar    
   6 C6             3.5452     2.2104    -0.0213 C.ar    
   7 C7             3.4472     3.5872    -0.0144 C.ar    
   8 C8             2.2029     4.1988     0.0009 C.ar    
   9 C9             1.0468     3.4467     0.0089 C.ar    
  10 C10            1.1229     2.0588     0.0024 C.ar    
  11 N11            2.7672    -2.2287    -0.0363 N.am    
  12 N12            3.3335    -0.9515    -0.0348 N.2     
  13 C13            1.4194    -2.1450    -0.0230 C.2     
  14 O14            0.6278    -3.0730    -0.0198 O.2     
  15 C15           -1.3160     1.9525     0.0188 C.3     
  16 C16           -1.7686     2.1913    -1.3987 C.ar    
  17 C17           -2.5272     1.2365    -2.0508 C.ar    
  18 C18           -2.9436     1.4522    -3.3498 C.ar    
  19 C19           -2.6000     2.6300    -4.0011 C.ar    
  20 C20           -1.8382     3.5872    -3.3430 C.ar    
  21 C21           -1.4292     3.3672    -2.0424 C.ar    
  22 N22           -2.7547     3.9827    -6.1028 N.pl3   
  23 N23           -3.0190     2.8512    -5.3150 N.pl3   
  24 N24           -3.7876     1.9858    -6.1095 N.pl3   
  25 C25           -3.9708     2.6070    -7.3519 C.2     
  26 C26           -3.3641     3.7798    -7.3480 C.2     
  27 C27            4.3986    -3.5370    -1.3075 C.3     
  28 C28            3.5274    -3.4809    -0.0498 C.3     
  29 C29            4.4269    -3.5470     1.1883 C.3     
  30 C30            5.2731    -4.8223     1.1236 C.3     
  31 C31            6.0768    -4.8265    -0.1794 C.3     
  32 O32            5.1821    -4.7319    -1.2897 O.3     
  33 H33            4.5144     1.7341    -0.0325 H       
  34 H34            4.3430     4.1903    -0.0204 H       
  35 H35            2.1383     5.2769     0.0069 H       
  36 H36            0.0838     3.9354     0.0204 H       
  37 H37           -2.0457     1.3266     0.5326 H       
  38 H38           -1.2268     2.9070     0.5374 H       
  39 H39           -2.7940     0.3210    -1.5438 H       
  40 H40           -3.5354     0.7058    -3.8587 H       
  41 H41           -1.5690     4.5038    -3.8467 H       
  42 H42           -0.8401     4.1126    -1.5288 H       
  43 H43           -2.2466     4.7637    -5.8331 H       
  44 H44           -4.1292     1.1169    -5.8464 H       
  45 H45           -4.5216     2.1915    -8.1828 H       
  46 H46           -3.3411     4.4738    -8.1751 H       
  47 H47            3.7611    -3.5334    -2.1916 H       
  48 H48            5.0586    -2.6698    -1.3314 H       
  49 H49            2.8383    -4.3255    -0.0461 H       
  50 H50            5.0816    -2.6758     1.2103 H       
  51 H51            3.8100    -3.5640     2.0867 H       
  52 H52            5.9558    -4.8499     1.9728 H       
  53 H53            4.6200    -5.6945     1.1516 H       
  54 H54            6.7587    -3.9762    -0.1886 H       
  55 H55            6.6483    -5.7519    -0.2510 H       
@<TRIPOS>BOND
   1    1    2 1
   2    1   10 1
   3    1   15 1
   4    2    3 2
   5    3    4 1
   6    3   13 1
   7    4    5 1
   8    4   12 2
   9    5    6 ar
  10    5   10 ar
  11    6    7 ar
  12    6   33 1
  13    7    8 ar
  14    7   34 1
  15    8    9 ar
  16    8   35 1
  17    9   10 ar
  18    9   36 1
  19   11   12 1
  20   11   13 am
  21   11   28 1
  22   13   14 2
  23   15   16 1
  24   15   37 1
  25   15   38 1
  26   16   17 ar
  27   16   21 ar
  28   17   18 ar
  29   17   39 1
  30   18   19 ar
  31   18   40 1
  32   19   20 ar
  33   19   23 1
  34   20   21 ar
  35   20   41 1
  36   21   42 1
  37   22   23 1
  38   22   26 1
  39   22   43 1
  40   23   24 1
  41   24   25 1
  42   24   44 1
  43   25   26 2
  44   25   45 1
  45   26   46 1
  46   27   28 1
  47   27   32 1
  48   27   47 1
  49   27   48 1
  50   28   29 1
  51   28   49 1
  52   29   30 1
  53   29   50 1
  54   29   51 1
  55   30   31 1
  56   30   52 1
  57   30   53 1
  58   31   32 1
  59   31   54 1
  60   31   55 1

#	End of record

