#	Name: ASD02588041
#	Creating user name:	WinNT
#	Creation time:	15. 06. 2019 20:25

#	Modifying user name:	WinNT
#	Modification time:	15. 06. 2019 20:25

#	Program:	/corina/corina34_cracker 3.40 0067  02.08.2006

@<TRIPOS>MOLECULE
ASD02588041
  32   34    0    0    0
SMALL
NO_CHARGES


@<TRIPOS>ATOM
   1 C1            -0.0167     1.3807     0.0096 C.2     
   2 N2             0.0021    -0.0041     0.0020 N.pl3   
   3 N3            -1.2234    -0.6851     0.0096 N.2     
   4 C4            -2.3423    -0.0152     0.0236 C.2     
   5 N5            -2.3755     1.3168     0.0310 N.2     
   6 C6            -1.2662     2.0386     0.0303 C.2     
   7 C7             1.2954     1.8158    -0.0006 C.2     
   8 C8             2.0997     0.6740    -0.0144 C.2     
   9 C9             1.2835    -0.4137    -0.0124 C.2     
  10 N10           -1.3298     3.4173     0.0386 N.pl3   
  11 C11            1.7414    -1.8493    -0.0249 C.3     
  12 O12            0.7063    -2.7026    -0.5599 O.3     
  13 C13            1.0207    -4.0284    -0.0809 C.3     
  14 C14            1.4788    -3.8220     1.3799 C.3     
  15 C15            1.9638    -2.3555     1.4176 C.3     
  16 C16           -0.2214    -4.9204    -0.1286 C.3     
  17 O17           -0.6030    -5.1334    -1.4892 O.3     
  18 F18            2.5276    -4.6934     1.6925 F       
  19 F19            1.7185     3.0989     0.0016 F       
  20 O20            3.3496    -2.2951     1.7613 O.3     
  21 *21            3.5923    -2.1670     3.1443 Du      
  22 H22           -3.2751    -0.5595     0.0288 H       
  23 H23            3.1795     0.6578    -0.0253 H       
  24 H24           -2.1913     3.8631     0.0451 H       
  25 H25           -0.5130     3.9405     0.0380 H       
  26 H26            2.6559    -1.9501    -0.6094 H       
  27 H27            1.8252    -4.4648    -0.6728 H       
  28 H28            0.6440    -3.9659     2.0659 H       
  29 H29            1.3689    -1.7744     2.1222 H       
  30 H30            0.0012    -5.8787     0.3406 H       
  31 H31           -1.0380    -4.4352     0.4060 H       
  32 H32           -1.3853    -5.6918    -1.5955 H       
@<TRIPOS>BOND
   1    1    2 1
   2    1    7 2
   3    1    6 1
   4    2    3 1
   5    2    9 1
   6    3    4 2
   7    4    5 1
   8    4   22 1
   9    5    6 2
  10    6   10 1
  11    7    8 1
  12    7   19 1
  13    8    9 2
  14    8   23 1
  15    9   11 1
  16   10   24 1
  17   10   25 1
  18   11   12 1
  19   11   15 1
  20   11   26 1
  21   12   13 1
  22   13   14 1
  23   13   16 1
  24   13   27 1
  25   14   15 1
  26   14   18 1
  27   14   28 1
  28   15   20 1
  29   15   29 1
  30   16   17 1
  31   16   30 1
  32   16   31 1
  33   17   32 1
  34   20   21 1

#	End of record

