#	Name: ASD01910093
#	Creating user name:	WinNT
#	Creation time:	15. 06. 2019 19:55

#	Modifying user name:	WinNT
#	Modification time:	15. 06. 2019 19:55

#	Program:	/corina/corina34_cracker 3.40 0067  02.08.2006

@<TRIPOS>MOLECULE
ASD01910093
  41   43    0    0    0
SMALL
NO_CHARGES


@<TRIPOS>ATOM
   1 N1            -0.0068     1.4098    -0.0031 N.2     
   2 N2            -0.0073     0.0099    -0.0455 N.pl3   
   3 C3             1.2423     1.8243     0.0386 C.2     
   4 C4             2.0818     0.6977     0.0242 C.2     
   5 C5             1.2895    -0.4115    -0.0278 C.2     
   6 C6             1.7530    -1.8167    -0.0585 C.ar    
   7 C7             1.6873     3.2394     0.0914 C.ar    
   8 C8             0.9276    -2.8152    -0.5757 C.ar    
   9 C9             3.0442     3.5477     0.0269 C.ar    
  10 C10            1.3655    -4.1235    -0.6015 C.ar    
  11 C11            2.6201    -4.4457    -0.1158 C.ar    
  12 C12            3.4433    -3.4599     0.3985 C.ar    
  13 C13            3.0193    -2.1471     0.4245 C.ar    
  14 C14            3.4536     4.8647     0.0763 C.ar    
  15 C15            2.5174     5.8793     0.1898 C.ar    
  16 C16            1.1667     5.5770     0.2543 C.ar    
  17 C17            0.7485     4.2634     0.1998 C.ar    
  18 F18            2.9225     7.1673     0.2383 F       
  19 C19            0.1528     6.6850     0.3778 C.3     
  20 C20           -1.1921    -0.8501    -0.0987 C.3     
  21 C21           -1.6294    -1.0146    -1.5315 C.2     
  22 O22           -2.7021    -1.7668    -1.8237 O.3     
  23 O23           -1.0144    -0.4694    -2.4172 O.2     
  24 C24           -3.0654    -1.8807    -3.2249 C.3     
  25 H25            3.1614     0.7082     0.0498 H       
  26 H26           -0.0521    -2.5649    -0.9549 H       
  27 H27            3.7748     2.7572    -0.0613 H       
  28 H28            0.7273    -4.8975    -1.0014 H       
  29 H29            2.9582    -5.4712    -0.1378 H       
  30 H30            4.4216    -3.7178     0.7765 H       
  31 H31            3.6629    -1.3784     0.8259 H       
  32 H32            4.5055     5.1047     0.0267 H       
  33 H33           -0.3045     4.0286     0.2501 H       
  34 H34           -0.1535     7.0098    -0.6166 H       
  35 H35           -0.7170     6.3221     0.9255 H       
  36 H36            0.5954     7.5245     0.9139 H       
  37 H37           -0.9517    -1.8264     0.3221 H       
  38 H38           -1.9978    -0.3947     0.4770 H       
  39 H39           -3.9470    -2.5144    -3.3213 H       
  40 H40           -3.2841    -0.8907    -3.6252 H       
  41 H41           -2.2379    -2.3224    -3.7801 H       
@<TRIPOS>BOND
   1    1    2 1
   2    1    3 2
   3    2   20 1
   4    2    5 1
   5    3    4 1
   6    3    7 1
   7    4    5 2
   8    4   25 1
   9    5    6 1
  10    6    8 ar
  11    6   13 ar
  12    7    9 ar
  13    7   17 ar
  14    8   10 ar
  15    8   26 1
  16    9   14 ar
  17    9   27 1
  18   10   11 ar
  19   10   28 1
  20   11   12 ar
  21   11   29 1
  22   12   13 ar
  23   12   30 1
  24   13   31 1
  25   14   15 ar
  26   14   32 1
  27   15   16 ar
  28   15   18 1
  29   16   17 ar
  30   16   19 1
  31   17   33 1
  32   19   34 1
  33   19   35 1
  34   19   36 1
  35   20   21 1
  36   20   37 1
  37   20   38 1
  38   21   22 1
  39   21   23 2
  40   22   24 1
  41   24   39 1
  42   24   40 1
  43   24   41 1

#	End of record

