#	Name: ASD02562060
#	Creating user name:	WinNT
#	Creation time:	15. 06. 2019 20:25

#	Modifying user name:	WinNT
#	Modification time:	15. 06. 2019 20:25

#	Program:	/corina/corina34_cracker 3.40 0067  02.08.2006

@<TRIPOS>MOLECULE
ASD02562060
  43   46    0    0    0
SMALL
NO_CHARGES


@<TRIPOS>ATOM
   1 C1             0.1549     1.3717     1.2133 C.2     
   2 C2             0.1697    -0.0336     1.1608 C.2     
   3 C3             1.2936    -0.6903     0.8107 C.2     
   4 N4             2.4358    -0.0014     0.5018 N.pl3   
   5 C5             2.4514     1.3741     0.5444 C.2     
   6 C6             1.2800     2.0712     0.9093 C.2     
   7 C7             3.6845    -0.4111     0.1242 C.2     
   8 C8             4.4405     0.7280    -0.0568 C.2     
   9 N9             3.6602     1.7922     0.2068 N.2     
  10 N10            4.1119    -1.7285    -0.0446 N.3     
  11 C11            5.8627     0.7723    -0.4698 C.ar    
  12 C12            2.9884    -2.6666     0.0809 C.3     
  13 C13            3.3288    -3.9700    -0.6445 C.3     
  14 C14            2.1587    -4.9471    -0.5138 C.3     
  15 C15            1.9012    -5.2392     0.9658 C.3     
  16 C16            1.5608    -3.9359     1.6913 C.3     
  17 C17            2.7309    -2.9588     1.5605 C.3     
  18 C18            6.5116     1.9990    -0.6166 C.ar    
  19 C19            7.8377     2.0340    -1.0013 C.ar    
  20 C20            8.5222     0.8565    -1.2414 C.ar    
  21 C21            7.8837    -0.3638    -1.0975 C.ar    
  22 C22            6.5598    -0.4117    -0.7077 C.ar    
  23 Cl23           5.6537     3.4781    -0.3167 Cl      
  24 Cl24           8.7512    -1.8366    -1.4011 Cl      
  25 H25           -0.7491     1.8938     1.4901 H       
  26 H26           -0.7240    -0.5896     1.4027 H       
  27 H27            1.2932    -1.7697     0.7738 H       
  28 H28            1.2775     3.1506     0.9467 H       
  29 H29            4.5832    -1.8451    -0.9291 H       
  30 H30            2.0958    -2.2261    -0.3632 H       
  31 H31            3.5123    -3.7618    -1.6986 H       
  32 H32            4.2215    -4.4105    -0.2005 H       
  33 H33            1.2661    -4.5065    -0.9579 H       
  34 H34            2.4013    -5.8756    -1.0306 H       
  35 H35            1.0676    -5.9353     1.0590 H       
  36 H36            2.7938    -5.6798     1.4099 H       
  37 H37            0.6682    -3.4953     1.2472 H       
  38 H38            1.3773    -4.1440     2.7454 H       
  39 H39            3.6235    -3.3993     2.0046 H       
  40 H40            2.4884    -2.0302     2.0774 H       
  41 H41            8.3409     2.9827    -1.1153 H       
  42 H42            9.5588     0.8889    -1.5428 H       
  43 H43            6.0628    -1.3640    -0.5958 H       
@<TRIPOS>BOND
   1    1    2 1
   2    1    6 2
   3    1   25 1
   4    2    3 2
   5    2   26 1
   6    3    4 1
   7    3   27 1
   8    4    5 1
   9    4    7 1
  10    5    6 1
  11    5    9 2
  12    6   28 1
  13    7    8 2
  14    7   10 1
  15    8    9 1
  16    8   11 1
  17   10   12 1
  18   10   29 1
  19   11   18 ar
  20   11   22 ar
  21   12   13 1
  22   12   17 1
  23   12   30 1
  24   13   14 1
  25   13   31 1
  26   13   32 1
  27   14   15 1
  28   14   33 1
  29   14   34 1
  30   15   16 1
  31   15   35 1
  32   15   36 1
  33   16   17 1
  34   16   37 1
  35   16   38 1
  36   17   39 1
  37   17   40 1
  38   18   19 ar
  39   18   23 1
  40   19   20 ar
  41   19   41 1
  42   20   21 ar
  43   20   42 1
  44   21   22 ar
  45   21   24 1
  46   22   43 1

#	End of record

