#	Name: ASD03330040
#	Creating user name:	WinNT
#	Creation time:	15. 06. 2019 20:36

#	Modifying user name:	WinNT
#	Modification time:	15. 06. 2019 20:36

#	Program:	/corina/corina34_cracker 3.40 0067  02.08.2006

@<TRIPOS>MOLECULE
ASD03330040
  63   66    0    0    0
SMALL
NO_CHARGES


@<TRIPOS>ATOM
   1 N1            -0.0167     1.3772     0.0096 N.pl3   
   2 C2             0.0021    -0.0041     0.0020 C.2     
   3 C3             1.2915    -0.4320    -0.0126 C.2     
   4 C4             2.1257     0.7121    -0.0144 C.ar    
   5 C5             3.5154     0.8895    -0.0271 C.ar    
   6 C6             4.0390     2.1504    -0.0257 C.ar    
   7 C7             3.2050     3.2628    -0.0118 C.ar    
   8 C8             1.8365     3.1135     0.0008 C.ar    
   9 C9             1.2792     1.8376    -0.0003 C.ar    
  10 C10           -1.1845    -0.8728     0.0091 C.2     
  11 O11           -1.0529    -2.0821     0.0018 O.2     
  12 N12           -2.4176    -0.3291     0.0237 N.am    
  13 C13           -3.5996    -1.1946     0.0308 C.3     
  14 C14           -4.8442    -0.3449     0.0471 C.ar    
  15 C15           -5.4255     0.0500    -1.1439 C.ar    
  16 C16           -6.5660     0.8286    -1.1326 C.ar    
  17 C17           -7.1293     1.2151     0.0769 C.ar    
  18 C18           -6.5428     0.8166     1.2715 C.ar    
  19 C19           -5.4056     0.0333     1.2529 C.ar    
  20 N20           -8.2826     2.0029     0.0920 N.3     
  21 C21           -8.7040     2.2927     1.4686 C.3     
  22 C22           -9.8789     3.2730     1.4481 C.3     
  23 C23          -11.0375     2.6572     0.6587 C.3     
  24 C24          -10.5586     2.3204    -0.7561 C.3     
  25 C25           -9.3639     1.3676    -0.6718 C.3     
  26 C26            1.7515    -1.8671    -0.0247 C.3     
  27 C27            1.8940    -2.3448    -1.4712 C.3     
  28 C28            2.3609    -3.8018    -1.4835 C.3     
  29 C29            2.5034    -4.2795    -2.9300 C.3     
  30 C30            2.9703    -5.7364    -2.9422 C.3     
  31 Cl31           5.7614     2.3667    -0.0409 Cl      
  32 H32           -0.8129     1.9312     0.0165 H       
  33 H33            4.1708     0.0311    -0.0376 H       
  34 H34            3.6349     4.2535    -0.0106 H       
  35 H35            1.1970     3.9837     0.0119 H       
  36 H36           -2.5225     0.6352     0.0296 H       
  37 H37           -3.5979    -1.8193    -0.8624 H       
  38 H38           -3.5807    -1.8282     0.9175 H       
  39 H39           -4.9868    -0.2505    -2.0839 H       
  40 H40           -7.0193     1.1371    -2.0631 H       
  41 H41           -6.9783     1.1153     2.2136 H       
  42 H42           -4.9518    -0.2809     2.1813 H       
  43 H43           -9.0112     1.3677     1.9566 H       
  44 H44           -7.8723     2.7340     2.0177 H       
  45 H45          -10.2016     3.4758     2.4693 H       
  46 H46           -9.5684     4.2033     0.9725 H       
  47 H47          -11.3739     1.7473     1.1557 H       
  48 H48          -11.8607     3.3696     0.6047 H       
  49 H49          -11.3668     1.8424    -1.3097 H       
  50 H50          -10.2588     3.2357    -1.2664 H       
  51 H51           -9.0116     1.1371    -1.6771 H       
  52 H52           -9.6681     0.4470    -0.1737 H       
  53 H53            2.7145    -1.9442     0.4800 H       
  54 H54            1.0196    -2.4876     0.4925 H       
  55 H55            0.9309    -2.2677    -1.9758 H       
  56 H56            2.6259    -1.7243    -1.9883 H       
  57 H57            3.3240    -3.8789    -0.9788 H       
  58 H58            1.6290    -4.4222    -0.9663 H       
  59 H59            1.5403    -4.2023    -3.4346 H       
  60 H60            3.2353    -3.6590    -3.4471 H       
  61 H61            3.9334    -5.8136    -2.4376 H       
  62 H62            2.2384    -6.3569    -2.4251 H       
  63 H63            3.0718    -6.0768    -3.9728 H       
@<TRIPOS>BOND
   1    1    2 1
   2    1    9 1
   3    1   32 1
   4    2    3 2
   5    2   10 1
   6    3    4 1
   7    3   26 1
   8    4    5 ar
   9    4    9 ar
  10    5    6 ar
  11    5   33 1
  12    6    7 ar
  13    6   31 1
  14    7    8 ar
  15    7   34 1
  16    8    9 ar
  17    8   35 1
  18   10   11 2
  19   10   12 am
  20   12   13 1
  21   12   36 1
  22   13   14 1
  23   13   37 1
  24   13   38 1
  25   14   15 ar
  26   14   19 ar
  27   15   16 ar
  28   15   39 1
  29   16   17 ar
  30   16   40 1
  31   17   18 ar
  32   17   20 1
  33   18   19 ar
  34   18   41 1
  35   19   42 1
  36   20   21 1
  37   20   25 1
  38   21   22 1
  39   21   43 1
  40   21   44 1
  41   22   23 1
  42   22   45 1
  43   22   46 1
  44   23   24 1
  45   23   47 1
  46   23   48 1
  47   24   25 1
  48   24   49 1
  49   24   50 1
  50   25   51 1
  51   25   52 1
  52   26   27 1
  53   26   53 1
  54   26   54 1
  55   27   28 1
  56   27   55 1
  57   27   56 1
  58   28   29 1
  59   28   57 1
  60   28   58 1
  61   29   30 1
  62   29   59 1
  63   29   60 1
  64   30   61 1
  65   30   62 1
  66   30   63 1

#	End of record

