#	Name: ASD00960093
#	Creating user name:	WinNT
#	Creation time:	15. 06. 2019 18:53

#	Modifying user name:	WinNT
#	Modification time:	15. 06. 2019 18:53

#	Program:	/corina/corina34_cracker 3.40 0067  02.08.2006

@<TRIPOS>MOLECULE
ASD00960093
  33   35    0    0    0
SMALL
NO_CHARGES


@<TRIPOS>ATOM
   1 C1            -0.0189     1.5406     0.0105 C.3     
   2 C2             0.0021    -0.0041     0.0020 C.3     
   3 O3            -0.1198    -0.3671    -1.3905 O.3     
   4 C4            -1.0916     0.5497    -1.9391 C.3     
   5 C5            -0.9496     0.6289    -3.4605 C.3     
   6 C6             1.3035    -0.5142     0.5652 C.2     
   7 C7             1.5715    -0.7022     1.8845 C.2     
   8 N8             2.3839    -0.8619    -0.1581 N.pl3   
   9 C9             3.3767    -1.2794     0.7084 C.2     
  10 C10            2.8776    -1.1832     1.9932 C.2     
  11 N11            2.6542    -0.8732    -1.5338 N.2     
  12 C12            3.8185    -1.2707    -1.9673 C.2     
  13 N13            4.7844    -1.6760    -1.1443 N.2     
  14 C14            4.6143    -1.6961     0.1674 C.2     
  15 O15           -1.3063    -0.6285    -4.0383 O.3     
  16 N16            5.6322    -2.1205     0.9975 N.pl3   
  17 C17           -0.7549     1.9132    -1.2959 C.3     
  18 O18            1.3126     2.0594     0.0006 O.3     
  19 I19            3.8873    -1.6654     3.7643 I       
  20 O20           -1.9512     2.6395    -1.0069 O.3     
  21 *21           -2.3678     3.4954    -2.0471 Du      
  22 H22           -0.5654     1.9103     0.8781 H       
  23 H23           -0.8394    -0.3981     0.5719 H       
  24 H24           -2.1008     0.2406    -1.6669 H       
  25 H25           -1.6087     1.4063    -3.8469 H       
  26 H26            0.0826     0.8670    -3.7171 H       
  27 H27            0.8940    -0.5125     2.7039 H       
  28 H28            4.0059    -1.2715    -3.0309 H       
  29 H29           -1.2395    -0.6512    -5.0027 H       
  30 H30            6.4786    -2.4064     0.6198 H       
  31 H31            5.5011    -2.1328     1.9585 H       
  32 H32           -0.1032     2.4933    -1.9493 H       
  33 H33            1.3583     3.0253     0.0053 H       
@<TRIPOS>BOND
   1    1    2 1
   2    1   18 1
   3    1   17 1
   4    1   22 1
   5    2    3 1
   6    2    6 1
   7    2   23 1
   8    3    4 1
   9    4   17 1
  10    4    5 1
  11    4   24 1
  12    5   15 1
  13    5   25 1
  14    5   26 1
  15    6    7 2
  16    6    8 1
  17    7   10 1
  18    7   27 1
  19    8    9 1
  20    8   11 1
  21    9   10 2
  22    9   14 1
  23   10   19 1
  24   11   12 2
  25   12   13 1
  26   12   28 1
  27   13   14 2
  28   14   16 1
  29   15   29 1
  30   16   30 1
  31   16   31 1
  32   17   20 1
  33   17   32 1
  34   18   33 1
  35   20   21 1

#	End of record

