#	Name: ASD07930826
#	Creating user name:	WinNT
#	Creation time:	15. 06. 2019 21:13

#	Modifying user name:	WinNT
#	Modification time:	15. 06. 2019 21:13

#	Program:	/corina/corina34_cracker 3.40 0067  02.08.2006

@<TRIPOS>MOLECULE
ASD07930826
  33   35    0    0    0
SMALL
NO_CHARGES


@<TRIPOS>ATOM
   1 S1            -0.0218     1.7566     0.0117 S.3     
   2 C2             0.0021    -0.0041     0.0020 C.2     
   3 N3             1.0067    -0.6801    -0.4023 N.2     
   4 C4             2.2788    -0.2480    -0.9298 C.3     
   5 C5             2.4018     1.2696    -1.1298 C.3     
   6 C6             1.7642     2.0612    -0.0037 C.3     
   7 O7             1.6798     0.2587    -3.1728 O.3     
   8 C8             2.3747    -0.7374    -2.4040 C.3     
   9 C9             1.6874     1.5096    -2.4693 C.3     
  10 N10           -1.1092    -0.6801     0.4498 N.pl3   
  11 C11            2.4451     2.5606    -3.2830 C.3     
  12 F12            1.7276     2.8552    -4.4474 F       
  13 C13            3.4157    -0.7905    -0.1027 C.ar    
  14 C14            4.7246    -0.5025    -0.4518 C.ar    
  15 C15            5.7686    -1.0004     0.3083 C.ar    
  16 C16            5.5030    -1.7861     1.4168 C.ar    
  17 C17            4.1937    -2.0727     1.7639 C.ar    
  18 C18            3.1517    -1.5705     1.0071 C.ar    
  19 F19            6.5211    -2.2732     2.1594 F       
  20 F20            4.9823     0.2640    -1.5341 F       
  21 H21            3.4526     1.5441    -1.2228 H       
  22 H22            1.9502     3.1243    -0.1561 H       
  23 H23            2.1942     1.7497     0.9482 H       
  24 H24            3.4173    -0.7975    -2.7161 H       
  25 H25            1.8892    -1.7072    -2.5136 H       
  26 H26            0.6646     1.8412    -2.2904 H       
  27 H27           -1.8839    -0.1868     0.7619 H       
  28 H28           -1.1182    -1.6500     0.4533 H       
  29 H29            2.5605     3.4668    -2.6883 H       
  30 H30            3.4284     2.1737    -3.5503 H       
  31 H31            6.7896    -0.7766     0.0366 H       
  32 H32            3.9864    -2.6856     2.6286 H       
  33 H33            2.1306    -1.7912     1.2809 H       
@<TRIPOS>BOND
   1    1    2 1
   2    1    6 1
   3    2    3 2
   4    2   10 1
   5    3    4 1
   6    4    8 1
   7    4   13 1
   8    4    5 1
   9    5    6 1
  10    5    9 1
  11    5   21 1
  12    6   22 1
  13    6   23 1
  14    7    8 1
  15    7    9 1
  16    8   24 1
  17    8   25 1
  18    9   11 1
  19    9   26 1
  20   10   27 1
  21   10   28 1
  22   11   12 1
  23   11   29 1
  24   11   30 1
  25   13   14 ar
  26   13   18 ar
  27   14   15 ar
  28   14   20 1
  29   15   16 ar
  30   15   31 1
  31   16   17 ar
  32   16   19 1
  33   17   18 ar
  34   17   32 1
  35   18   33 1

#	End of record

