#	Name: ASD01440012
#	Creating user name:	WinNT
#	Creation time:	15. 06. 2019 19:20

#	Modifying user name:	WinNT
#	Modification time:	15. 06. 2019 19:20

#	Program:	/corina/corina34_cracker 3.40 0067  02.08.2006

@<TRIPOS>MOLECULE
ASD01440012
  47   48    0    0    0
SMALL
NO_CHARGES


@<TRIPOS>ATOM
   1 F1             2.6471     0.1613    -0.7486 F       
   2 C2             2.5134     1.5497    -0.8573 C.3     
   3 C3             1.4951     2.0460     0.1711 C.3     
   4 N4             1.4531     3.5142     0.1495 N.3     
   5 C5             2.7295     4.0841     0.6013 C.3     
   6 C6             2.9437     3.7477     2.0784 C.3     
   7 C7             4.2531     4.3323     2.5419 C.ar    
   8 C8             4.2923     5.6108     3.0659 C.ar    
   9 C9             5.4934     6.1471     3.4911 C.ar    
  10 C10            6.6553     5.4045     3.3925 C.ar    
  11 C11            6.6159     4.1257     2.8693 C.ar    
  12 C12            5.4141     3.5878     2.4482 C.ar    
  13 N13            7.9415     5.9791     3.8468 N.pl3   
  14 O14            7.9763     7.1061     4.3075 O.2     
  15 O15            8.9652     5.3249     3.7600 O.2     
  16 C16            1.0983     4.0112    -1.1866 C.3     
  17 C17           -0.3759     3.7128    -1.4669 C.3     
  18 O18           -1.1921     4.4355    -0.5430 O.3     
  19 C19           -2.5375     4.2806    -0.6561 C.ar    
  20 C20           -3.3894     4.9527     0.2083 C.ar    
  21 C21           -4.7567     4.7940     0.0909 C.ar    
  22 C22           -5.2763     3.9660    -0.8870 C.ar    
  23 C23           -4.4293     3.2951    -1.7497 C.ar    
  24 C24           -3.0615     3.4546    -1.6398 C.ar    
  25 N25           -6.7415     3.7973    -1.0102 N.pl3   
  26 O26           -7.4885     4.3876    -0.2505 O.2     
  27 O27           -7.2003     3.0683    -1.8713 O.2     
  28 H28            3.4775     2.0232    -0.6718 H       
  29 H29            2.1706     1.8043    -1.8602 H       
  30 H30            0.5092     1.6507    -0.0738 H       
  31 H31            1.7865     1.7054     1.1646 H       
  32 H32            3.5440     3.6641     0.0112 H       
  33 H33            2.7094     5.1664     0.4743 H       
  34 H34            2.1292     4.1677     2.6685 H       
  35 H35            2.9638     2.6653     2.2054 H       
  36 H36            3.3846     6.1909     3.1429 H       
  37 H37            5.5242     7.1462     3.8999 H       
  38 H38            7.5237     3.5457     2.7920 H       
  39 H39            5.3834     2.5886     2.0394 H       
  40 H40            1.2660     5.0873    -1.2304 H       
  41 H41            1.7177     3.5163    -1.9347 H       
  42 H42           -0.6213     4.0177    -2.4842 H       
  43 H43           -0.5582     2.6441    -1.3539 H       
  44 H44           -2.9840     5.5993     0.9725 H       
  45 H45           -5.4203     5.3167     0.7638 H       
  46 H46           -4.8376     2.6487    -2.5125 H       
  47 H47           -2.4004     2.9303    -2.3140 H       
@<TRIPOS>BOND
   1    1    2 1
   2    2    3 1
   3    2   28 1
   4    2   29 1
   5    3    4 1
   6    3   30 1
   7    3   31 1
   8    4    5 1
   9    4   16 1
  10    5    6 1
  11    5   32 1
  12    5   33 1
  13    6    7 1
  14    6   34 1
  15    6   35 1
  16    7    8 ar
  17    7   12 ar
  18    8    9 ar
  19    8   36 1
  20    9   10 ar
  21    9   37 1
  22   10   11 ar
  23   10   13 1
  24   11   12 ar
  25   11   38 1
  26   12   39 1
  27   13   14 2
  28   13   15 2
  29   16   17 1
  30   16   40 1
  31   16   41 1
  32   17   18 1
  33   17   42 1
  34   17   43 1
  35   18   19 1
  36   19   20 ar
  37   19   24 ar
  38   20   21 ar
  39   20   44 1
  40   21   22 ar
  41   21   45 1
  42   22   23 ar
  43   22   25 1
  44   23   24 ar
  45   23   46 1
  46   24   47 1
  47   25   26 2
  48   25   27 2

#	End of record

