#	Name: ASD01915703
#	Creating user name:	WinNT
#	Creation time:	15. 06. 2019 20:06

#	Modifying user name:	WinNT
#	Modification time:	15. 06. 2019 20:06

#	Program:	/corina/corina34_cracker 3.40 0067  02.08.2006

@<TRIPOS>MOLECULE
ASD01915703
  44   47    0    0    0
SMALL
NO_CHARGES


@<TRIPOS>ATOM
   1 C1            -0.0042     1.4686     0.2350 C.2     
   2 N2             0.0662     0.1192    -0.0301 N.pl3   
   3 C3            -1.1429    -0.6636    -0.3131 C.3     
   4 C4            -2.3280    -0.0486     0.4293 C.3     
   5 N5            -2.4044     1.3988     0.2637 N.am    
   6 C6            -1.2935     2.1742     0.2864 C.2     
   7 C7             1.2763     1.9058     0.4262 C.2     
   8 C8             2.0758     0.7650     0.2739 C.2     
   9 N9             1.2865    -0.2503     0.0108 N.2     
  10 C10            3.5774     0.7131     0.3906 C.3     
  11 O11            4.0777     2.0190     0.6844 O.3     
  12 C12            5.4214     2.1472     0.8225 C.ar    
  13 O13           -1.3590     3.3874     0.3460 O.2     
  14 N14            6.1984     1.0858     0.6836 N.ar    
  15 C15            5.9682     3.3926     1.1028 C.ar    
  16 C16            7.3405     3.5099     1.2413 C.ar    
  17 C17            8.1203     2.3714     1.0937 C.ar    
  18 C18            7.5092     1.1661     0.8097 C.ar    
  19 C19           -3.6540     2.0002     0.0770 C.ar    
  20 C20           -4.5849     2.0025     1.1072 C.ar    
  21 C21           -3.9619     2.6004    -1.1367 C.ar    
  22 C22           -5.1958     3.1950    -1.3216 C.ar    
  23 C23           -6.1266     3.1939    -0.2986 C.ar    
  24 C24           -5.8209     2.5990     0.9197 C.ar    
  25 F25           -7.3317     3.7763    -0.4818 F       
  26 O26           -6.7363     2.5978     1.9249 O.3     
  27 C27           -6.3542     1.9684     3.1496 C.3     
  28 H28           -1.3402    -0.6535    -1.3851 H       
  29 H29           -0.9976    -1.6909     0.0209 H       
  30 H30           -3.2488    -0.4952     0.0540 H       
  31 H31           -2.2354    -0.2772     1.4911 H       
  32 H32            1.6014     2.9119     0.6462 H       
  33 H33            3.8561     0.0285     1.1917 H       
  34 H34            4.0031     0.3641    -0.5502 H       
  35 H35            5.3313     4.2581     1.2109 H       
  36 H36            7.7939     4.4657     1.4589 H       
  37 H37            9.1941     2.4284     1.1952 H       
  38 H38            8.1115     0.2772     0.6939 H       
  39 H39           -4.3457     1.5394     2.0532 H       
  40 H40           -3.2365     2.6028    -1.9369 H       
  41 H41           -5.4333     3.6616    -2.2662 H       
  42 H42           -5.4743     2.4676     3.5555 H       
  43 H43           -7.1737     2.0380     3.8649 H       
  44 H44           -6.1232     0.9198     2.9626 H       
@<TRIPOS>BOND
   1    1    2 1
   2    1    7 2
   3    1    6 1
   4    2    3 1
   5    2    9 1
   6    3    4 1
   7    3   28 1
   8    3   29 1
   9    4    5 1
  10    4   30 1
  11    4   31 1
  12    5    6 am
  13    5   19 1
  14    6   13 2
  15    7    8 1
  16    7   32 1
  17    8    9 2
  18    8   10 1
  19   10   11 1
  20   10   33 1
  21   10   34 1
  22   11   12 1
  23   12   14 ar
  24   12   15 ar
  25   14   18 ar
  26   15   16 ar
  27   15   35 1
  28   16   17 ar
  29   16   36 1
  30   17   18 ar
  31   17   37 1
  32   18   38 1
  33   19   20 ar
  34   19   21 ar
  35   20   24 ar
  36   20   39 1
  37   21   22 ar
  38   21   40 1
  39   22   23 ar
  40   22   41 1
  41   23   24 ar
  42   23   25 1
  43   24   26 1
  44   26   27 1
  45   27   42 1
  46   27   43 1
  47   27   44 1

#	End of record

