#	Name: ASD01478077
#	Creating user name:	WinNT
#	Creation time:	15. 06. 2019 19:21

#	Modifying user name:	WinNT
#	Modification time:	15. 06. 2019 19:21

#	Program:	/corina/corina34_cracker 3.40 0067  02.08.2006

@<TRIPOS>MOLECULE
ASD01478077
  35   36    0    0    0
SMALL
NO_CHARGES


@<TRIPOS>ATOM
   1 O1             0.3596     1.1286     0.6845 O.3     
   2 C2             0.3583    -0.2853     0.3997 C.3     
   3 C3             0.1717    -0.5590    -1.0221 C.3     
   4 C4             1.2924     0.0687    -1.8765 C.3     
   5 C5             1.0142     1.5383    -2.0223 C.3     
   6 C6             1.6988     2.3928    -0.9307 C.3     
   7 C7             1.6084     1.7172     0.4542 C.3     
   8 O8             0.1657    -1.9959    -1.2308 O.3     
   9 C9            -1.0248    -2.6186    -1.1592 C.2     
  10 O10           -2.0314    -1.9795    -0.9287 O.2     
  11 O11           -1.1002    -3.9496    -1.3429 O.3     
  12 C12           -2.3429    -4.5001    -1.3657 C.ar    
  13 C13           -3.1427    -4.3636    -2.4909 C.ar    
  14 C14           -4.4050    -4.9243    -2.5119 C.ar    
  15 C15           -4.8717    -5.6208    -1.4123 C.ar    
  16 C16           -4.0764    -5.7582    -0.2897 C.ar    
  17 C17           -2.8111    -5.2042    -0.2660 C.ar    
  18 N18           -6.2250    -6.2198    -1.4370 N.pl3   
  19 O19           -6.9266    -6.0990    -2.4253 O.2     
  20 O20           -6.6371    -6.8335    -0.4690 O.2     
  21 H21            1.3086    -0.7120     0.7207 H       
  22 H22           -0.4479    -0.7586     0.9602 H       
  23 H23           -0.7879    -0.1511    -1.3396 H       
  24 H24            2.2535    -0.0749    -1.3826 H       
  25 H25            1.3092    -0.4003    -2.8603 H       
  26 H26            1.3685     1.8674    -2.9992 H       
  27 H27           -0.0626     1.6987    -1.9698 H       
  28 H28            2.7479     2.5310    -1.1920 H       
  29 H29            1.2129     3.3674    -0.8842 H       
  30 H30            1.7922     2.4663     1.2244 H       
  31 H31            2.3782     0.9485     0.5222 H       
  32 H32           -2.7789    -3.8191    -3.3498 H       
  33 H33           -5.0281    -4.8183    -3.3876 H       
  34 H34           -4.4433    -6.3024     0.5681 H       
  35 H35           -2.1888    -5.3153     0.6096 H       
@<TRIPOS>BOND
   1    1    2 1
   2    1    7 1
   3    2    3 1
   4    2   21 1
   5    2   22 1
   6    3    4 1
   7    3    8 1
   8    3   23 1
   9    4    5 1
  10    4   24 1
  11    4   25 1
  12    5    6 1
  13    5   26 1
  14    5   27 1
  15    6    7 1
  16    6   28 1
  17    6   29 1
  18    7   30 1
  19    7   31 1
  20    8    9 1
  21    9   10 2
  22    9   11 1
  23   11   12 1
  24   12   13 ar
  25   12   17 ar
  26   13   14 ar
  27   13   32 1
  28   14   15 ar
  29   14   33 1
  30   15   16 ar
  31   15   18 1
  32   16   17 ar
  33   16   34 1
  34   17   35 1
  35   18   19 2
  36   18   20 2

#	End of record

