#	Name: ASD01915641
#	Creating user name:	WinNT
#	Creation time:	15. 06. 2019 20:05

#	Modifying user name:	WinNT
#	Modification time:	15. 06. 2019 20:05

#	Program:	/corina/corina34_cracker 3.40 0067  02.08.2006

@<TRIPOS>MOLECULE
ASD01915641
  44   47    0    0    0
SMALL
NO_CHARGES


@<TRIPOS>ATOM
   1 C1            -0.1054     1.0764    -0.3508 C.2     
   2 N2            -0.1176    -0.2086     0.1439 N.pl3   
   3 C3            -1.3615    -0.8299     0.6145 C.3     
   4 C4            -2.2921     0.2525     1.1591 C.3     
   5 N5            -2.4044     1.3988     0.2638 N.am    
   6 C6            -1.3269     1.8945    -0.3913 C.2     
   7 C7             1.1800     1.3481    -0.7264 C.2     
   8 C8             1.9008     0.1858    -0.4206 C.2     
   9 N9             1.0646    -0.6852     0.0944 N.2     
  10 C10            3.3760    -0.0266    -0.6438 C.3     
  11 O11            3.9444     1.1497    -1.2228 O.3     
  12 C12            5.2767     1.1241    -1.4895 C.ar    
  13 O13           -1.3676     2.9580    -0.9806 O.2     
  14 C14            5.8942     2.2318    -2.0519 C.ar    
  15 C15            6.0227    -0.0078    -1.1946 C.ar    
  16 C16            7.3769    -0.0313    -1.4667 C.ar    
  17 C17            7.9888     1.0719    -2.0325 C.ar    
  18 C18            7.2486     2.2033    -2.3221 C.ar    
  19 C19           -3.6541     2.0003     0.0771 C.ar    
  20 C20           -4.5036     1.5431    -0.9219 C.ar    
  21 C21           -4.0488     3.0515     0.8942 C.ar    
  22 C22           -5.2826     3.6437     0.7083 C.ar    
  23 C23           -6.1259     3.1898    -0.2918 C.ar    
  24 C24           -5.7365     2.1382    -1.1044 C.ar    
  25 F25           -7.3325     3.7702    -0.4718 F       
  26 C26           -1.7565     0.7310     2.5100 C.3     
  27 H27           -1.8475    -1.3442    -0.2145 H       
  28 H28           -1.1344    -1.5457     1.4045 H       
  29 H29           -3.2829    -0.1770     1.3074 H       
  30 H30            1.5581     2.2601    -1.1643 H       
  31 H31            3.8616    -0.2332     0.3099 H       
  32 H32            3.5237    -0.8709    -1.3172 H       
  33 H33            5.3164     3.1157    -2.2786 H       
  34 H34            5.5453    -0.8697    -0.7524 H       
  35 H35            7.9582    -0.9121    -1.2370 H       
  36 H36            9.0476     1.0516    -2.2445 H       
  37 H37            7.7288     3.0637    -2.7643 H       
  38 H38           -4.2003     0.7230    -1.5558 H       
  39 H39           -3.3917     3.4054     1.6748 H       
  40 H40           -5.5899     4.4613     1.3435 H       
  41 H41           -6.3956     1.7859    -1.8840 H       
  42 H42           -0.7538     1.1380     2.3798 H       
  43 H43           -2.4136     1.5042     2.9081 H       
  44 H44           -1.7206    -0.1083     3.2046 H       
@<TRIPOS>BOND
   1    1    2 1
   2    1    7 2
   3    1    6 1
   4    2    3 1
   5    2    9 1
   6    3    4 1
   7    3   27 1
   8    3   28 1
   9    4    5 1
  10    4   26 1
  11    4   29 1
  12    5    6 am
  13    5   19 1
  14    6   13 2
  15    7    8 1
  16    7   30 1
  17    8    9 2
  18    8   10 1
  19   10   11 1
  20   10   31 1
  21   10   32 1
  22   11   12 1
  23   12   14 ar
  24   12   15 ar
  25   14   18 ar
  26   14   33 1
  27   15   16 ar
  28   15   34 1
  29   16   17 ar
  30   16   35 1
  31   17   18 ar
  32   17   36 1
  33   18   37 1
  34   19   20 ar
  35   19   21 ar
  36   20   24 ar
  37   20   38 1
  38   21   22 ar
  39   21   39 1
  40   22   23 ar
  41   22   40 1
  42   23   24 ar
  43   23   25 1
  44   24   41 1
  45   26   42 1
  46   26   43 1
  47   26   44 1

#	End of record

