#	Name: ASD05503041
#	Creating user name:	WinNT
#	Creation time:	15. 06. 2019 21:01

#	Modifying user name:	WinNT
#	Modification time:	15. 06. 2019 21:01

#	Program:	/corina/corina34_cracker 3.40 0067  02.08.2006

@<TRIPOS>MOLECULE
ASD05503041
  46   48    0    0    0
SMALL
NO_CHARGES


@<TRIPOS>ATOM
   1 C1             0.4503     2.4415    -1.0889 C.ar    
   2 C2             0.4362     1.0681    -0.8812 C.ar    
   3 C3             1.6248     0.3907    -0.6494 C.ar    
   4 C4             2.8241     1.0880    -0.6261 C.ar    
   5 C5             2.8313     2.4619    -0.8346 C.ar    
   6 C6             1.6463     3.1332    -1.0650 C.ar    
   7 N7            -0.7754     0.3686    -0.9051 N.am    
   8 C8            -0.8145    -0.8958    -1.3701 C.2     
   9 C9            -2.0898    -1.6934    -1.2782 C.3     
  10 O10            0.1768    -1.3918    -1.8625 O.2     
  11 N11            4.0242     0.4091    -0.3924 N.am    
  12 C12            5.0333     1.0269     0.2529 C.2     
  13 C13            6.3362     0.3467     0.4103 C.ar    
  14 O14            4.8720     2.1435     0.7056 O.2     
  15 C15            6.5774    -0.8647    -0.2396 C.ar    
  16 C16            7.7960    -1.4942    -0.0889 C.ar    
  17 C17            8.7774    -0.9272     0.7043 C.ar    
  18 C18            8.5445     0.2734     1.3518 C.ar    
  19 C19            7.3329     0.9160     1.2050 C.ar    
  20 C20            7.0812     2.2237     1.9104 C.3     
  21 C21           -1.8682    -3.0643    -1.8636 C.ar    
  22 C22           -1.4351    -4.0989    -1.0555 C.ar    
  23 C23           -1.2317    -5.3564    -1.5919 C.ar    
  24 C24           -1.4617    -5.5796    -2.9378 C.ar    
  25 C25           -1.8952    -4.5437    -3.7460 C.ar    
  26 C26           -2.1037    -3.2880    -3.2073 C.ar    
  27 Cl27          -1.2060    -7.1586    -3.6123 Cl      
  28 H28           -0.4741     2.9685    -1.2738 H       
  29 H29            1.6164    -0.6771    -0.4873 H       
  30 H30            3.7644     3.0054    -0.8162 H       
  31 H31            1.6546     4.2009    -1.2272 H       
  32 H32           -1.5872     0.7936    -0.5870 H       
  33 H33           -2.3847    -1.7880    -0.2331 H       
  34 H34           -2.8776    -1.1842    -1.8333 H       
  35 H35            4.1303    -0.5065    -0.6948 H       
  36 H36            5.8119    -1.3085    -0.8588 H       
  37 H37            7.9838    -2.4317    -0.5909 H       
  38 H38            9.7295    -1.4240     0.8190 H       
  39 H39            9.3148     0.7105     1.9699 H       
  40 H40            7.2616     3.0488     1.2214 H       
  41 H41            6.0477     2.2576     2.2551 H       
  42 H42            7.7522     2.3106     2.7650 H       
  43 H43           -1.2552    -3.9245    -0.0050 H       
  44 H44           -0.8930    -6.1645    -0.9606 H       
  45 H45           -2.0750    -4.7173    -4.7967 H       
  46 H46           -2.4420    -2.4793    -3.8381 H       
@<TRIPOS>BOND
   1    1    2 ar
   2    1    6 ar
   3    1   28 1
   4    2    3 ar
   5    2    7 1
   6    3    4 ar
   7    3   29 1
   8    4    5 ar
   9    4   11 1
  10    5    6 ar
  11    5   30 1
  12    6   31 1
  13    7    8 am
  14    7   32 1
  15    8    9 1
  16    8   10 2
  17    9   21 1
  18    9   33 1
  19    9   34 1
  20   11   12 am
  21   11   35 1
  22   12   13 1
  23   12   14 2
  24   13   15 ar
  25   13   19 ar
  26   15   16 ar
  27   15   36 1
  28   16   17 ar
  29   16   37 1
  30   17   18 ar
  31   17   38 1
  32   18   19 ar
  33   18   39 1
  34   19   20 1
  35   20   40 1
  36   20   41 1
  37   20   42 1
  38   21   22 ar
  39   21   26 ar
  40   22   23 ar
  41   22   43 1
  42   23   24 ar
  43   23   44 1
  44   24   25 ar
  45   24   27 1
  46   25   26 ar
  47   25   45 1
  48   26   46 1

#	End of record

