#	Name: ASD01915113
#	Creating user name:	WinNT
#	Creation time:	15. 06. 2019 20:04

#	Modifying user name:	WinNT
#	Modification time:	15. 06. 2019 20:04

#	Program:	/corina/corina34_cracker 3.40 0067  02.08.2006

@<TRIPOS>MOLECULE
ASD01915113
  47   50    0    0    0
SMALL
NO_CHARGES


@<TRIPOS>ATOM
   1 C1            -0.2245     1.4610    -1.1269 C.ar    
   2 C2            -0.2359     0.0859    -1.2810 C.ar    
   3 C3             0.9611    -0.6058    -1.1448 C.ar    
   4 C4             2.1176     0.0949    -0.8618 C.ar    
   5 N5             2.0957     1.4068    -0.7205 N.ar    
   6 C6             0.9760     2.0995    -0.8429 C.ar    
   7 O7             1.0000     3.4476    -0.6895 O.3     
   8 C8             2.2651     4.0451    -0.3986 C.3     
   9 C9             2.0970     5.5366    -0.2634 C.2     
  10 C10            0.8952     6.2457    -0.3928 C.2     
  11 N11            3.0495     6.4000     0.0018 N.2     
  12 C12            1.2323     7.5541    -0.1924 C.2     
  13 C13            0.4247     8.7833    -0.1929 C.2     
  14 N14            2.5861     7.5869     0.0602 N.pl3   
  15 C15            3.2730     8.8499     0.3563 C.3     
  16 C16            2.5573     9.9930    -0.3618 C.3     
  17 N17            1.1093     9.9527    -0.1718 N.am    
  18 O18           -0.7911     8.7521    -0.2115 O.2     
  19 C19            3.2518     9.1015     1.8653 C.3     
  20 Cl20           1.0031    -2.3317    -1.3277 Cl      
  21 C21            0.4147    11.1474     0.0408 C.ar    
  22 C22            0.3177    12.0867    -0.9786 C.ar    
  23 C23           -0.3685    13.2667    -0.7685 C.ar    
  24 C24           -0.9605    13.5165     0.4553 C.ar    
  25 C25           -0.8668    12.5822     1.4771 C.ar    
  26 C26           -0.1836    11.3943     1.2684 C.ar    
  27 O27           -1.4487    12.8297     2.6800 O.3     
  28 C28           -2.1406    14.0718     2.8228 C.3     
  29 H29           -1.1361     2.0308    -1.2304 H       
  30 H30           -1.1544    -0.4376    -1.5018 H       
  31 H31            3.0510    -0.4376    -0.7544 H       
  32 H32            2.6535     3.6372     0.5346 H       
  33 H33            2.9631     3.8299    -1.2076 H       
  34 H34           -0.0848     5.8447    -0.6052 H       
  35 H35            4.3052     8.7925     0.0107 H       
  36 H36            2.9361    10.9411     0.0198 H       
  37 H37            2.7763     9.9316    -1.4278 H       
  38 H38            3.7590     8.2838     2.3772 H       
  39 H39            3.7620    10.0395     2.0844 H       
  40 H40            2.2192     9.1606     2.2092 H       
  41 H41            0.7793    11.8939    -1.9358 H       
  42 H42           -0.4423    13.9959    -1.5617 H       
  43 H43           -1.4964    14.4402     0.6166 H       
  44 H44           -0.1131    10.6642     2.0612 H       
  45 H45           -1.4460    14.8956     2.6584 H       
  46 H46           -2.9468    14.1248     2.0911 H       
  47 H47           -2.5568    14.1425     3.8277 H       
@<TRIPOS>BOND
   1    1    2 ar
   2    1    6 ar
   3    1   29 1
   4    2    3 ar
   5    2   30 1
   6    3    4 ar
   7    3   20 1
   8    4    5 ar
   9    4   31 1
  10    5    6 ar
  11    6    7 1
  12    7    8 1
  13    8    9 1
  14    8   32 1
  15    8   33 1
  16    9   11 2
  17    9   10 1
  18   10   12 2
  19   10   34 1
  20   11   14 1
  21   12   14 1
  22   12   13 1
  23   13   17 am
  24   13   18 2
  25   14   15 1
  26   15   16 1
  27   15   19 1
  28   15   35 1
  29   16   17 1
  30   16   36 1
  31   16   37 1
  32   17   21 1
  33   19   38 1
  34   19   39 1
  35   19   40 1
  36   21   22 ar
  37   21   26 ar
  38   22   23 ar
  39   22   41 1
  40   23   24 ar
  41   23   42 1
  42   24   25 ar
  43   24   43 1
  44   25   26 ar
  45   25   27 1
  46   26   44 1
  47   27   28 1
  48   28   45 1
  49   28   46 1
  50   28   47 1

#	End of record

