#	Name: ASD03082192
#	Creating user name:	WinNT
#	Creation time:	15. 06. 2019 20:27

#	Modifying user name:	WinNT
#	Modification time:	15. 06. 2019 20:27

#	Program:	/corina/corina34_cracker 3.40 0067  02.08.2006

@<TRIPOS>MOLECULE
ASD03082192
  41   44    0    0    0
SMALL
NO_CHARGES


@<TRIPOS>ATOM
   1 C1             1.2103    -0.2009     0.7551 C.ar    
   2 C2             0.0398     0.3090     0.2080 C.ar    
   3 C3            -0.0065     1.6313    -0.2162 C.ar    
   4 C4             1.1103     2.4338    -0.0927 C.ar    
   5 C5             2.2742     1.9228     0.4525 C.ar    
   6 C6             2.3237     0.6074     0.8757 C.ar    
   7 N7            -1.0884    -0.5061     0.0840 N.pl3   
   8 H8            -0.9843    -1.4599    -0.0590 H       
   9 C9            -2.3655     0.0523     0.1661 C.2     
  10 N10           -3.5112    -0.6026    -0.0308 N.2     
  11 N11           -2.6326     1.3050     0.4550 N.2     
  12 N12           -4.0300     1.4415     0.4322 N.pl3   
  13 C13           -4.5271     0.2227     0.1245 C.2     
  14 C14           -4.7971     2.6618     0.6942 C.3     
  15 C15           -5.9590    -0.1237    -0.0140 C.ar    
  16 C16           -6.3816    -1.4467     0.1142 C.ar    
  17 N17           -7.6568    -1.7551    -0.0053 N.ar    
  18 C18           -8.5746    -0.8427    -0.2462 C.ar    
  19 C19           -8.2422     0.4991    -0.3962 C.ar    
  20 C20           -6.9064     0.8709    -0.2692 C.ar    
  21 O21           -4.9772     3.3825    -0.5265 O.3     
  22 C22          -10.0814    -0.9417    -0.4045 C.3     
  23 C23          -10.5181     0.5350    -0.2590 C.3     
  24 O24           -9.3408     1.2564    -0.6602 O.3     
  25 C25            1.0611     3.8680    -0.5530 C.3     
  26 F26            0.6461     4.6834     0.5053 F       
  27 F27            2.3337     4.2656    -0.9767 F       
  28 F28            0.1580     3.9863    -1.6148 F       
  29 H29            1.2483    -1.2270     1.0899 H       
  30 H30           -0.9149     2.0308    -0.6424 H       
  31 H31            3.1462     2.5527     0.5480 H       
  32 H32            3.2341     0.2116     1.3010 H       
  33 H33           -5.7706     2.3973     1.1071 H       
  34 H34           -4.2570     3.2844     1.4074 H       
  35 H35           -5.6583    -2.2239     0.3125 H       
  36 H36           -6.6084     1.9037    -0.3732 H       
  37 H37           -5.4781     4.2038    -0.4281 H       
  38 H38          -10.3447    -1.3303    -1.3882 H       
  39 H39          -10.5161    -1.5557     0.3842 H       
  40 H40          -11.3528     0.7580    -0.9235 H       
  41 H41          -10.7758     0.7613     0.7756 H       
@<TRIPOS>BOND
   1    1    2 ar
   2    1    6 ar
   3    1   29 1
   4    2    3 ar
   5    2    7 1
   6    3    4 ar
   7    3   30 1
   8    4    5 ar
   9    4   25 1
  10    5    6 ar
  11    5   31 1
  12    6   32 1
  13    7    8 1
  14    7    9 1
  15    9   10 1
  16    9   11 2
  17   10   13 2
  18   11   12 1
  19   12   13 1
  20   12   14 1
  21   13   15 1
  22   14   21 1
  23   14   33 1
  24   14   34 1
  25   15   16 ar
  26   15   20 ar
  27   16   17 ar
  28   16   35 1
  29   17   18 ar
  30   18   19 ar
  31   18   22 1
  32   19   20 ar
  33   19   24 1
  34   20   36 1
  35   21   37 1
  36   22   23 1
  37   22   38 1
  38   22   39 1
  39   23   24 1
  40   23   40 1
  41   23   41 1
  42   25   26 1
  43   25   27 1
  44   25   28 1

#	End of record

