#	Name: ASD08170044
#	Creating user name:	WinNT
#	Creation time:	15. 06. 2019 21:17

#	Modifying user name:	WinNT
#	Modification time:	15. 06. 2019 21:17

#	Program:	/corina/corina34_cracker 3.40 0067  02.08.2006

@<TRIPOS>MOLECULE
ASD08170044
  56   58    0    0    0
SMALL
NO_CHARGES


@<TRIPOS>ATOM
   1 C1            -0.0184     1.5028     0.0103 C.3     
   2 C2             0.0021    -0.0041     0.0020 C.2     
   3 C3            -1.1370    -2.0844     0.0017 C.2     
   4 N4            -0.0714    -2.8270    -0.0120 N.2     
   5 N5            -0.2299    -4.0795    -0.0121 N.2     
   6 C6            -1.4517    -4.5090     0.0016 C.2     
   7 S7            -2.5151    -3.1018     0.0163 S.3     
   8 C8            -1.8867    -5.9519     0.0039 C.3     
   9 C9            -2.0174    -6.4428     1.4471 C.3     
  10 C10           -2.4590    -7.9077     1.4495 C.3     
  11 C11           -2.5897    -8.3986     2.8928 C.3     
  12 C12           -3.0246    -9.8415     2.8951 C.2     
  13 O13            1.0605    -0.5961    -0.0113 O.2     
  14 N14           -1.1558    -0.6938     0.0094 N.am    
  15 C15            1.3954     2.0244    -0.0004 C.ar    
  16 C16            2.0324     2.2701    -1.2024 C.ar    
  17 C17            3.3293     2.7485    -1.2122 C.ar    
  18 C18            3.9890     2.9817    -0.0200 C.ar    
  19 C19            3.3517     2.7369     1.1820 C.ar    
  20 C20            2.0533     2.2626     1.1918 C.ar    
  21 O21           -3.2117   -10.4201     1.8458 O.2     
  22 N22           -3.2058   -10.4888     4.0633 N.am    
  23 H23           -3.0561   -10.0259     4.9025 H       
  24 C24           -3.6286   -11.8914     4.0656 C.3     
  25 C25           -3.7573   -12.3749     5.4871 C.ar    
  26 C26           -4.9625   -12.2512     6.1528 C.ar    
  27 C27           -5.0805   -12.6946     7.4568 C.ar    
  28 C28           -3.9935   -13.2623     8.0949 C.ar    
  29 C29           -2.7886   -13.3869     7.4288 C.ar    
  30 C30           -2.6718   -12.9474     6.1234 C.ar    
  31 C31           -4.1219   -13.7449     9.5167 C.3     
  32 F32           -4.5267   -15.0841     9.5199 F       
  33 F33           -2.8858   -13.6298    10.1617 F       
  34 F34           -5.0725   -12.9688    10.1885 F       
  35 H35           -0.5455     1.8639    -0.8728 H       
  36 H36           -0.5286     1.8543     0.9071 H       
  37 H37           -2.8495    -6.0420    -0.4991 H       
  38 H38           -1.1454    -6.5557    -0.5195 H       
  39 H39           -1.0546    -6.3528     1.9501 H       
  40 H40           -2.7586    -5.8390     1.9706 H       
  41 H41           -3.4218    -7.9977     0.9466 H       
  42 H42           -1.7177    -8.5115     0.9261 H       
  43 H43           -1.6268    -8.3085     3.3957 H       
  44 H44           -3.3309    -7.7948     3.4162 H       
  45 H45           -2.0023    -0.2203     0.0200 H       
  46 H46            1.5170     2.0879    -2.1338 H       
  47 H47            3.8272     2.9397    -2.1513 H       
  48 H48            5.0025     3.3548    -0.0277 H       
  49 H49            3.8673     2.9187     2.1134 H       
  50 H50            1.5554     2.0713     2.1309 H       
  51 H51           -4.5914   -11.9815     3.5626 H       
  52 H52           -2.8873   -12.4952     3.5421 H       
  53 H53           -5.8117   -11.8076     5.6543 H       
  54 H54           -6.0219   -12.5973     7.9771 H       
  55 H55           -1.9393   -13.8301     7.9274 H       
  56 H56           -1.7305   -13.0447     5.6030 H       
@<TRIPOS>BOND
   1    1    2 1
   2    1   15 1
   3    1   35 1
   4    1   36 1
   5    2   13 2
   6    2   14 am
   7    3    4 2
   8    3    7 1
   9    3   14 1
  10    4    5 1
  11    5    6 2
  12    6    7 1
  13    6    8 1
  14    8    9 1
  15    8   37 1
  16    8   38 1
  17    9   10 1
  18    9   39 1
  19    9   40 1
  20   10   11 1
  21   10   41 1
  22   10   42 1
  23   11   12 1
  24   11   43 1
  25   11   44 1
  26   12   21 2
  27   12   22 am
  28   14   45 1
  29   15   16 ar
  30   15   20 ar
  31   16   17 ar
  32   16   46 1
  33   17   18 ar
  34   17   47 1
  35   18   19 ar
  36   18   48 1
  37   19   20 ar
  38   19   49 1
  39   20   50 1
  40   22   23 1
  41   22   24 1
  42   24   25 1
  43   24   51 1
  44   24   52 1
  45   25   26 ar
  46   25   30 ar
  47   26   27 ar
  48   26   53 1
  49   27   28 ar
  50   27   54 1
  51   28   29 ar
  52   28   31 1
  53   29   30 ar
  54   29   55 1
  55   30   56 1
  56   31   32 1
  57   31   33 1
  58   31   34 1

#	End of record

