#	Name: ASD06660246
#	Creating user name:	WinNT
#	Creation time:	15. 06. 2019 21:08

#	Modifying user name:	WinNT
#	Modification time:	15. 06. 2019 21:08

#	Program:	/corina/corina34_cracker 3.40 0067  02.08.2006

@<TRIPOS>MOLECULE
ASD06660246
  77   81    0    0    0
SMALL
NO_CHARGES


@<TRIPOS>ATOM
   1 C1            -0.0184     1.5028     0.0103 C.2     
   2 C2             0.0021    -0.0041     0.0020 C.3     
   3 C3            -0.7241    -0.5171    -1.2431 C.3     
   4 O4             1.0197     2.1211     0.0037 O.2     
   5 O5            -1.1898     2.1580     0.0194 O.3     
   6 C6            -0.8113    -2.0207    -1.1900 C.ar    
   7 C7            -1.8983    -2.6278    -0.5884 C.ar    
   8 C8            -1.9814    -4.0054    -0.5380 C.ar    
   9 C9            -0.9713    -4.7813    -1.0925 C.ar    
  10 C10            0.1192    -4.1682    -1.6960 C.ar    
  11 C11            0.1932    -2.7901    -1.7480 C.ar    
  12 N12           -1.0519    -6.1748    -1.0428 N.3     
  13 C13            0.1154    -6.7927    -1.6847 C.3     
  14 C14           -0.0755    -8.3100    -1.7414 C.3     
  15 C15           -0.2456    -8.8516    -0.3193 C.3     
  16 C16           -1.4383    -8.1570     0.3437 C.3     
  17 C17           -1.2079    -6.6440     0.3399 C.3     
  18 N18            0.5173   -11.1717    -0.2336 N.ar    
  19 C19           -0.4938   -10.3371    -0.3724 C.ar    
  20 C20           -1.7773   -10.8077    -0.5655 C.ar    
  21 C21           -1.9977   -12.1769    -0.6106 C.ar    
  22 C22           -0.9154   -13.0292    -0.4606 C.ar    
  23 C23           -1.1421   -14.5160    -0.5023 C.3     
  24 C24            0.1628   -15.2461    -0.8217 C.3     
  25 C25            1.2555   -14.7452     0.1316 C.3     
  26 N26            1.4609   -13.3145    -0.1296 N.pl3   
  27 C27            0.3486   -12.4875    -0.2733 C.ar    
  28 C28            2.0717    -0.5994     1.1419 C.2     
  29 O29            1.5367    -0.3240     2.1949 O.2     
  30 N30            1.3897    -0.4735    -0.0138 N.am    
  31 C31            3.4992    -1.0823     1.1257 C.3     
  32 C32            4.0362    -1.1344     2.5573 C.3     
  33 C33            3.1824    -2.0947     3.3878 C.3     
  34 C34            3.2406    -3.4932     2.7700 C.3     
  35 C35            2.7035    -3.4412     1.3384 C.3     
  36 C36            3.5574    -2.4809     0.5079 C.3     
  37 C37            4.3530    -0.1220     0.2952 C.3     
  38 H38           -0.4983    -0.3791     0.8948 H       
  39 H39           -1.7288    -0.0959    -1.2772 H       
  40 H40           -0.1736    -0.2164    -2.1345 H       
  41 H41           -1.1523     3.1243     0.0245 H       
  42 H42           -2.6831    -2.0240    -0.1572 H       
  43 H43           -2.8305    -4.4790    -0.0677 H       
  44 H44            0.9062    -4.7685    -2.1281 H       
  45 H45            1.0385    -2.3127    -2.2213 H       
  46 H46            0.2226    -6.4021    -2.6967 H       
  47 H47            1.0115    -6.5606    -1.1092 H       
  48 H48           -0.9638    -8.5434    -2.3284 H       
  49 H49            0.7981    -8.7697    -2.2037 H       
  50 H50            0.6581    -8.6527     0.2568 H       
  51 H51           -2.3480    -8.3879    -0.2105 H       
  52 H52           -1.5385    -8.5072     1.3710 H       
  53 H53           -0.3056    -6.4127     0.9059 H       
  54 H54           -2.0619    -6.1455     0.7984 H       
  55 H55           -2.6005   -10.1180    -0.6798 H       
  56 H56           -2.9924   -12.5704    -0.7592 H       
  57 H57           -1.5150   -14.8511     0.4655 H       
  58 H58           -1.8812   -14.7465    -1.2696 H       
  59 H59            0.0238   -16.3188    -0.6867 H       
  60 H60            0.4540   -15.0402    -1.8517 H       
  61 H61            0.9386   -14.8898     1.1644 H       
  62 H62            2.1819   -15.2900    -0.0504 H       
  63 H63            2.3573   -12.9508    -0.2012 H       
  64 H64            1.8177    -0.6938    -0.8559 H       
  65 H65            5.0687    -1.4837     2.5456 H       
  66 H66            3.9948    -0.1380     2.9974 H       
  67 H67            3.5650    -2.1318     4.4077 H       
  68 H68            2.1499    -1.7454     3.3995 H       
  69 H69            4.2731    -3.8425     2.7583 H       
  70 H70            2.6323    -4.1774     3.3617 H       
  71 H71            2.7450    -4.4375     0.8983 H       
  72 H72            1.6711    -3.0919     1.3501 H       
  73 H73            3.1748    -2.4438    -0.5120 H       
  74 H74            4.5899    -2.8302     0.4962 H       
  75 H75            4.3116     0.8743     0.7353 H       
  76 H76            5.3855    -0.4713     0.2835 H       
  77 H77            3.9704    -0.0849    -0.7247 H       
@<TRIPOS>BOND
   1    1    2 1
   2    1    4 2
   3    1    5 1
   4    2    3 1
   5    2   30 1
   6    2   38 1
   7    3    6 1
   8    3   39 1
   9    3   40 1
  10    5   41 1
  11    6    7 ar
  12    6   11 ar
  13    7    8 ar
  14    7   42 1
  15    8    9 ar
  16    8   43 1
  17    9   10 ar
  18    9   12 1
  19   10   11 ar
  20   10   44 1
  21   11   45 1
  22   12   13 1
  23   12   17 1
  24   13   14 1
  25   13   46 1
  26   13   47 1
  27   14   15 1
  28   14   48 1
  29   14   49 1
  30   15   16 1
  31   15   19 1
  32   15   50 1
  33   16   17 1
  34   16   51 1
  35   16   52 1
  36   17   53 1
  37   17   54 1
  38   18   19 ar
  39   18   27 ar
  40   19   20 ar
  41   20   21 ar
  42   20   55 1
  43   21   22 ar
  44   21   56 1
  45   22   23 1
  46   22   27 ar
  47   23   24 1
  48   23   57 1
  49   23   58 1
  50   24   25 1
  51   24   59 1
  52   24   60 1
  53   25   26 1
  54   25   61 1
  55   25   62 1
  56   26   27 1
  57   26   63 1
  58   28   29 2
  59   28   30 am
  60   28   31 1
  61   30   64 1
  62   31   32 1
  63   31   36 1
  64   31   37 1
  65   32   33 1
  66   32   65 1
  67   32   66 1
  68   33   34 1
  69   33   67 1
  70   33   68 1
  71   34   35 1
  72   34   69 1
  73   34   70 1
  74   35   36 1
  75   35   71 1
  76   35   72 1
  77   36   73 1
  78   36   74 1
  79   37   75 1
  80   37   76 1
  81   37   77 1

#	End of record

