#	Name: ASD01010016
#	Creating user name:	WinNT
#	Creation time:	15. 06. 2019 18:56

#	Modifying user name:	WinNT
#	Modification time:	15. 06. 2019 18:56

#	Program:	/corina/corina34_cracker 3.40 0067  02.08.2006

@<TRIPOS>MOLECULE
ASD01010016
  20   20    0    0    0
SMALL
NO_CHARGES


@<TRIPOS>ATOM
   1 C1            -0.0179     1.4698     0.0101 C.2     
   2 C2             0.0021    -0.0041     0.0020 C.ar    
   3 C3             1.2235    -0.6928    -0.0133 C.ar    
   4 O4             2.3931    -0.0059    -0.0203 O.3     
   5 C5             1.2301    -2.0795    -0.0209 C.ar    
   6 C6             0.0386    -2.7775    -0.0133 C.ar    
   7 C7            -1.1701    -2.1010     0.0014 C.ar    
   8 C8            -1.1958    -0.7233     0.0154 C.ar    
   9 O9             1.0260     2.0916     0.0035 O.2     
  10 O10           -1.1939     2.1276     0.0193 O.3     
  11 N11           -2.4400    -2.8616     0.0089 N.pl3   
  12 O12           -2.4204    -4.0795     0.0021 O.2     
  13 O13           -3.5043    -2.2697     0.0218 O.2     
  14 N14            2.5160    -2.8124    -0.0376 N.pl3   
  15 O15            2.5227    -4.0304    -0.0443 O.2     
  16 O16            3.5674    -2.1975    -0.0447 O.2     
  17 H17            2.7405     0.1883     0.8610 H       
  18 H18            0.0492    -3.8575    -0.0193 H       
  19 H19           -2.1405    -0.2001     0.0321 H       
  20 H20           -1.1564     3.0939     0.0244 H       
@<TRIPOS>BOND
   1    1    2 1
   2    1    9 2
   3    1   10 1
   4    2    3 ar
   5    2    8 ar
   6    3    4 1
   7    3    5 ar
   8    4   17 1
   9    5    6 ar
  10    5   14 1
  11    6    7 ar
  12    6   18 1
  13    7    8 ar
  14    7   11 1
  15    8   19 1
  16   10   20 1
  17   11   12 2
  18   11   13 2
  19   14   15 2
  20   14   16 2

#	End of record

