#	Name: ASD08170118
#	Creating user name:	WinNT
#	Creation time:	15. 06. 2019 21:17

#	Modifying user name:	WinNT
#	Modification time:	15. 06. 2019 21:17

#	Program:	/corina/corina34_cracker 3.40 0067  02.08.2006

@<TRIPOS>MOLECULE
ASD08170118
  77   80    0    0    0
SMALL
NO_CHARGES


@<TRIPOS>ATOM
   1 N1            -0.2107     1.1973    -0.0199 N.2     
   2 N2            -0.2864    -0.0621    -0.0651 N.2     
   3 C3             0.9704     1.7333    -0.0892 C.2     
   4 S4             2.1333     0.4832    -0.2296 S.3     
   5 C5             0.8317    -0.7062    -0.1774 C.2     
   6 C6             0.9919    -2.2029    -0.2494 C.3     
   7 C7             0.9361    -2.6520    -1.7110 C.3     
   8 S8             1.1289    -4.4537    -1.7977 S.3     
   9 C9             1.0375    -4.7886    -3.5781 C.3     
  10 C10            1.1859    -6.2916    -3.8226 C.3     
  11 C11            1.1099    -6.5699    -5.3018 C.2     
  12 N12            2.1084    -6.5968    -6.1263 N.2     
  13 S13           -0.3539    -6.9250    -6.2198 S.3     
  14 C14            0.5935    -7.0609    -7.6406 C.2     
  15 N15            1.8376    -6.8496    -7.3333 N.2     
  16 N16            0.1110    -7.3545    -8.9116 N.am    
  17 C17            0.9620    -7.4339    -9.9536 C.2     
  18 O18            2.1485    -7.2495    -9.7830 O.2     
  19 C19            0.4392    -7.7520   -11.3308 C.3     
  20 N20            1.2454     3.0962    -0.0552 N.am    
  21 C21            2.5193     3.5288    -0.1364 C.2     
  22 O22            3.4317     2.7298    -0.1460 O.2     
  23 C23            2.8100     5.0054    -0.2153 C.3     
  24 C24            1.5855    -7.7817   -12.3087 C.ar    
  25 C25            2.2622    -8.9637   -12.5448 C.ar    
  26 C26            1.9565    -6.6281   -12.9740 C.ar    
  27 C27            3.0079    -6.6553   -13.8710 C.ar    
  28 C28            3.6886    -7.8360   -14.1025 C.ar    
  29 C29            3.3137    -8.9909   -13.4418 C.ar    
  30 C30            4.3000     5.2270    -0.1733 C.ar    
  31 C31            5.0278     5.2561    -1.3482 C.ar    
  32 C32            6.3946     5.4593    -1.3097 C.ar    
  33 C33            7.0335     5.6339    -0.0963 C.ar    
  34 C34            6.3055     5.6058     1.0785 C.ar    
  35 C35            4.9381     5.4069     1.0397 C.ar    
  36 C36            0.1505     4.0615     0.0689 C.3     
  37 O37           -0.0781     4.7018    -1.2141 O.3     
  38 C38           -0.7776     4.0076    -2.1255 C.2     
  39 O39           -1.2652     2.9424    -1.8298 O.2     
  40 C40           -0.9548     4.5570    -3.5176 C.3     
  41 C41           -1.7849     3.5780    -4.3504 C.3     
  42 C42           -1.6758     5.9045    -3.4462 C.3     
  43 C43            0.4163     4.7461    -4.1696 C.3     
  44 H44            1.9521    -2.4867     0.1814 H       
  45 H45            0.1874    -2.6817     0.3088 H       
  46 H46           -0.0241    -2.3682    -2.1419 H       
  47 H47            1.7406    -2.1732    -2.2692 H       
  48 H48            0.0748    -4.4514    -3.9623 H       
  49 H49            1.8394    -4.2563    -4.0897 H       
  50 H50            2.1486    -6.6289    -3.4384 H       
  51 H51            0.3840    -6.8239    -3.3111 H       
  52 H52           -0.8379    -7.5020    -9.0480 H       
  53 H53           -0.0520    -8.7249   -11.3172 H       
  54 H54           -0.2766    -6.9877   -11.6332 H       
  55 H55            2.4093     5.4053    -1.1468 H       
  56 H56            2.3432     5.5132     0.6287 H       
  57 H57            1.9698    -9.8658   -12.0281 H       
  58 H58            1.4246    -5.7057   -12.7931 H       
  59 H59            3.2973    -5.7542   -14.3913 H       
  60 H60            4.5098    -7.8573   -14.8036 H       
  61 H61            3.8455    -9.9133   -13.6226 H       
  62 H62            4.5287     5.1197    -2.2962 H       
  63 H63            6.9634     5.4813    -2.2275 H       
  64 H64            8.1014     5.7920    -0.0662 H       
  65 H65            6.8047     5.7419     2.0265 H       
  66 H66            4.3693     5.3849     1.9575 H       
  67 H67           -0.7560     3.5443     0.3835 H       
  68 H68            0.4138     4.8163     0.8098 H       
  69 H69           -2.7617     3.4432    -3.8858 H       
  70 H70           -1.9130     3.9753    -5.3572 H       
  71 H71           -1.2712     2.6179    -4.4013 H       
  72 H72           -1.0844     6.6020    -2.8529 H       
  73 H73           -1.8040     6.3019    -4.4530 H       
  74 H74           -2.6526     5.7698    -2.9817 H       
  75 H75            0.9300     3.7860    -4.2205 H       
  76 H76            0.2882     5.1434    -5.1765 H       
  77 H77            1.0077     5.4435    -3.5764 H       
@<TRIPOS>BOND
   1    1    2 1
   2    1    3 2
   3    2    5 2
   4    3    4 1
   5    3   20 1
   6    4    5 1
   7    5    6 1
   8    6    7 1
   9    6   44 1
  10    6   45 1
  11    7    8 1
  12    7   46 1
  13    7   47 1
  14    8    9 1
  15    9   10 1
  16    9   48 1
  17    9   49 1
  18   10   11 1
  19   10   50 1
  20   10   51 1
  21   11   12 2
  22   11   13 1
  23   12   15 1
  24   13   14 1
  25   14   15 2
  26   14   16 1
  27   16   17 am
  28   16   52 1
  29   17   18 2
  30   17   19 1
  31   19   24 1
  32   19   53 1
  33   19   54 1
  34   20   21 am
  35   20   36 1
  36   21   22 2
  37   21   23 1
  38   23   30 1
  39   23   55 1
  40   23   56 1
  41   24   25 ar
  42   24   26 ar
  43   25   29 ar
  44   25   57 1
  45   26   27 ar
  46   26   58 1
  47   27   28 ar
  48   27   59 1
  49   28   29 ar
  50   28   60 1
  51   29   61 1
  52   30   31 ar
  53   30   35 ar
  54   31   32 ar
  55   31   62 1
  56   32   33 ar
  57   32   63 1
  58   33   34 ar
  59   33   64 1
  60   34   35 ar
  61   34   65 1
  62   35   66 1
  63   36   37 1
  64   36   67 1
  65   36   68 1
  66   37   38 1
  67   38   39 2
  68   38   40 1
  69   40   41 1
  70   40   42 1
  71   40   43 1
  72   41   69 1
  73   41   70 1
  74   41   71 1
  75   42   72 1
  76   42   73 1
  77   42   74 1
  78   43   75 1
  79   43   76 1
  80   43   77 1

#	End of record

