#	Name: ASD08150431
#	Creating user name:	WinNT
#	Creation time:	15. 06. 2019 21:16

#	Modifying user name:	WinNT
#	Modification time:	15. 06. 2019 21:16

#	Program:	/corina/corina34_cracker 3.40 0067  02.08.2006

@<TRIPOS>MOLECULE
ASD08150431
  45   49    0    0    0
SMALL
NO_CHARGES


@<TRIPOS>ATOM
   1 N1             0.0619     1.3622    -0.0025 N.am    
   2 C2             0.1543     0.1131     0.4935 C.2     
   3 C3             1.3735    -0.5933     0.4526 C.2     
   4 C4             2.4773    -0.0201    -0.0911 C.2     
   5 C5             2.3838     1.2937    -0.6142 C.ar    
   6 C6             3.4985     1.9339    -1.1895 C.ar    
   7 N7             3.4094     3.1457    -1.6713 N.ar    
   8 C8             2.2639     3.8447    -1.6476 C.ar    
   9 C9             1.0923     3.2790    -1.0883 C.ar    
  10 C10            1.1555     1.9697    -0.5576 C.ar    
  11 C11           -0.0961     4.0177    -1.0682 C.ar    
  12 C12           -0.1133     5.2937    -1.5956 C.ar    
  13 C13            1.0460     5.8473    -2.1464 C.ar    
  14 C14            2.2113     5.1445    -2.1756 C.ar    
  15 O15           -0.8297    -0.4133     0.9846 O.2     
  16 N16           -1.2968     6.0359    -1.5789 N.pl3   
  17 C17           -1.1620     2.0411     0.0451 C.ar    
  18 C18           -2.0605     1.9288    -1.0074 C.ar    
  19 C19           -3.2679     2.5998    -0.9584 C.ar    
  20 C20           -3.5810     3.3843     0.1403 C.ar    
  21 C21           -2.6854     3.4974     1.1903 C.ar    
  22 C22           -1.4810     2.8231     1.1478 C.ar    
  23 Cl23          -4.3922     2.4603    -2.2737 Cl      
  24 F24           -4.7613     4.0400     0.1867 F       
  25 C25           -1.2519     7.4205    -1.3773 C.2     
  26 N26           -2.2691     8.2455    -1.4625 N.2     
  27 C27           -0.1117     8.1691    -1.0426 C.2     
  28 C28           -0.4827     9.4652    -0.9367 C.2     
  29 N29           -1.8062     9.5392    -1.1906 N.pl3   
  30 C30           -2.6168    10.7595    -1.1837 C.3     
  31 H31            1.4296    -1.5938     0.8556 H       
  32 H32            3.4135    -0.5575    -0.1242 H       
  33 H33            4.4443     1.4143    -1.2330 H       
  34 H34           -0.9936     3.5926    -0.6437 H       
  35 H35            1.0165     6.8464    -2.5552 H       
  36 H36            3.0974     5.5880    -2.6051 H       
  37 H37           -2.1496     5.5918    -1.7069 H       
  38 H38           -1.8161     1.3180    -1.8639 H       
  39 H39           -2.9309     4.1098     2.0453 H       
  40 H40           -0.7830     2.9118     1.9672 H       
  41 H41            0.8846     7.7788    -0.8959 H       
  42 H42            0.1648    10.2938    -0.6904 H       
  43 H43           -2.6185    11.2001    -2.1807 H       
  44 H44           -3.6384    10.5155    -0.8925 H       
  45 H45           -2.1965    11.4709    -0.4728 H       
@<TRIPOS>BOND
   1    1    2 am
   2    1   10 1
   3    1   17 1
   4    2    3 1
   5    2   15 2
   6    3    4 2
   7    3   31 1
   8    4    5 1
   9    4   32 1
  10    5    6 ar
  11    5   10 ar
  12    6    7 ar
  13    6   33 1
  14    7    8 ar
  15    8    9 ar
  16    8   14 ar
  17    9   10 ar
  18    9   11 ar
  19   11   12 ar
  20   11   34 1
  21   12   13 ar
  22   12   16 1
  23   13   14 ar
  24   13   35 1
  25   14   36 1
  26   16   25 1
  27   16   37 1
  28   17   18 ar
  29   17   22 ar
  30   18   19 ar
  31   18   38 1
  32   19   20 ar
  33   19   23 1
  34   20   21 ar
  35   20   24 1
  36   21   22 ar
  37   21   39 1
  38   22   40 1
  39   25   26 2
  40   25   27 1
  41   26   29 1
  42   27   28 2
  43   27   41 1
  44   28   29 1
  45   28   42 1
  46   29   30 1
  47   30   43 1
  48   30   44 1
  49   30   45 1

#	End of record

