#	Name: ASD02500265
#	Creating user name:	WinNT
#	Creation time:	15. 06. 2019 20:22

#	Modifying user name:	WinNT
#	Modification time:	15. 06. 2019 20:22

#	Program:	/corina/corina34_cracker 3.40 0067  02.08.2006

@<TRIPOS>MOLECULE
ASD02500265
  59   63    0    0    0
SMALL
NO_CHARGES


@<TRIPOS>ATOM
   1 C1            -2.1250     3.7832    -1.0449 C.ar    
   2 C2            -1.2764     4.0824    -2.0664 C.ar    
   3 C3            -1.5416     5.1410    -2.9327 C.ar    
   4 C4            -2.6573     5.9065    -2.7830 C.ar    
   5 C5            -3.5569     5.6276    -1.7404 C.ar    
   6 C6            -4.7189     6.3960    -1.5539 C.ar    
   7 C7            -5.5672     6.0967    -0.5327 C.ar    
   8 C8            -5.3017     5.0379     0.3340 C.ar    
   9 C9            -4.1864     4.2726     0.1845 C.ar    
  10 C10           -3.2869     4.5510    -0.8589 C.ar    
  11 S11           -1.7719     2.4355     0.0338 S.o2    
  12 O12           -2.9590     1.6577     0.1061 O.2     
  13 O13           -0.5202     1.9063    -0.3815 O.2     
  14 N14           -1.5340     3.0672     1.5459 N.am    
  15 C15           -0.4911     3.9591     1.7706 C.ar    
  16 C16           -0.7218     5.1320     2.4842 C.ar    
  17 C17            0.3082     6.0166     2.7082 C.ar    
  18 C18            1.5872     5.7365     2.2183 C.ar    
  19 C19            1.8156     4.5579     1.5021 C.ar    
  20 C20            0.7827     3.6745     1.2863 C.ar    
  21 C21            2.6935     6.6829     2.4563 C.2     
  22 O22            3.8029     6.2656     2.7277 O.2     
  23 N23            2.4746     8.0102     2.3728 N.am    
  24 C24            3.5799     8.9686     2.5243 C.3     
  25 C25            3.5511     9.9366     1.3367 C.3     
  26 N26            2.2157    10.5399     1.2331 N.3     
  27 C27            1.1919     9.5235     0.9558 C.3     
  28 C28            1.1251     8.5384     2.1217 C.3     
  29 C29            2.1954    11.5477     0.2663 C.ar    
  30 C30            1.0214    12.2458     0.0130 C.ar    
  31 C31            1.0049    13.2420    -0.9433 C.ar    
  32 C32            2.1553    13.5448    -1.6484 C.ar    
  33 C33            3.3257    12.8518    -1.3988 C.ar    
  34 C34            3.3505    11.8580    -0.4401 C.ar    
  35 H35           -0.3840     3.4907    -2.2072 H       
  36 H36           -0.8515     5.3577    -3.7347 H       
  37 H37           -2.8497     6.7240    -3.4619 H       
  38 H38           -4.9372     7.2198    -2.2172 H       
  39 H39           -6.4594     6.6887    -0.3916 H       
  40 H40           -5.9913     4.8219     1.1366 H       
  41 H41           -3.9934     3.4559     0.8642 H       
  42 H42           -2.1221     2.8151     2.2749 H       
  43 H43           -1.7102     5.3480     2.8621 H       
  44 H44            0.1286     6.9265     3.2616 H       
  45 H45            2.8025     4.3389     1.1221 H       
  46 H46            0.9596     2.7615     0.7372 H       
  47 H47            3.4572     9.5252     3.4534 H       
  48 H48            4.5294     8.4334     2.5375 H       
  49 H49            4.2935    10.7202     1.4881 H       
  50 H50            3.7770     9.3934     0.4191 H       
  51 H51            0.2233    10.0076     0.8309 H       
  52 H52            1.4507     8.9861     0.0435 H       
  53 H53            0.4523     7.7189     1.8688 H       
  54 H54            0.7618     9.0528     3.0113 H       
  55 H55            0.1226    12.0095     0.5631 H       
  56 H56            0.0925    13.7849    -1.1410 H       
  57 H57            2.1396    14.3241    -2.3960 H       
  58 H58            4.2224    13.0909    -1.9513 H       
  59 H59            4.2660    11.3202    -0.2426 H       
@<TRIPOS>BOND
   1    1    2 ar
   2    1   10 ar
   3    1   11 1
   4    2    3 ar
   5    2   35 1
   6    3    4 ar
   7    3   36 1
   8    4    5 ar
   9    4   37 1
  10    5    6 ar
  11    5   10 ar
  12    6    7 ar
  13    6   38 1
  14    7    8 ar
  15    7   39 1
  16    8    9 ar
  17    8   40 1
  18    9   10 ar
  19    9   41 1
  20   11   12 2
  21   11   13 2
  22   11   14 am
  23   14   15 1
  24   14   42 1
  25   15   16 ar
  26   15   20 ar
  27   16   17 ar
  28   16   43 1
  29   17   18 ar
  30   17   44 1
  31   18   19 ar
  32   18   21 1
  33   19   20 ar
  34   19   45 1
  35   20   46 1
  36   21   22 2
  37   21   23 am
  38   23   24 1
  39   23   28 1
  40   24   25 1
  41   24   47 1
  42   24   48 1
  43   25   26 1
  44   25   49 1
  45   25   50 1
  46   26   27 1
  47   26   29 1
  48   27   28 1
  49   27   51 1
  50   27   52 1
  51   28   53 1
  52   28   54 1
  53   29   30 ar
  54   29   34 ar
  55   30   31 ar
  56   30   55 1
  57   31   32 ar
  58   31   56 1
  59   32   33 ar
  60   32   57 1
  61   33   34 ar
  62   33   58 1
  63   34   59 1

#	End of record

