#	Name: ASD01813721
#	Creating user name:	WinNT
#	Creation time:	15. 06. 2019 19:31

#	Modifying user name:	WinNT
#	Modification time:	15. 06. 2019 19:31

#	Program:	/corina/corina34_cracker 3.40 0067  02.08.2006

@<TRIPOS>MOLECULE
ASD01813721
  55   59    0    0    0
SMALL
NO_CHARGES


@<TRIPOS>ATOM
   1 C1            -0.0178     1.4608     0.0101 C.3     
   2 N2             0.0021    -0.0041     0.0020 N.pl3   
   3 C3             0.0078    -0.7905    -1.0959 C.2     
   4 C4             0.0276    -2.0776    -0.6870 C.2     
   5 C5             0.0344    -2.0831     0.7217 C.2     
   6 N6             0.0245    -0.8320     1.1316 N.2     
   7 C7             0.0545    -3.2858     1.5898 C.ar    
   8 C8             0.0533    -3.1381     2.9750 C.ar    
   9 C9             0.0717    -4.2697     3.7721 C.ar    
  10 C10            0.0908    -5.5132     3.1566 C.ar    
  11 C11            0.1107    -6.7718     3.9852 C.3     
  12 C12           -1.3033    -7.2134     4.2620 C.ar    
  13 C13           -1.9381    -6.8456     5.4292 C.ar    
  14 C14           -3.2503    -7.2726     5.6534 C.ar    
  15 N15           -3.8847    -8.0181     4.7693 N.ar    
  16 C16           -3.3121    -8.4026     3.6193 C.ar    
  17 C17           -3.8660    -9.2147     2.5484 C.2     
  18 C18           -3.0526    -9.4254     1.5319 C.2     
  19 S19           -1.5027    -8.6440     1.7774 S.3     
  20 C20           -1.9988    -7.9999     3.3364 C.ar    
  21 C21           -3.9392    -6.8820     6.9042 C.2     
  22 O22           -3.3640    -6.1957     7.7259 O.2     
  23 N23           -5.2042    -7.2875     7.1317 N.am    
  24 C24           -5.8859    -6.9010     8.3695 C.3     
  25 H25           -5.1664    -6.8704     9.1877 H       
  26 C26           -6.5216    -5.5184     8.1941 C.3     
  27 C27           -7.2973    -5.1573     9.4636 C.3     
  28 O28           -8.2822    -6.1605     9.7200 O.3     
  29 C29           -7.7426    -7.4654     9.9392 C.3     
  30 C30           -6.9833    -7.9205     8.6900 C.3     
  31 H31           -7.6743    -7.9881     7.8497 H       
  32 O32           -6.3921    -9.1996     8.9278 O.3     
  33 C33            0.0908    -5.5865     1.7759 C.ar    
  34 N34            0.0680    -4.4935     1.0405 N.ar    
  35 H35            1.0048     1.8381     0.0023 H       
  36 H36           -0.5450     1.8219    -0.8730 H       
  37 H37           -0.5280     1.8123     0.9069 H       
  38 H38           -0.0021    -0.4500    -2.1208 H       
  39 H39            0.0364    -2.9479    -1.3264 H       
  40 H40            0.0385    -2.1545     3.4208 H       
  41 H41            0.0716    -4.1865     4.8488 H       
  42 H42            0.6366    -7.5565     3.4414 H       
  43 H43            0.6220    -6.5779     4.9281 H       
  44 H44           -1.4285    -6.2360     6.1607 H       
  45 H45           -4.8682    -9.6158     2.5828 H       
  46 H46           -3.3089   -10.0067     0.6585 H       
  47 H47           -5.6633    -7.8353     6.4759 H       
  48 H48           -5.7408    -4.7778     8.0213 H       
  49 H49           -7.2030    -5.5360     7.3435 H       
  50 H50           -6.6086    -5.1002    10.3066 H       
  51 H51           -7.7872    -4.1931     9.3283 H       
  52 H52           -7.0597    -7.4385    10.7883 H       
  53 H53           -8.5533    -8.1639    10.1464 H       
  54 H54           -7.0304    -9.8951     9.1372 H       
  55 H55            0.1056    -6.5528     1.2937 H       
@<TRIPOS>BOND
   1    1    2 1
   2    1   35 1
   3    1   36 1
   4    1   37 1
   5    2    6 1
   6    2    3 1
   7    3    4 2
   8    3   38 1
   9    4    5 1
  10    4   39 1
  11    5    6 2
  12    5    7 1
  13    7   34 ar
  14    7    8 ar
  15    8    9 ar
  16    8   40 1
  17    9   10 ar
  18    9   41 1
  19   10   11 1
  20   10   33 ar
  21   11   12 1
  22   11   42 1
  23   11   43 1
  24   12   20 ar
  25   12   13 ar
  26   13   14 ar
  27   13   44 1
  28   14   15 ar
  29   14   21 1
  30   15   16 ar
  31   16   20 ar
  32   16   17 1
  33   17   18 2
  34   17   45 1
  35   18   19 1
  36   18   46 1
  37   19   20 1
  38   21   22 2
  39   21   23 am
  40   23   24 1
  41   23   47 1
  42   24   25 1
  43   24   30 1
  44   24   26 1
  45   26   27 1
  46   26   48 1
  47   26   49 1
  48   27   28 1
  49   27   50 1
  50   27   51 1
  51   28   29 1
  52   29   30 1
  53   29   52 1
  54   29   53 1
  55   30   31 1
  56   30   32 1
  57   32   54 1
  58   33   34 ar
  59   33   55 1

#	End of record

