#	Name: ASD08151047
#	Creating user name:	WinNT
#	Creation time:	15. 06. 2019 21:17

#	Modifying user name:	WinNT
#	Modification time:	15. 06. 2019 21:17

#	Program:	/corina/corina34_cracker 3.40 0067  02.08.2006

@<TRIPOS>MOLECULE
ASD08151047
  44   46    0    0    0
SMALL
NO_CHARGES


@<TRIPOS>ATOM
   1 C1            -3.1283     0.7220    -2.5100 C.2     
   2 C2            -2.6525     0.1652    -3.8271 C.3     
   3 O3            -3.5104    -0.0281    -1.6370 O.2     
   4 N4            -3.1238     2.0534    -2.3003 N.am    
   5 N5            -3.2074     4.9033    -0.3702 N.3     
   6 C6            -4.0794     4.0426    -1.1987 C.3     
   7 C7            -3.5863     2.5947    -1.0199 C.3     
   8 C8            -2.4102     2.6891    -0.0211 C.3     
   9 C9            -2.6824     4.0283     0.7091 C.3     
  10 N10           -5.3642     4.5054     1.3772 N.ar    
  11 C11           -6.3673     4.2848     2.1918 C.ar    
  12 C12           -7.1075     5.3291     2.7420 C.ar    
  13 C13           -6.7931     6.6224     2.4358 C.ar    
  14 C14           -5.7148     6.8548     1.5610 C.ar    
  15 C15           -5.3342     8.1586     1.2018 C.ar    
  16 C16           -4.2853     8.3504     0.3528 C.ar    
  17 C17           -3.5794     7.2703    -0.1682 C.ar    
  18 C18           -3.9231     5.9770     0.1603 C.ar    
  19 C19           -5.0053     5.7464     1.0374 C.ar    
  20 Cl20          -6.1988     9.5231     1.8377 Cl      
  21 C21           -2.4250     7.5181    -1.1047 C.3     
  22 C22           -2.8922     7.3341    -2.5500 C.3     
  23 N23           -1.9307     8.8891    -0.9206 N.3     
  24 H24           -2.7245    -0.9223    -3.8090 H       
  25 H25           -3.2734     0.5570    -4.6327 H       
  26 H26           -1.6157     0.4580    -3.9921 H       
  27 H27           -2.8144     2.6531    -2.9970 H       
  28 H28           -5.1126     4.1273    -0.8620 H       
  29 H29           -4.0022     4.3345    -2.2460 H       
  30 H30           -4.3816     1.9721    -0.6102 H       
  31 H31           -2.4324     1.8556     0.6809 H       
  32 H32           -1.4574     2.7246    -0.5493 H       
  33 H33           -1.7593     4.4367     1.1206 H       
  34 H34           -3.4280     3.8945     1.4928 H       
  35 H35           -6.6271     3.2669     2.4426 H       
  36 H36           -7.9292     5.1161     3.4098 H       
  37 H37           -7.3563     7.4441     2.8529 H       
  38 H38           -3.9978     9.3553     0.0806 H       
  39 H39           -1.6239     6.8110    -0.8890 H       
  40 H40           -3.7513     7.9779    -2.7388 H       
  41 H41           -2.0828     7.5996    -3.2300 H       
  42 H42           -3.1753     6.2939    -2.7107 H       
  43 H43           -2.6554     9.5639    -1.1147 H       
  44 H44           -1.5568     9.0171     0.0078 H       
@<TRIPOS>BOND
   1    1    2 1
   2    1    3 2
   3    1    4 am
   4    2   24 1
   5    2   25 1
   6    2   26 1
   7    4    7 1
   8    4   27 1
   9    5    6 1
  10    5    9 1
  11    5   18 1
  12    6    7 1
  13    6   28 1
  14    6   29 1
  15    7    8 1
  16    7   30 1
  17    8    9 1
  18    8   31 1
  19    8   32 1
  20    9   33 1
  21    9   34 1
  22   10   11 ar
  23   10   19 ar
  24   11   12 ar
  25   11   35 1
  26   12   13 ar
  27   12   36 1
  28   13   14 ar
  29   13   37 1
  30   14   15 ar
  31   14   19 ar
  32   15   16 ar
  33   15   20 1
  34   16   17 ar
  35   16   38 1
  36   17   18 ar
  37   17   21 1
  38   18   19 ar
  39   21   22 1
  40   21   23 1
  41   21   39 1
  42   22   40 1
  43   22   41 1
  44   22   42 1
  45   23   43 1
  46   23   44 1

#	End of record

