#	Name: ASD01900121
#	Creating user name:	WinNT
#	Creation time:	15. 06. 2019 19:51

#	Modifying user name:	WinNT
#	Modification time:	15. 06. 2019 19:51

#	Program:	/corina/corina34_cracker 3.40 0067  02.08.2006

@<TRIPOS>MOLECULE
ASD01900121
  61   64    0    0    0
SMALL
NO_CHARGES


@<TRIPOS>ATOM
   1 C1             0.0939     1.4857    -1.2703 C.ar    
   2 C2             0.0413     0.1091    -1.2624 C.ar    
   3 C3             1.0354    -0.6305    -0.6344 C.ar    
   4 C4             2.0883     0.0068    -0.0008 C.ar    
   5 C5             2.1503     1.3892     0.0044 C.ar    
   6 C6             1.1544     2.1411    -0.6436 C.ar    
   7 N7             3.1830     2.0650     0.6499 N.pl3   
   8 C8             3.5314     3.4077     0.1794 C.3     
   9 N9             2.3662     4.2098    -0.1856 N.am    
  10 C10            1.2457     3.6106    -0.6429 C.2     
  11 C11            2.4107     5.6039    -0.0595 C.ar    
  12 C12            1.9616     6.2107     1.1061 C.ar    
  13 C13            2.0063     7.5852     1.2299 C.ar    
  14 C14            2.4996     8.3600     0.1902 C.ar    
  15 C15            2.9480     7.7546    -0.9746 C.ar    
  16 C16            2.9093     6.3797    -1.0976 C.ar    
  17 O17            0.3172     4.2812    -1.0524 O.2     
  18 O18            2.5433     9.7135     0.3129 O.3     
  19 C19            4.5195     4.1392     1.0985 C.3     
  20 C20            3.0633    10.4489    -0.7965 C.3     
  21 N21            5.1923     4.5787    -0.1447 N.3     
  22 C22            4.6430     3.4162    -0.8786 C.3     
  23 C23            6.6523     4.4784    -0.0168 C.3     
  24 C24            7.2907     4.6947    -1.3647 C.ar    
  25 C25            7.6450     5.9697    -1.7648 C.ar    
  26 C26            8.2305     6.1687    -3.0008 C.ar    
  27 C27            8.4620     5.0916    -3.8378 C.ar    
  28 C28            8.1072     3.8159    -3.4368 C.ar    
  29 C29            7.5269     3.6175    -2.1981 C.ar    
  30 Cl30           9.1968     5.3408    -5.3907 Cl      
  31 F31            0.9740    -1.9801    -0.6417 F       
  32 C32            3.0334    11.9447    -0.4759 C.3     
  33 O33            3.9230    12.2171     0.6087 O.3     
  34 C34            3.9705    13.5936     0.9898 C.3     
  35 H35           -0.6801     2.0551    -1.7633 H       
  36 H36           -0.7790    -0.3988    -1.7477 H       
  37 H37            2.8578    -0.5724     0.4877 H       
  38 H38            3.6582     1.6577     1.3910 H       
  39 H39            1.5772     5.6076     1.9154 H       
  40 H40            1.6568     8.0573     2.1362 H       
  41 H41            3.3316     8.3584    -1.7837 H       
  42 H42            3.2625     5.9083    -2.0028 H       
  43 H43            4.0705     4.9537     1.6669 H       
  44 H44            5.1240     3.4723     1.7133 H       
  45 H45            4.0905    10.1390    -0.9886 H       
  46 H46            2.4540    10.2543    -1.6791 H       
  47 H47            5.2842     2.5352    -0.8495 H       
  48 H48            4.2925     3.6560    -1.8825 H       
  49 H49            7.0089     5.2370     0.6801 H       
  50 H50            6.9173     3.4891     0.3562 H       
  51 H51            7.4639     6.8104    -1.1115 H       
  52 H52            8.5069     7.1648    -3.3135 H       
  53 H53            8.2876     2.9747    -4.0897 H       
  54 H54            7.2539     2.6211    -1.8832 H       
  55 H55            3.3461    12.5107    -1.3533 H       
  56 H56            2.0208    12.2364    -0.1973 H       
  57 H57            4.3027    14.1938     0.1427 H       
  58 H58            2.9773    13.9195     1.2988 H       
  59 H59            4.6677    13.7174     1.8184 H       
  60 F60           14.1968    19.1938     7.1362 F       
  61 H61           14.1968    20.1538     7.1362 H       
@<TRIPOS>BOND
   1    1    2 ar
   2    1    6 ar
   3    1   35 1
   4    2    3 ar
   5    2   36 1
   6    3    4 ar
   7    3   31 1
   8    4    5 ar
   9    4   37 1
  10    5    7 1
  11    5    6 ar
  12    6   10 1
  13    7    8 1
  14    7   38 1
  15    8    9 1
  16    8   19 1
  17    8   22 1
  18    9   10 am
  19    9   11 1
  20   10   17 2
  21   11   12 ar
  22   11   16 ar
  23   12   13 ar
  24   12   39 1
  25   13   14 ar
  26   13   40 1
  27   14   15 ar
  28   14   18 1
  29   15   16 ar
  30   15   41 1
  31   16   42 1
  32   18   20 1
  33   19   21 1
  34   19   43 1
  35   19   44 1
  36   20   32 1
  37   20   45 1
  38   20   46 1
  39   21   23 1
  40   21   22 1
  41   22   47 1
  42   22   48 1
  43   23   24 1
  44   23   49 1
  45   23   50 1
  46   24   25 ar
  47   24   29 ar
  48   25   26 ar
  49   25   51 1
  50   26   27 ar
  51   26   52 1
  52   27   28 ar
  53   27   30 1
  54   28   29 ar
  55   28   53 1
  56   29   54 1
  57   32   33 1
  58   32   55 1
  59   32   56 1
  60   33   34 1
  61   34   57 1
  62   34   58 1
  63   34   59 1
  64   60   61 1

#	End of record

