#	Name: ASD03331455
#	Creating user name:	WinNT
#	Creation time:	15. 06. 2019 20:39

#	Modifying user name:	WinNT
#	Modification time:	15. 06. 2019 20:39

#	Program:	/corina/corina34_cracker 3.40 0067  02.08.2006

@<TRIPOS>MOLECULE
ASD03331455
  33   35    0    0    0
SMALL
NO_CHARGES


@<TRIPOS>ATOM
   1 C1            -2.1134     1.3637    -0.7749 C.ar    
   2 C2            -2.1063    -0.0177    -0.7878 C.ar    
   3 C3            -1.1983    -0.7151     0.0097 C.ar    
   4 C4            -0.3016    -0.0105     0.8166 C.ar    
   5 C5            -0.3191     1.3719     0.8203 C.ar    
   6 C6            -1.2174     2.0569     0.0235 C.ar    
   7 C7            -1.1856    -2.1940     0.0011 C.2     
   8 N8            -2.2825    -3.0005     0.1039 N.pl3   
   9 C9            -1.8474    -4.2825     0.0797 C.2     
  10 C10           -0.4934    -4.2474    -0.0651 C.2     
  11 N11           -0.1187    -2.9496    -0.1122 N.2     
  12 C12           -3.6807    -2.5695     0.2006 C.3     
  13 C13           -4.4892    -3.6398     0.9390 C.3     
  14 C14           -4.9607    -4.7047    -0.0492 C.3     
  15 O15           -3.8525    -5.3635    -0.6509 O.3     
  16 C16           -2.7188    -5.5040     0.2121 C.3     
  17 C17            0.4004    -5.4133    -0.1595 C.2     
  18 O18           -0.0595    -6.5372    -0.1092 O.2     
  19 O19            1.7288    -5.2343    -0.3016 O.3     
  20 F20            0.5803    -0.6785     1.5919 F       
  21 F21           -2.9920     2.0404    -1.5465 F       
  22 H22           -2.8022    -0.5567    -1.4135 H       
  23 H23            0.3736     1.9179     1.4437 H       
  24 H24           -1.2268     3.1369     0.0298 H       
  25 H25           -3.7347    -1.6294     0.7496 H       
  26 H26           -4.0890    -2.4311    -0.8005 H       
  27 H27           -3.8640    -4.1044     1.7015 H       
  28 H28           -5.3545    -3.1772     1.4135 H       
  29 H29           -5.5707    -5.4381     0.4782 H       
  30 H30           -5.5616    -4.2319    -0.8260 H       
  31 H31           -2.1510    -6.3898    -0.0729 H       
  32 H32           -3.0558    -5.6016     1.2441 H       
  33 H33            2.2753    -6.0300    -0.3593 H       
@<TRIPOS>BOND
   1    1    2 ar
   2    1   21 1
   3    1    6 ar
   4    2    3 ar
   5    2   22 1
   6    3    4 ar
   7    3    7 1
   8    4    5 ar
   9    4   20 1
  10    5    6 ar
  11    5   23 1
  12    6   24 1
  13    7    8 1
  14    7   11 2
  15    8    9 1
  16    8   12 1
  17    9   10 2
  18    9   16 1
  19   10   11 1
  20   10   17 1
  21   12   13 1
  22   12   25 1
  23   12   26 1
  24   13   14 1
  25   13   27 1
  26   13   28 1
  27   14   15 1
  28   14   29 1
  29   14   30 1
  30   15   16 1
  31   16   31 1
  32   16   32 1
  33   17   18 2
  34   17   19 1
  35   19   33 1

#	End of record

