#	Name: ASD04740001
#	Creating user name:	WinNT
#	Creation time:	15. 06. 2019 20:52

#	Modifying user name:	WinNT
#	Modification time:	15. 06. 2019 20:52

#	Program:	/corina/corina34_cracker 3.40 0067  02.08.2006

@<TRIPOS>MOLECULE
ASD04740001
 118  118    0    0    0
SMALL
NO_CHARGES


@<TRIPOS>ATOM
   1 N1             1.1998    -0.5649     1.6681 N.3     
   2 C2             0.3152    -1.2553     0.7200 C.3     
   3 C3             1.0916    -1.6160    -0.5202 C.2     
   4 O4             2.3027    -1.6681    -0.4837 O.2     
   5 C5            -0.2318    -2.5290     1.3677 C.3     
   6 C6            -1.1092    -2.1614     2.5365 C.2     
   7 O7            -1.7014    -3.1243     3.2602 O.3     
   8 O8            -1.2796    -0.9998     2.8221 O.2     
   9 N9             0.4401    -1.8806    -1.6700 N.am    
  10 C10            1.1959    -2.1183    -2.9022 C.3     
  11 C11            1.6543    -3.5534    -2.9414 C.2     
  12 O12            1.3769    -4.3037    -2.0298 O.2     
  13 C13            0.3022    -1.8352    -4.1113 C.3     
  14 C14           -0.0452    -0.3692    -4.1469 C.2     
  15 O15            0.4585     0.3905    -3.3538 O.2     
  16 O16           -0.9143     0.0926    -5.0597 O.3     
  17 N17            2.3725    -4.0030    -3.9895 N.am    
  18 C18            2.8181    -5.3981    -4.0276 C.3     
  19 C19            3.0296    -5.8189    -5.4591 C.2     
  20 O20            2.8280    -5.0311    -6.3589 O.2     
  21 C21            4.1323    -5.5349    -3.2563 C.3     
  22 C22            3.8899    -5.2277    -1.7772 C.3     
  23 C23            5.1844    -5.3625    -1.0174 C.2     
  24 O24            5.2125    -5.1382     0.3057 O.3     
  25 O25            6.1969    -5.6725    -1.5993 O.2     
  26 N26            3.4428    -7.0708    -5.7394 N.am    
  27 C27            3.6485    -7.4799    -7.1310 C.3     
  28 C28            4.6420    -8.6119    -7.1802 C.2     
  29 O29            5.1302    -9.0353    -6.1539 O.2     
  30 C30            2.3181    -7.9425    -7.7285 C.3     
  31 C31            1.3494    -6.7600    -7.7932 C.3     
  32 S32           -0.2279    -7.3086    -8.5016 S.3     
  33 C33           -1.2264    -5.7941    -8.4961 C.3     
  34 N34            4.9880    -9.1539    -8.3647 N.am    
  35 C35            5.9538   -10.2544    -8.4126 C.3     
  36 C36            5.7279   -11.0671    -9.6614 C.2     
  37 O37            4.8469   -10.7575   -10.4353 O.2     
  38 C38            7.3743    -9.6861    -8.4239 C.3     
  39 C39            7.6037    -8.8610    -7.1560 C.3     
  40 O40            8.3164   -10.7596    -8.4706 O.3     
  41 P41            9.3800   -10.9415    -9.6654 P.3     
  42 O42            8.6654   -10.9765   -10.9610 O.2     
  43 O43           10.4140    -9.7074    -9.6560 O.3     
  44 O44           10.1871   -12.3194    -9.4603 O.3     
  45 N45            6.5049   -12.1379    -9.9183 N.am    
  46 C46            6.2853   -12.9280   -11.1323 C.3     
  47 C47            7.2788   -14.0600   -11.1815 C.2     
  48 O48            8.0904   -14.1937   -10.2902 O.2     
  49 N49            7.2654   -14.9239   -12.2159 N.am    
  50 C50            8.2313   -16.0244   -12.2638 C.3     
  51 C51            7.7029   -17.1913   -11.4699 C.2     
  52 O52            6.6256   -17.1116   -10.9185 O.2     
  53 C53            8.4460   -16.4517   -13.7171 C.3     
  54 C54            9.0886   -15.3237   -14.4826 C.ar    
  55 C55           10.4666   -15.2313   -14.5483 C.ar    
  56 C56            8.2992   -14.3863   -15.1227 C.ar    
  57 C57           11.0581   -14.1983   -15.2493 C.ar    
  58 C58            8.8858   -13.3520   -15.8258 C.ar    
  59 C59           10.2682   -13.2534   -15.8881 C.ar    
  60 O60           10.8477   -12.2368   -16.5792 O.3     
  61 N61            8.4275   -18.3236   -11.3728 N.am    
  62 C62            7.9138   -19.4580   -10.6011 C.3     
  63 C63            8.5296   -20.7343   -11.1138 C.2     
  64 O64            7.8247   -21.6108   -11.5534 O.2     
  65 C65            8.2731   -19.2753    -9.1251 C.3     
  66 H66            1.9762    -1.1528     1.9320 H       
  67 H67            1.5231     0.3121     1.2880 H       
  68 H68           -0.5131    -0.5994     0.4522 H       
  69 H69           -0.8162    -3.0866     0.6359 H       
  70 H70            0.5977    -3.1447     1.7156 H       
  71 H71           -2.2549    -2.8396     4.0003 H       
  72 H72           -0.5293    -1.9136    -1.6816 H       
  73 H73            2.0634    -1.4589    -2.9292 H       
  74 H74            0.8311    -2.1055    -5.0253 H       
  75 H75           -0.6121    -2.4234    -4.0331 H       
  76 H76           -1.1058     1.0403    -5.0435 H       
  77 H77            2.5943    -3.4029    -4.7186 H       
  78 H78            2.0603    -6.0341    -3.5701 H       
  79 H79            4.5096    -6.5524    -3.3589 H       
  80 H80            4.8640    -4.8338    -3.6578 H       
  81 H81            3.5126    -4.2102    -1.6745 H       
  82 H82            3.1582    -5.9288    -1.3756 H       
  83 H83            6.0659    -5.2369     0.7497 H       
  84 H84            3.6041    -7.7008    -5.0198 H       
  85 H85            4.0306    -6.6358    -7.7052 H       
  86 H86            2.4863    -8.3299    -8.7334 H       
  87 H87            1.8923    -8.7272    -7.1032 H       
  88 H88            1.1812    -6.3727    -6.7883 H       
  89 H89            1.7752    -5.9753    -8.4185 H       
  90 H90           -1.3301    -5.4309    -7.4737 H       
  91 H91           -0.7361    -5.0335    -9.1039 H       
  92 H92           -2.2128    -6.0078    -8.9076 H       
  93 H93            4.5975    -8.8153    -9.1856 H       
  94 H94            5.8238   -10.8902    -7.5368 H       
  95 H95            7.5043    -9.0503    -9.2996 H       
  96 H96            7.4737    -9.4969    -6.2803 H       
  97 H97            8.6157    -8.4562    -7.1641 H       
  98 H98            6.8851    -8.0422    -7.1204 H       
  99 H99           10.9184    -9.6232    -8.8353 H       
 100 H100          10.8468   -12.4946   -10.1454 H       
 101 H101           7.2095   -12.3855    -9.2993 H       
 102 H102           5.2733   -13.3328   -11.1242 H       
 103 H103           6.4153   -12.2921   -12.0080 H       
 104 H104           6.6163   -14.8169   -12.9287 H       
 105 H105           9.1790   -15.6948   -11.8381 H       
 106 H106           9.0952   -17.3268   -13.7464 H       
 107 H107           7.4851   -16.6967   -14.1695 H       
 108 H108          11.0811   -15.9671   -14.0509 H       
 109 H109           7.2230   -14.4631   -15.0733 H       
 110 H110          12.1345   -14.1261   -15.2998 H       
 111 H111           8.2687   -12.6200   -16.3257 H       
 112 H112          11.0128   -11.4450   -16.0492 H       
 113 H113           9.2890   -18.3874   -11.8138 H       
 114 H114           6.8302   -19.5090   -10.7076 H       
 115 H115           9.6013   -20.8651   -11.0880 H       
 116 H116           7.8277   -18.3521    -8.7543 H       
 117 H117           7.8909   -20.1193    -8.5510 H       
 118 H118           9.3567   -19.2243    -9.0186 H       
@<TRIPOS>BOND
   1    1    2 1
   2    1   66 1
   3    1   67 1
   4    2    5 1
   5    2    3 1
   6    2   68 1
   7    3    9 am
   8    3    4 2
   9    5    6 1
  10    5   69 1
  11    5   70 1
  12    6    7 1
  13    6    8 2
  14    7   71 1
  15    9   10 1
  16    9   72 1
  17   10   11 1
  18   10   13 1
  19   10   73 1
  20   11   12 2
  21   11   17 am
  22   13   14 1
  23   13   74 1
  24   13   75 1
  25   14   16 1
  26   14   15 2
  27   16   76 1
  28   17   18 1
  29   17   77 1
  30   18   19 1
  31   18   21 1
  32   18   78 1
  33   19   26 am
  34   19   20 2
  35   21   22 1
  36   21   79 1
  37   21   80 1
  38   22   23 1
  39   22   81 1
  40   22   82 1
  41   23   25 2
  42   23   24 1
  43   24   83 1
  44   26   27 1
  45   26   84 1
  46   27   30 1
  47   27   28 1
  48   27   85 1
  49   28   34 am
  50   28   29 2
  51   30   31 1
  52   30   86 1
  53   30   87 1
  54   31   32 1
  55   31   88 1
  56   31   89 1
  57   32   33 1
  58   33   90 1
  59   33   91 1
  60   33   92 1
  61   34   35 1
  62   34   93 1
  63   35   36 1
  64   35   38 1
  65   35   94 1
  66   36   37 2
  67   36   45 am
  68   38   39 1
  69   38   40 1
  70   38   95 1
  71   39   96 1
  72   39   97 1
  73   39   98 1
  74   40   41 1
  75   41   42 2
  76   41   43 1
  77   41   44 1
  78   43   99 1
  79   44  100 1
  80   45   46 1
  81   45  101 1
  82   46   47 1
  83   46  102 1
  84   46  103 1
  85   47   48 2
  86   47   49 am
  87   49   50 1
  88   49  104 1
  89   50   51 1
  90   50   53 1
  91   50  105 1
  92   51   52 2
  93   51   61 am
  94   53   54 1
  95   53  106 1
  96   53  107 1
  97   54   55 ar
  98   54   56 ar
  99   55   57 ar
 100   55  108 1
 101   56   58 ar
 102   56  109 1
 103   57   59 ar
 104   57  110 1
 105   58   59 ar
 106   58  111 1
 107   59   60 1
 108   60  112 1
 109   61   62 1
 110   61  113 1
 111   62   63 1
 112   62   65 1
 113   62  114 1
 114   63   64 2
 115   63  115 1
 116   65  116 1
 117   65  117 1
 118   65  118 1

#	End of record

