#	Name: ASD02030171
#	Creating user name:	WinNT
#	Creation time:	15. 06. 2019 20:14

#	Modifying user name:	WinNT
#	Modification time:	15. 06. 2019 20:14

#	Program:	/corina/corina34_cracker 3.40 0067  02.08.2006

@<TRIPOS>MOLECULE
ASD02030171
  57   61    0    0    0
SMALL
NO_CHARGES


@<TRIPOS>ATOM
   1 N1            -0.2208     1.3885    -0.1485 N.am    
   2 C2            -0.0812    -0.0518     0.1085 C.3     
   3 C3            -0.9949    -0.4312     1.2805 C.3     
   4 N4            -2.3350     0.1165     1.0276 N.am    
   5 C5            -2.4746     1.5567     0.7705 C.3     
   6 C6            -1.5616     1.9371    -0.3959 C.3     
   7 C7             0.8608     2.1926    -0.1519 C.2     
   8 C8             2.1856     1.6524     0.2257 C.2     
   9 N9             2.4885     0.3676     0.4685 N.2     
  10 N10            3.3020     2.3393     0.3840 N.2     
  11 N11            4.2317     1.5094     0.7121 N.pl3   
  12 N12            3.7431     0.3196     0.7636 N.2     
  13 O13            0.7479     3.3616    -0.4650 O.2     
  14 C14           -3.4165    -0.6877     1.0309 C.2     
  15 C15           -4.7668    -0.1093     0.8857 C.ar    
  16 O16           -3.2800    -1.8896     1.1536 O.2     
  17 C17           -1.4816     3.4608    -0.5096 C.3     
  18 C18           -2.1168     1.3501    -1.6951 C.3     
  19 C19            5.5676     1.8487     0.9684 C.ar    
  20 C20            6.4814     0.8626     1.3148 C.ar    
  21 C21            7.7973     1.1993     1.5664 C.ar    
  22 C22            8.2054     2.5169     1.4737 C.ar    
  23 C23            7.2970     3.5027     1.1286 C.ar    
  24 C24            5.9804     3.1708     0.8706 C.ar    
  25 Cl25           7.8133     5.1562     1.0138 Cl      
  26 C26           -5.7614    -0.8147     0.2045 C.ar    
  27 C27           -7.0211    -0.2713     0.0697 C.ar    
  28 C28           -7.3064     0.9783     0.6092 C.ar    
  29 C29           -6.3194     1.6848     1.2917 C.ar    
  30 C30           -5.0552     1.1428     1.4340 C.ar    
  31 Cl31          -8.2559    -1.1500    -0.7770 Cl      
  32 O32           -8.5536     1.4986     0.4572 O.3     
  33 C33           -8.9124     2.5766     1.3280 C.3     
  34 C34           -7.7526     3.5813     1.3530 C.3     
  35 O35           -6.5850     2.9057     1.8325 O.3     
  36 H36           -0.3737    -0.6119    -0.7796 H       
  37 H37            0.9539    -0.2793     0.3631 H       
  38 H38           -1.0528    -1.5166     1.3626 H       
  39 H39           -0.5970    -0.0126     2.2049 H       
  40 H40           -3.5097     1.7842     0.5159 H       
  41 H41           -2.1821     2.1169     1.6587 H       
  42 H42           -0.9739     3.8644     0.3665 H       
  43 H43           -0.9254     3.7294    -1.4077 H       
  44 H44           -2.4884     3.8741    -0.5686 H       
  45 H45           -3.1167     1.7453    -1.8742 H       
  46 H46           -1.4645     1.6226    -2.5248 H       
  47 H47           -2.1647     0.2644    -1.6120 H       
  48 H48            6.1636    -0.1670     1.3878 H       
  49 H49            8.5082     0.4323     1.8362 H       
  50 H50            9.2346     2.7775     1.6712 H       
  51 H51            5.2717     3.9399     0.6013 H       
  52 H52           -5.5435    -1.7851    -0.2165 H       
  53 H53           -4.2887     1.6909     1.9618 H       
  54 H54           -9.8135     3.0647     0.9566 H       
  55 H55           -9.0889     2.1940     2.3333 H       
  56 H56           -7.5716     3.9589     0.3467 H       
  57 H57           -7.9976     4.4091     2.0184 H       
@<TRIPOS>BOND
   1    1    2 1
   2    1    7 am
   3    1    6 1
   4    2    3 1
   5    2   36 1
   6    2   37 1
   7    3    4 1
   8    3   38 1
   9    3   39 1
  10    4    5 1
  11    4   14 am
  12    5    6 1
  13    5   40 1
  14    5   41 1
  15    6   17 1
  16    6   18 1
  17    7    8 1
  18    7   13 2
  19    8    9 1
  20    8   10 2
  21    9   12 2
  22   10   11 1
  23   11   12 1
  24   11   19 1
  25   14   15 1
  26   14   16 2
  27   15   26 ar
  28   15   30 ar
  29   17   42 1
  30   17   43 1
  31   17   44 1
  32   18   45 1
  33   18   46 1
  34   18   47 1
  35   19   20 ar
  36   19   24 ar
  37   20   21 ar
  38   20   48 1
  39   21   22 ar
  40   21   49 1
  41   22   23 ar
  42   22   50 1
  43   23   24 ar
  44   23   25 1
  45   24   51 1
  46   26   27 ar
  47   26   52 1
  48   27   28 ar
  49   27   31 1
  50   28   29 ar
  51   28   32 1
  52   29   30 ar
  53   29   35 1
  54   30   53 1
  55   32   33 1
  56   33   34 1
  57   33   54 1
  58   33   55 1
  59   34   35 1
  60   34   56 1
  61   34   57 1

#	End of record

