#	Name: ASD01812823
#	Creating user name:	WinNT
#	Creation time:	15. 06. 2019 19:29

#	Modifying user name:	WinNT
#	Modification time:	15. 06. 2019 19:29

#	Program:	/corina/corina34_cracker 3.40 0067  02.08.2006

@<TRIPOS>MOLECULE
ASD01812823
  58   62    0    0    0
SMALL
NO_CHARGES


@<TRIPOS>ATOM
   1 N1            -0.0158     1.3147     0.0093 N.ar    
   2 C2             0.0021    -0.0041     0.0020 C.ar    
   3 C3             1.1989    -0.7033    -0.0127 C.ar    
   4 C4             2.3829    -0.0013    -0.0202 C.ar    
   5 C5             2.3448     1.3978    -0.0128 C.ar    
   6 C6             1.0955     2.0332     0.0025 C.ar    
   7 C7             3.8373    -0.3889    -0.0363 C.3     
   8 N8             4.5955     0.8684    -0.0373 N.am    
   9 C9             3.7280     1.8961    -0.0237 C.2     
  10 C10            6.0558     0.9844    -0.0504 C.3     
  11 C11            6.5432     1.0311    -1.4757 C.ar    
  12 C12            6.4763     2.2162    -2.1897 C.ar    
  13 C13            6.9225     2.2630    -3.4977 C.ar    
  14 C14            7.4392     1.1163    -4.0952 C.ar    
  15 C15            7.5038    -0.0725    -3.3715 C.ar    
  16 C16            7.0611    -0.1080    -2.0647 C.ar    
  17 O17            1.0255     3.3856     0.0100 O.3     
  18 O18            4.0429     3.0706    -0.0212 O.2     
  19 C19            7.9195     1.1602    -5.4995 C.2     
  20 C20            7.2405     1.6682    -6.5683 C.2     
  21 C21            9.1614     0.6905    -5.9695 C.2     
  22 N22            9.2151     0.9041    -7.2575 N.2     
  23 N23            8.0236     1.5220    -7.6560 N.pl3   
  24 C24            7.6838     1.9329    -9.0205 C.3     
  25 C25           -0.2795     3.9677     0.0251 C.3     
  26 F26            5.9741     3.3272    -1.6079 F       
  27 C27           10.2406     0.0535    -5.1325 C.3     
  28 C28           -0.1576     5.4928     0.0317 C.3     
  29 F29           -1.4352     6.0627     0.0465 F       
  30 F30            0.5476     5.8994     1.1695 F       
  31 C31            0.5790     5.9432    -1.2034 C.ar    
  32 N32            0.9989     5.0470    -2.0751 N.ar    
  33 C33            1.6469     5.3946    -3.1695 C.ar    
  34 C34            1.9107     6.7237    -3.4430 C.ar    
  35 C35            1.4847     7.6945    -2.5498 C.ar    
  36 C36            0.8017     7.2909    -1.4124 C.ar    
  37 H37           -0.9309    -0.5480     0.0080 H       
  38 H38            1.2023    -1.7833    -0.0178 H       
  39 H39            4.0797    -0.9721     0.8522 H       
  40 H40            4.0624    -0.9631    -0.9351 H       
  41 H41            6.3524     1.8979     0.4651 H       
  42 H42            6.4932     0.1235     0.4552 H       
  43 H43            6.8701     3.1868    -4.0546 H       
  44 H44            7.9035    -0.9643    -3.8312 H       
  45 H45            7.1155    -1.0283    -1.5021 H       
  46 H46            6.2541     2.1076    -6.5469 H       
  47 H47            8.0147     2.9585    -9.1842 H       
  48 H48            8.1794     1.2732    -9.7327 H       
  49 H49            6.6044     1.8728    -9.1599 H       
  50 H50           -0.8289     3.6509    -0.8614 H       
  51 H51           -0.8123     3.6419     0.9185 H       
  52 H52           10.0866    -1.0251    -5.1007 H       
  53 H53           11.2150     0.2686    -5.5710 H       
  54 H54           10.2007     0.4562    -4.1204 H       
  55 H55            1.9757     4.6322    -3.8601 H       
  56 H56            2.4422     7.0022    -4.3409 H       
  57 H57            1.6769     8.7406    -2.7372 H       
  58 H58            0.4518     8.0203    -0.6970 H       
@<TRIPOS>BOND
   1    1    2 ar
   2    1    6 ar
   3    2    3 ar
   4    2   37 1
   5    3    4 ar
   6    3   38 1
   7    4    7 1
   8    4    5 ar
   9    5    6 ar
  10    5    9 1
  11    6   17 1
  12    7    8 1
  13    7   39 1
  14    7   40 1
  15    8    9 am
  16    8   10 1
  17    9   18 2
  18   10   11 1
  19   10   41 1
  20   10   42 1
  21   11   12 ar
  22   11   16 ar
  23   12   13 ar
  24   12   26 1
  25   13   14 ar
  26   13   43 1
  27   14   15 ar
  28   14   19 1
  29   15   16 ar
  30   15   44 1
  31   16   45 1
  32   17   25 1
  33   19   21 1
  34   19   20 2
  35   20   23 1
  36   20   46 1
  37   21   22 2
  38   21   27 1
  39   22   23 1
  40   23   24 1
  41   24   47 1
  42   24   48 1
  43   24   49 1
  44   25   28 1
  45   25   50 1
  46   25   51 1
  47   27   52 1
  48   27   53 1
  49   27   54 1
  50   28   29 1
  51   28   30 1
  52   28   31 1
  53   31   32 ar
  54   31   36 ar
  55   32   33 ar
  56   33   34 ar
  57   33   55 1
  58   34   35 ar
  59   34   56 1
  60   35   36 ar
  61   35   57 1
  62   36   58 1

#	End of record

