#	Name: ASD01200143
#	Creating user name:	WinNT
#	Creation time:	15. 06. 2019 19:08

#	Modifying user name:	WinNT
#	Modification time:	15. 06. 2019 19:08

#	Program:	/corina/corina34_cracker 3.40 0067  02.08.2006

@<TRIPOS>MOLECULE
ASD01200143
  58   62    0    0    0
SMALL
NO_CHARGES


@<TRIPOS>ATOM
   1 C1            -0.1135     1.3021     0.0641 C.ar    
   2 C2            -0.0729    -0.0743    -0.0685 C.ar    
   3 C3             1.1442    -0.7307    -0.1487 C.ar    
   4 C4             2.3163    -0.0130    -0.0965 C.ar    
   5 C5             2.2868     1.3774     0.0373 C.ar    
   6 C6             1.0565     2.0316     0.1176 C.ar    
   7 C7             3.7715    -0.4051    -0.1548 C.3     
   8 N8             4.5375     0.8416    -0.0460 N.am    
   9 C9             3.6777     1.8690     0.0648 C.2     
  10 O10            4.0000     3.0360     0.1725 O.2     
  11 S11            4.1758    -1.5077     1.2278 S.3     
  12 C12            5.9985     0.9491    -0.0564 C.3     
  13 C13            6.4794     1.1216    -1.4741 C.ar    
  14 C14            3.6058    -3.1261     0.6392 C.3     
  15 C15            3.8761    -4.1680     1.6940 C.2     
  16 O16            4.4014    -3.8500     2.7398 O.2     
  17 N17            3.5339    -5.4531     1.4751 N.am    
  18 C18            3.8812    -6.4345     2.4023 C.ar    
  19 N19            4.6307    -6.1152     3.4453 N.ar    
  20 C20            4.9816    -7.0130     4.3461 C.ar    
  21 C21            4.5757    -8.3277     4.2309 C.ar    
  22 C22            3.7882    -8.7037     3.1511 C.ar    
  23 C23            3.4322    -7.7385     2.2259 C.ar    
  24 C24            6.6129     2.3903    -2.0078 C.ar    
  25 C25            7.0534     2.5518    -3.3068 C.ar    
  26 C26            7.3628     1.4384    -4.0770 C.ar    
  27 C27            7.2281     0.1657    -3.5379 C.ar    
  28 C28            6.7917     0.0112    -2.2367 C.ar    
  29 N29            7.8089     1.5986    -5.3935 N.am    
  30 C30            7.8705     2.8856    -6.0962 C.3     
  31 C31            7.9902     2.5315    -7.5951 C.3     
  32 C32            8.6321     1.1259    -7.5367 C.3     
  33 C33            8.2416     0.5943    -6.1752 C.2     
  34 O34            8.3030    -0.5698    -5.8402 O.2     
  35 H35           -1.0657     1.8086     0.1216 H       
  36 H36           -0.9928    -0.6387    -0.1093 H       
  37 H37            1.1728    -1.8054    -0.2519 H       
  38 H38            1.0204     3.1061     0.2208 H       
  39 H39            3.9892    -0.8970    -1.1028 H       
  40 H40            6.3037     1.8102     0.5381 H       
  41 H41            6.4325     0.0432     0.3668 H       
  42 H42            2.5356    -3.0829     0.4370 H       
  43 H43            4.1381    -3.3883    -0.2752 H       
  44 H44            3.0460    -5.6951     0.6725 H       
  45 H45            5.5946    -6.7159     5.1842 H       
  46 H46            4.8680    -9.0560     4.9729 H       
  47 H47            3.4576    -9.7256     3.0380 H       
  48 H48            2.8202    -7.9961     1.3741 H       
  49 H49            6.3721     3.2558    -1.4084 H       
  50 H50            7.1568     3.5429    -3.7233 H       
  51 H51            7.4680    -0.7021    -4.1343 H       
  52 H52            6.6871    -0.9783    -1.8167 H       
  53 H53            6.9607     3.4580    -5.9154 H       
  54 H54            8.7437     3.4513    -5.7714 H       
  55 H55            7.0081     2.4926    -8.0664 H       
  56 H56            8.6414     3.2366    -8.1117 H       
  57 H57            8.2316     0.4905    -8.3266 H       
  58 H58            9.7167     1.1982    -7.6170 H       
@<TRIPOS>BOND
   1    1    2 ar
   2    1    6 ar
   3    1   35 1
   4    2    3 ar
   5    2   36 1
   6    3    4 ar
   7    3   37 1
   8    4    5 ar
   9    4    7 1
  10    5    6 ar
  11    5    9 1
  12    6   38 1
  13    7    8 1
  14    7   11 1
  15    7   39 1
  16    8    9 am
  17    8   12 1
  18    9   10 2
  19   11   14 1
  20   12   13 1
  21   12   40 1
  22   12   41 1
  23   13   24 ar
  24   13   28 ar
  25   14   15 1
  26   14   42 1
  27   14   43 1
  28   15   16 2
  29   15   17 am
  30   17   18 1
  31   17   44 1
  32   18   19 ar
  33   18   23 ar
  34   19   20 ar
  35   20   21 ar
  36   20   45 1
  37   21   22 ar
  38   21   46 1
  39   22   23 ar
  40   22   47 1
  41   23   48 1
  42   24   25 ar
  43   24   49 1
  44   25   26 ar
  45   25   50 1
  46   26   27 ar
  47   26   29 1
  48   27   28 ar
  49   27   51 1
  50   28   52 1
  51   29   30 1
  52   29   33 am
  53   30   31 1
  54   30   53 1
  55   30   54 1
  56   31   32 1
  57   31   55 1
  58   31   56 1
  59   32   33 1
  60   32   57 1
  61   32   58 1
  62   33   34 2

#	End of record

