#	Name: ASD01884497
#	Creating user name:	WinNT
#	Creation time:	15. 06. 2019 19:48

#	Modifying user name:	WinNT
#	Modification time:	15. 06. 2019 19:48

#	Program:	/corina/corina34_cracker 3.40 0067  02.08.2006

@<TRIPOS>MOLECULE
ASD01884497
  40   43    0    0    0
SMALL
NO_CHARGES


@<TRIPOS>ATOM
   1 C1            -0.0164     1.3576     0.0095 C.2     
   2 C2             0.0021    -0.0041     0.0020 C.2     
   3 C3             1.2440    -0.6751    -0.0134 C.2     
   4 C4             2.4024     0.0465    -0.0206 C.2     
   5 N5             2.3700     1.4024    -0.0126 N.am    
   6 C6             1.1986     2.0652     0.0017 C.2     
   7 C7             3.6266     2.1554    -0.0196 C.3     
   8 O8             1.1911     3.2857     0.0083 O.2     
   9 C9             4.0447     2.4218    -1.4427 C.ar    
  10 C10            3.6210     3.5709    -2.0838 C.ar    
  11 C11            4.0041     3.8158    -3.3890 C.ar    
  12 C12            4.8119     2.9105    -4.0539 C.ar    
  13 C13            5.2357     1.7606    -3.4118 C.ar    
  14 C14            4.8565     1.5196    -2.1047 C.ar    
  15 Cl15           5.2931     3.2170    -5.6935 Cl      
  16 C16            1.2897    -2.1584    -0.0214 C.ar    
  17 C17            0.8131    -2.8815     1.0714 C.ar    
  18 C18            1.8040    -2.8390    -1.1236 C.ar    
  19 C19            1.8423    -4.2154    -1.1323 C.ar    
  20 C20            1.3675    -4.9412    -0.0410 C.ar    
  21 C21            0.8587    -4.2561     1.0560 C.ar    
  22 O22            1.2975    -6.2885     0.1449 O.3     
  23 C23            1.1600    -6.5659     1.5488 C.3     
  24 C24            0.4483    -5.2977     2.0792 C.3     
  25 H25           -0.9563     1.8895     0.0169 H       
  26 H26           -0.9217    -0.5635     0.0082 H       
  27 H27            3.3528    -0.4664    -0.0325 H       
  28 H28            3.4854     3.1026     0.5010 H       
  29 H29            4.4003     1.5759     0.4840 H       
  30 H30            2.9901     4.2773    -1.5647 H       
  31 H31            3.6727     4.7134    -3.8898 H       
  32 H32            5.8662     1.0536    -3.9303 H       
  33 H33            5.1872     0.6221    -1.6033 H       
  34 H34            0.4093    -2.3632     1.9286 H       
  35 H35            2.1734    -2.2849    -1.9739 H       
  36 H36            2.2423    -4.7358    -1.9900 H       
  37 H37            0.5421    -7.4493     1.7092 H       
  38 H38            2.1373    -6.6869     2.0160 H       
  39 H39            0.8126    -5.0330     3.0719 H       
  40 H40           -0.6334    -5.4322     2.0859 H       
@<TRIPOS>BOND
   1    1    2 2
   2    1    6 1
   3    1   25 1
   4    2    3 1
   5    2   26 1
   6    3    4 2
   7    3   16 1
   8    4    5 1
   9    4   27 1
  10    5    6 am
  11    5    7 1
  12    6    8 2
  13    7    9 1
  14    7   28 1
  15    7   29 1
  16    9   10 ar
  17    9   14 ar
  18   10   11 ar
  19   10   30 1
  20   11   12 ar
  21   11   31 1
  22   12   13 ar
  23   12   15 1
  24   13   14 ar
  25   13   32 1
  26   14   33 1
  27   16   17 ar
  28   16   18 ar
  29   17   21 ar
  30   17   34 1
  31   18   19 ar
  32   18   35 1
  33   19   20 ar
  34   19   36 1
  35   20   21 ar
  36   20   22 1
  37   21   24 1
  38   22   23 1
  39   23   24 1
  40   23   37 1
  41   23   38 1
  42   24   39 1
  43   24   40 1

#	End of record

