#	Name: ASD01883820
#	Creating user name:	WinNT
#	Creation time:	15. 06. 2019 19:47

#	Modifying user name:	WinNT
#	Modification time:	15. 06. 2019 19:47

#	Program:	/corina/corina34_cracker 3.40 0067  02.08.2006

@<TRIPOS>MOLECULE
ASD01883820
  62   66    0    0    0
SMALL
NO_CHARGES


@<TRIPOS>ATOM
   1 C1            -0.7690     2.4309     0.3024 C.ar    
   2 C2            -0.7797     1.0899    -0.0790 C.ar    
   3 C3             0.3913     0.4843    -0.4999 C.ar    
   4 C4             1.5682     1.2178    -0.5389 C.ar    
   5 C5             1.5883     2.5716    -0.1558 C.ar    
   6 C6             0.3786     3.1599     0.2683 C.ar    
   7 O7            -1.9361     0.3797    -0.0371 O.3     
   8 C8            -3.1055     1.0699     0.4081 C.3     
   9 C9            -4.2823     0.1288     0.3882 C.ar    
  10 C10           -4.5815    -0.6237     1.5057 C.ar    
  11 C11           -5.6703    -1.4932     1.4860 C.ar    
  12 C12           -6.4511    -1.5977     0.3370 C.ar    
  13 C13           -6.1428    -0.8403    -0.7751 C.ar    
  14 C14           -5.0642     0.0249    -0.7483 C.ar    
  15 C15           -5.9966    -2.3052     2.6845 C.ar    
  16 C16           -7.0833    -3.1721     2.6629 C.ar    
  17 C17           -7.3844    -3.9322     3.7924 C.ar    
  18 C18           -6.5923    -3.8177     4.9381 C.ar    
  19 C19           -5.5137    -2.9532     4.9507 C.ar    
  20 C20           -5.2098    -2.2037     3.8320 C.ar    
  21 Cl21          -6.9637    -4.7615     6.3470 Cl      
  22 S22            3.2214     0.8116    -1.0047 S.3     
  23 N23            3.8863     2.3399    -0.7081 N.am    
  24 C24            2.9202     3.1481    -0.2726 C.2     
  25 O25            3.1407     4.3125     0.0135 O.2     
  26 C26            5.2905     2.7120    -0.8978 C.3     
  27 C27            5.3992     3.8549    -1.9223 C.3     
  28 C28            6.0494     5.0452    -1.1873 C.3     
  29 C29            6.8254     4.3911    -0.0173 C.3     
  30 C30            5.8785     3.2476     0.4240 C.3     
  31 C31           -8.5380    -4.8558     3.7782 C.2     
  32 N32           -9.7196    -4.4504     3.2722 N.am    
  33 C33          -10.8284    -5.4000     3.1498 C.3     
  34 O34           -8.4212    -5.9811     4.2228 O.2     
  35 C35           -9.8951    -3.0602     2.8447 C.3     
  36 H36           -1.6870     2.8991     0.6257 H       
  37 H37            0.3890    -0.5543    -0.7961 H       
  38 H38            0.3635     4.1972     0.5683 H       
  39 H39           -2.9482     1.4335     1.4235 H       
  40 H40           -3.3035     1.9133    -0.2533 H       
  41 H41           -3.9727    -0.5391     2.3937 H       
  42 H42           -7.2959    -2.2703     0.3163 H       
  43 H43           -6.7475    -0.9205    -1.6664 H       
  44 H44           -4.8265     0.6156    -1.6207 H       
  45 H45           -7.6920    -3.2562     1.7748 H       
  46 H46           -4.9039    -2.8668     5.8379 H       
  47 H47           -4.3655    -1.5303     3.8480 H       
  48 H48            5.8623     1.8490    -1.2391 H       
  49 H49            6.0244     3.5470    -2.7604 H       
  50 H50            4.4071     4.1328    -2.2783 H       
  51 H51            6.7336     5.5751    -1.8500 H       
  52 H52            5.2847     5.7223    -0.8066 H       
  53 H53            7.7792     3.9915    -0.3619 H       
  54 H54            6.9745     5.1039     0.7938 H       
  55 H55            5.0862     3.6343     1.0649 H       
  56 H56            6.4381     2.4656     0.9372 H       
  57 H57          -11.0837    -5.7896     4.1353 H       
  58 H58          -11.6947    -4.8940     2.7235 H       
  59 H59          -10.5319    -6.2229     2.4994 H       
  60 H60           -9.5630    -2.9530     1.8121 H       
  61 H61          -10.9480    -2.7878     2.9178 H       
  62 H62           -9.3050    -2.4056     3.4861 H       
@<TRIPOS>BOND
   1    1    2 ar
   2    1    6 ar
   3    1   36 1
   4    2    3 ar
   5    2    7 1
   6    3    4 ar
   7    3   37 1
   8    4    5 ar
   9    4   22 1
  10    5    6 ar
  11    5   24 1
  12    6   38 1
  13    7    8 1
  14    8    9 1
  15    8   39 1
  16    8   40 1
  17    9   10 ar
  18    9   14 ar
  19   10   11 ar
  20   10   41 1
  21   11   12 ar
  22   11   15 1
  23   12   13 ar
  24   12   42 1
  25   13   14 ar
  26   13   43 1
  27   14   44 1
  28   15   16 ar
  29   15   20 ar
  30   16   17 ar
  31   16   45 1
  32   17   18 ar
  33   17   31 1
  34   18   19 ar
  35   18   21 1
  36   19   20 ar
  37   19   46 1
  38   20   47 1
  39   22   23 1
  40   23   24 am
  41   23   26 1
  42   24   25 2
  43   26   27 1
  44   26   30 1
  45   26   48 1
  46   27   28 1
  47   27   49 1
  48   27   50 1
  49   28   29 1
  50   28   51 1
  51   28   52 1
  52   29   30 1
  53   29   53 1
  54   29   54 1
  55   30   55 1
  56   30   56 1
  57   31   32 am
  58   31   34 2
  59   32   33 1
  60   32   35 1
  61   33   57 1
  62   33   58 1
  63   33   59 1
  64   35   60 1
  65   35   61 1
  66   35   62 1

#	End of record

