#	Name: ASD04880470
#	Creating user name:	WinNT
#	Creation time:	15. 06. 2019 20:53

#	Modifying user name:	WinNT
#	Modification time:	15. 06. 2019 20:53

#	Program:	/corina/corina34_cracker 3.40 0067  02.08.2006

@<TRIPOS>MOLECULE
ASD04880470
  48   50    0    0    0
SMALL
NO_CHARGES


@<TRIPOS>ATOM
   1 C1            -0.0168     1.3889     0.0097 C.ar    
   2 C2             0.0021    -0.0041     0.0020 C.ar    
   3 C3            -1.1854    -0.7116     0.0091 C.ar    
   4 C4            -2.4030    -0.0263     0.0244 C.ar    
   5 C5            -2.4142     1.3708     0.0325 C.ar    
   6 C6            -1.2255     2.0697     0.0306 C.ar    
   7 O7             1.1520     2.0829     0.0022 O.3     
   8 C8             1.0600     3.5089     0.0108 C.3     
   9 C9            -3.6726    -0.7756     0.0315 C.2     
  10 C10           -5.0515    -0.1555     0.0479 C.3     
  11 C11           -6.0038    -1.3678     0.0493 C.3     
  12 N12           -5.0922    -2.5228     0.0340 N.am    
  13 N13           -3.7782    -2.0595     0.0192 N.2     
  14 C14           -5.4671    -3.8174     0.0300 C.2     
  15 O15           -6.6449    -4.1079     0.0395 O.2     
  16 C16           -4.4231    -4.9041     0.0138 C.3     
  17 O17           -5.0599    -6.1781     0.1299 O.3     
  18 C18           -3.6543    -4.8429    -1.2808 C.ar    
  19 C19           -5.2246    -6.6251     1.4772 C.3     
  20 C20           -2.4112    -4.2394    -1.3186 C.ar    
  21 C21           -1.7060    -4.1832    -2.5062 C.ar    
  22 C22           -2.2436    -4.7309    -3.6559 C.ar    
  23 C23           -3.4864    -5.3351    -3.6180 C.ar    
  24 C24           -4.1897    -5.3952    -2.4294 C.ar    
  25 O25            1.1889    -0.6679    -0.0129 O.3     
  26 C26            1.1336    -2.0958    -0.0200 C.3     
  27 H27           -1.1721    -1.7915     0.0025 H       
  28 H28           -3.3538     1.9033     0.0439 H       
  29 H29           -1.2355     3.1496     0.0373 H       
  30 H30            0.5323     3.8335     0.9076 H       
  31 H31            2.0621     3.9377     0.0035 H       
  32 H32            0.5153     3.8431    -0.8723 H       
  33 H33           -5.1915     0.4417     0.9489 H       
  34 H34           -5.2079     0.4525    -0.8431 H       
  35 H35           -6.6156    -1.3739     0.9514 H       
  36 H36           -6.6320    -1.3631    -0.8414 H       
  37 H37           -3.7384    -4.7627     0.8501 H       
  38 H38           -5.8363    -5.9086     2.0254 H       
  39 H39           -5.7150    -7.5985     1.4797 H       
  40 H40           -4.2481    -6.7090     1.9540 H       
  41 H41           -1.9911    -3.8116    -0.4203 H       
  42 H42           -0.7351    -3.7111    -2.5359 H       
  43 H43           -1.6930    -4.6863    -4.5839 H       
  44 H44           -3.9066    -5.7627    -4.5163 H       
  45 H45           -5.1606    -5.8673    -2.3998 H       
  46 H46            2.1464    -2.4986    -0.0319 H       
  47 H47            0.6146    -2.4437     0.8731 H       
  48 H48            0.5976    -2.4342    -0.9068 H       
@<TRIPOS>BOND
   1    1    2 ar
   2    1    7 1
   3    1    6 ar
   4    2    3 ar
   5    2   25 1
   6    3    4 ar
   7    3   27 1
   8    4    5 ar
   9    4    9 1
  10    5    6 ar
  11    5   28 1
  12    6   29 1
  13    7    8 1
  14    8   30 1
  15    8   31 1
  16    8   32 1
  17    9   10 1
  18    9   13 2
  19   10   11 1
  20   10   33 1
  21   10   34 1
  22   11   12 1
  23   11   35 1
  24   11   36 1
  25   12   13 1
  26   12   14 am
  27   14   15 2
  28   14   16 1
  29   16   17 1
  30   16   18 1
  31   16   37 1
  32   17   19 1
  33   18   20 ar
  34   18   24 ar
  35   19   38 1
  36   19   39 1
  37   19   40 1
  38   20   21 ar
  39   20   41 1
  40   21   22 ar
  41   21   42 1
  42   22   23 ar
  43   22   43 1
  44   23   24 ar
  45   23   44 1
  46   24   45 1
  47   25   26 1
  48   26   46 1
  49   26   47 1
  50   26   48 1

#	End of record

