#	Name: ASD09900013
#	Creating user name:	WinNT
#	Creation time:	15. 06. 2019 21:24

#	Modifying user name:	WinNT
#	Modification time:	15. 06. 2019 21:24

#	Program:	/corina/corina34_cracker 3.40 0067  02.08.2006

@<TRIPOS>MOLECULE
ASD09900013
  34   35    0    0    0
SMALL
NO_CHARGES


@<TRIPOS>ATOM
   1 C1            -0.6007     1.7450    -0.5988 C.ar    
   2 C2            -0.7174     0.3924    -0.4462 C.ar    
   3 C3             0.3988    -0.3849    -0.1690 C.ar    
   4 C4             1.6441     0.1920    -0.0430 C.ar    
   5 C5             0.6525     2.3519    -0.4754 C.ar    
   6 C6             1.1223     3.7322    -0.5750 C.2     
   7 C7             1.7877     1.5670    -0.1946 C.ar    
   8 N8             2.8705     2.4156    -0.1295 N.pl3   
   9 C9             2.4621     3.7106    -0.3582 C.2     
  10 C10            3.3452     4.8927    -0.3675 C.2     
  11 C11            2.8358     6.1055    -0.6032 C.2     
  12 N12            4.7133     4.7441    -0.1300 N.pl3   
  13 C13            5.5971     5.9113    -0.1837 C.3     
  14 C14            5.1936     6.9071     0.9056 C.3     
  15 C15            7.0435     5.4666     0.0423 C.3     
  16 C16            5.4772     6.5791    -1.5550 C.3     
  17 H17           -1.4730     2.3428    -0.8184 H       
  18 H18           -1.6859    -0.0759    -0.5417 H       
  19 H19            0.2901    -1.4528    -0.0504 H       
  20 H20            2.5059    -0.4220     0.1732 H       
  21 H21            0.5185     4.6034    -0.7818 H       
  22 H22            3.7835     2.1422     0.0511 H       
  23 H23            3.4615     6.9810    -0.5121 H       
  24 H24            1.7984     6.2100    -0.8848 H       
  25 H25            5.0784     3.8681     0.0705 H       
  26 H26            5.4546     6.5017     1.8832 H       
  27 H27            5.7202     7.8487     0.7502 H       
  28 H28            4.1184     7.0802     0.8594 H       
  29 H29            7.3310     4.7572    -0.7337 H       
  30 H30            7.7011     6.3350     0.0024 H       
  31 H31            7.1289     4.9908     1.0193 H       
  32 H32            4.4705     6.9785    -1.6778 H       
  33 H33            6.2014     7.3904    -1.6285 H       
  34 H34            5.6743     5.8443    -2.3355 H       
@<TRIPOS>BOND
   1    1    2 ar
   2    1    5 ar
   3    1   17 1
   4    2    3 ar
   5    2   18 1
   6    3    4 ar
   7    3   19 1
   8    4    7 ar
   9    4   20 1
  10    5    7 ar
  11    5    6 1
  12    6    9 2
  13    6   21 1
  14    7    8 1
  15    8    9 1
  16    8   22 1
  17    9   10 1
  18   10   11 2
  19   10   12 1
  20   11   23 1
  21   11   24 1
  22   12   13 1
  23   12   25 1
  24   13   14 1
  25   13   15 1
  26   13   16 1
  27   14   26 1
  28   14   27 1
  29   14   28 1
  30   15   29 1
  31   15   30 1
  32   15   31 1
  33   16   32 1
  34   16   33 1
  35   16   34 1

#	End of record

