#	Name: ASD01841068
#	Creating user name:	WinNT
#	Creation time:	15. 06. 2019 19:38

#	Modifying user name:	WinNT
#	Modification time:	15. 06. 2019 19:38

#	Program:	/corina/corina34_cracker 3.40 0067  02.08.2006

@<TRIPOS>MOLECULE
ASD01841068
  25   27    0    0    0
SMALL
NO_CHARGES


@<TRIPOS>ATOM
   1 N1            -0.0154     1.2838     0.0091 N.2     
   2 C2             0.0021    -0.0041     0.0020 C.2     
   3 S3             1.6576    -0.5949    -0.0170 S.3     
   4 C4             2.2643     1.0603    -0.0139 C.ar    
   5 C5             1.1662     1.9288     0.0013 C.ar    
   6 C6             1.4223     3.3170     0.0063 C.ar    
   7 C7             2.7303     3.7509    -0.0039 C.ar    
   8 C8             3.7596     2.8242    -0.0187 C.ar    
   9 N9             3.5058     1.5337    -0.0236 N.ar    
  10 N10           -1.1236    -0.8091     0.0084 N.am    
  11 C11           -0.9929    -2.1505    -0.0000 C.2     
  12 C12           -2.1975    -3.0119     0.0069 C.ar    
  13 O13            0.1133    -2.6530    -0.0133 O.2     
  14 C14           -2.0646    -4.3998    -0.0019 C.ar    
  15 N15           -3.1421    -5.1641     0.0043 N.ar    
  16 C16           -4.3434    -4.6145     0.0187 C.ar    
  17 C17           -4.4792    -3.2334     0.0269 C.ar    
  18 N18           -3.4096    -2.4637     0.0269 N.ar    
  19 H19            0.6079     4.0262     0.0175 H       
  20 H20            2.9516     4.8079    -0.0007 H       
  21 H21            4.7842     3.1658    -0.0266 H       
  22 H22           -2.0067    -0.4079     0.0190 H       
  23 H23           -1.0826    -4.8493    -0.0140 H       
  24 H24           -5.2224    -5.2420     0.0236 H       
  25 H25           -5.4633    -2.7887     0.0379 H       
@<TRIPOS>BOND
   1    1    2 2
   2    1    5 1
   3    2    3 1
   4    2   10 1
   5    3    4 1
   6    4    5 ar
   7    4    9 ar
   8    5    6 ar
   9    6    7 ar
  10    6   19 1
  11    7    8 ar
  12    7   20 1
  13    8    9 ar
  14    8   21 1
  15   10   11 am
  16   10   22 1
  17   11   12 1
  18   11   13 2
  19   12   14 ar
  20   12   18 ar
  21   14   15 ar
  22   14   23 1
  23   15   16 ar
  24   16   17 ar
  25   16   24 1
  26   17   18 ar
  27   17   25 1

#	End of record

