#	Name: ASD05430402
#	Creating user name:	WinNT
#	Creation time:	15. 06. 2019 21:00

#	Modifying user name:	WinNT
#	Modification time:	15. 06. 2019 21:00

#	Program:	/corina/corina34_cracker 3.40 0067  02.08.2006

@<TRIPOS>MOLECULE
ASD05430402
  59   63    0    0    0
SMALL
NO_CHARGES


@<TRIPOS>ATOM
   1 C1            -0.3135    -0.3876     0.3460 C.ar    
   2 C2            -0.5875    -1.7541     0.4127 C.ar    
   3 C3            -1.9025    -2.2037     0.4154 C.ar    
   4 C4            -2.9420    -1.3029     0.3518 C.ar    
   5 C5            -2.6751     0.0701     0.2847 C.ar    
   6 C6            -1.3505     0.5228     0.2878 C.ar    
   7 C7            -5.0620     0.5939     0.2183 C.2     
   8 C8            -3.7825     1.0331     0.2164 C.2     
   9 C9            -6.1287     1.5216     0.1525 C.2     
  10 O10            0.9743     0.0481     0.3441 O.3     
  11 C11            1.1813     1.4603     0.2740 C.3     
  12 C12            0.5980    -3.6998     1.3775 C.2     
  13 N13            0.4651    -2.6747     0.4765 N.pl3   
  14 C14            1.7484    -4.3334     1.0805 C.2     
  15 N15            2.3067    -3.7167     0.0281 N.2     
  16 C16            1.5479    -2.7218    -0.3429 C.2     
  17 C17            2.3114    -5.5288     1.8051 C.3     
  18 N18           -5.8869     2.8266     0.0886 N.2     
  19 N19           -7.4408     1.0859     0.1479 N.pl3   
  20 C20           -8.4292     1.9841     0.7285 C.3     
  21 C21           -8.3060     3.3435     0.0338 C.3     
  22 C22           -6.8475     3.7373     0.0318 C.2     
  23 C23           -7.7594    -0.1954    -0.4693 C.3     
  24 C24           -9.1527    -0.6614    -0.0431 C.3     
  25 O25          -10.0526     0.4410    -0.2297 O.3     
  26 C26           -9.8489     1.4752     0.7301 C.3     
  27 C27           -8.0430     2.1923     2.1702 C.ar    
  28 C28           -8.4837     3.3135     2.8483 C.ar    
  29 C29           -8.1306     3.5053     4.1706 C.ar    
  30 C30           -7.3351     2.5739     4.8162 C.ar    
  31 C31           -6.8943     1.4513     4.1361 C.ar    
  32 C32           -7.2531     1.2590     2.8154 C.ar    
  33 F33           -6.9889     2.7606     6.1087 F       
  34 O34           -6.5491     4.9147    -0.0188 O.2     
  35 H35           -2.1097    -3.2624     0.4671 H       
  36 H36           -3.9629    -1.6553     0.3534 H       
  37 H37           -1.1398     1.5808     0.2366 H       
  38 H38           -5.2695    -0.4647     0.2700 H       
  39 H39           -3.5750     2.0918     0.1647 H       
  40 H40            2.2507     1.6715     0.2802 H       
  41 H41            0.7399     1.8470    -0.6445 H       
  42 H42            0.7114     1.9394     1.1328 H       
  43 H43           -0.0863    -3.9483     2.1753 H       
  44 H44            1.7473    -2.0486    -1.1635 H       
  45 H45            1.9381    -6.4427     1.3430 H       
  46 H46            3.3996    -5.5101     1.7460 H       
  47 H47            2.0037    -5.4981     2.8503 H       
  48 H48           -8.6644     3.2667    -0.9927 H       
  49 H49           -8.8905     4.0880     0.5743 H       
  50 H50           -7.7306    -0.0901    -1.5539 H       
  51 H51           -7.0217    -0.9368    -0.1623 H       
  52 H52           -9.4661    -1.5035    -0.6601 H       
  53 H53           -9.1398    -0.9550     1.0065 H       
  54 H54          -10.0850     1.0889     1.7216 H       
  55 H55          -10.5215     2.3032     0.5058 H       
  56 H56           -9.1038     4.0401     2.3444 H       
  57 H57           -8.4746     4.3815     4.7000 H       
  58 H58           -6.2738     0.7242     4.6387 H       
  59 H59           -6.9094     0.3835     2.2847 H       
@<TRIPOS>BOND
   1    1    2 ar
   2    1   10 1
   3    1    6 ar
   4    2    3 ar
   5    2   13 1
   6    3    4 ar
   7    3   35 1
   8    4    5 ar
   9    4   36 1
  10    5    6 ar
  11    5    8 1
  12    6   37 1
  13    7    8 2
  14    7    9 1
  15    7   38 1
  16    8   39 1
  17    9   18 2
  18    9   19 1
  19   10   11 1
  20   11   40 1
  21   11   41 1
  22   11   42 1
  23   12   13 1
  24   12   14 2
  25   12   43 1
  26   13   16 1
  27   14   15 1
  28   14   17 1
  29   15   16 2
  30   16   44 1
  31   17   45 1
  32   17   46 1
  33   17   47 1
  34   18   22 1
  35   19   20 1
  36   19   23 1
  37   20   21 1
  38   20   27 1
  39   20   26 1
  40   21   22 1
  41   21   48 1
  42   21   49 1
  43   22   34 2
  44   23   24 1
  45   23   50 1
  46   23   51 1
  47   24   25 1
  48   24   52 1
  49   24   53 1
  50   25   26 1
  51   26   54 1
  52   26   55 1
  53   27   28 ar
  54   27   32 ar
  55   28   29 ar
  56   28   56 1
  57   29   30 ar
  58   29   57 1
  59   30   31 ar
  60   30   33 1
  61   31   32 ar
  62   31   58 1
  63   32   59 1

#	End of record

