#	Name: ASD06170105
#	Creating user name:	WinNT
#	Creation time:	15. 06. 2019 21:05

#	Modifying user name:	WinNT
#	Modification time:	15. 06. 2019 21:05

#	Program:	/corina/corina34_cracker 3.40 0067  02.08.2006

@<TRIPOS>MOLECULE
ASD06170105
  66   70    0    0    0
SMALL
NO_CHARGES


@<TRIPOS>ATOM
   1 N1            -0.0519     1.5063    -0.2604 N.pl3   
   2 N2            -0.0323     0.1391     0.0309 N.am    
   3 C3             1.2403    -0.2267     0.2900 C.2     
   4 C4             2.0607     0.9870     0.1510 C.2     
   5 C5             1.1955     2.0087    -0.1882 C.2     
   6 C6             3.5130     1.0914     0.3375 C.2     
   7 O7             4.0696     2.1636     0.1911 O.2     
   8 N8             4.2298    -0.0001     0.6708 N.am    
   9 C9            -1.1454    -0.7075     0.0510 C.ar    
  10 C10           -2.0880    -0.6420    -0.9669 C.ar    
  11 C11           -3.1858    -1.4797    -0.9444 C.ar    
  12 C12           -3.3473    -2.3827     0.0904 C.ar    
  13 C13           -2.4106    -2.4504     1.1054 C.ar    
  14 C14           -1.3076    -1.6195     1.0858 C.ar    
  15 O15            1.6325    -1.3411     0.5816 O.2     
  16 C16            1.5823     3.4439    -0.4367 C.3     
  17 C17           -1.2507     2.2769    -0.6001 C.3     
  18 C18           -1.8522     2.8725     0.6744 C.3     
  19 C19           -3.1042     3.6772     0.3197 C.3     
  20 F20           -0.9146     3.7131     1.2839 F       
  21 C21            5.6289     0.0584     0.6844 C.ar    
  22 C22            6.2712     1.2653     0.9288 C.ar    
  23 C23            7.6522     1.3220     0.9426 C.ar    
  24 C24            8.3966     0.1712     0.7119 C.ar    
  25 C25            7.7543    -1.0330     0.4681 C.ar    
  26 C26            6.3740    -1.0912     0.4594 C.ar    
  27 O27            9.7554     0.2266     0.7249 O.3     
  28 N28           11.6202     0.6289     4.3814 N.ar    
  29 C29           10.3107     0.6643     4.3008 C.ar    
  30 C30            9.6479     0.5325     3.0874 C.ar    
  31 C31           10.3755     0.3584     1.9230 C.ar    
  32 C32           11.7850     0.3218     2.0216 C.ar    
  33 C33           12.5893     0.1491     0.8857 C.ar    
  34 C34           13.9439     0.1186     1.0131 C.ar    
  35 C35           14.5476     0.2576     2.2662 C.ar    
  36 C36           13.7856     0.4281     3.3999 C.ar    
  37 C37           12.3859     0.4636     3.2962 C.ar    
  38 O38           15.9018     0.2237     2.3665 O.3     
  39 C39           16.6377     0.0437     1.1548 C.3     
  40 F40            8.2781     2.4955     1.1798 F       
  41 H41            3.7767    -0.8262     0.9012 H       
  42 H42           -1.9629     0.0635    -1.7750 H       
  43 H43           -3.9191    -1.4293    -1.7357 H       
  44 H44           -4.2070    -3.0362     0.1061 H       
  45 H45           -2.5396    -3.1567     1.9122 H       
  46 H46           -0.5743    -1.6757     1.8767 H       
  47 H47            1.5331     4.0006     0.4991 H       
  48 H48            2.5981     3.4835    -0.8300 H       
  49 H49            0.8956     3.8855    -1.1588 H       
  50 H50           -0.9836     3.0809    -1.2859 H       
  51 H51           -1.9811     1.6219    -1.0750 H       
  52 H52           -2.1193     2.0685     1.3602 H       
  53 H53           -3.8346     3.0222    -0.1552 H       
  54 H54           -3.5327     4.1015     1.2277 H       
  55 H55           -2.8371     4.4812    -0.3661 H       
  56 H56            5.6920     2.1592     1.1077 H       
  57 H57            8.3333    -1.9269     0.2889 H       
  58 H58            5.8745    -2.0305     0.2734 H       
  59 H59            9.7325     0.7997     5.2029 H       
  60 H60            8.5689     0.5650     3.0527 H       
  61 H61           12.1347     0.0402    -0.0879 H       
  62 H62           14.5597    -0.0150     0.1360 H       
  63 H63           14.2617     0.5339     4.3635 H       
  64 H64           16.3543    -0.9029     0.6948 H       
  65 H65           16.4152     0.8617     0.4696 H       
  66 H66           17.7050     0.0351     1.3759 H       
@<TRIPOS>BOND
   1    1    2 1
   2    1    5 1
   3    1   17 1
   4    2    3 am
   5    2    9 1
   6    3    4 1
   7    3   15 2
   8    4    5 2
   9    4    6 1
  10    5   16 1
  11    6    7 2
  12    6    8 am
  13    8   21 1
  14    8   41 1
  15    9   10 ar
  16    9   14 ar
  17   10   11 ar
  18   10   42 1
  19   11   12 ar
  20   11   43 1
  21   12   13 ar
  22   12   44 1
  23   13   14 ar
  24   13   45 1
  25   14   46 1
  26   16   47 1
  27   16   48 1
  28   16   49 1
  29   17   18 1
  30   17   50 1
  31   17   51 1
  32   18   19 1
  33   18   20 1
  34   18   52 1
  35   19   53 1
  36   19   54 1
  37   19   55 1
  38   21   22 ar
  39   21   26 ar
  40   22   23 ar
  41   22   56 1
  42   23   24 ar
  43   23   40 1
  44   24   25 ar
  45   24   27 1
  46   25   26 ar
  47   25   57 1
  48   26   58 1
  49   27   31 1
  50   28   29 ar
  51   28   37 ar
  52   29   30 ar
  53   29   59 1
  54   30   31 ar
  55   30   60 1
  56   31   32 ar
  57   32   33 ar
  58   32   37 ar
  59   33   34 ar
  60   33   61 1
  61   34   35 ar
  62   34   62 1
  63   35   36 ar
  64   35   38 1
  65   36   37 ar
  66   36   63 1
  67   38   39 1
  68   39   64 1
  69   39   65 1
  70   39   66 1

#	End of record

