#	Name: ASD05740228
#	Creating user name:	WinNT
#	Creation time:	15. 06. 2019 21:03

#	Modifying user name:	WinNT
#	Modification time:	15. 06. 2019 21:03

#	Program:	/corina/corina34_cracker 3.40 0067  02.08.2006

@<TRIPOS>MOLECULE
ASD05740228
  68   73    0    0    0
SMALL
NO_CHARGES


@<TRIPOS>ATOM
   1 C1             1.3375    -1.3179     0.9666 C.3     
   2 N2             0.4324    -0.6272     1.8958 N.3     
   3 C3            -0.8953    -1.0153     1.6842 C.ar    
   4 C4            -1.9095    -0.4744     2.4636 C.ar    
   5 C5            -3.2195    -0.8573     2.2547 C.ar    
   6 C6            -3.5229    -1.7837     1.2656 C.ar    
   7 C7            -2.5087    -2.3249     0.4866 C.ar    
   8 C8            -1.1994    -1.9371     0.6909 C.ar    
   9 N9            -4.8518    -2.1725     1.0541 N.pl3   
  10 C10           -5.8748    -1.2623     1.2349 C.ar    
  11 N11           -5.5696    -0.0223     1.6015 N.ar    
  12 N12           -7.1229    -1.6574     1.0311 N.ar    
  13 C13           -8.1303    -0.8099     1.1954 C.ar    
  14 C14           -7.8442     0.5156     1.5903 C.ar    
  15 C15           -6.5095     0.8870     1.7880 C.ar    
  16 N16           -9.4321    -1.1888     0.9916 N.am    
  17 C17          -10.4411    -0.3163     1.1624 C.2     
  18 C18          -10.2115     1.0178     1.5551 C.2     
  19 C19           -8.9445     1.4571     1.7742 C.2     
  20 C20           -9.7280    -2.5638     0.5816 C.3     
  21 O21          -11.5857    -0.6893     0.9720 O.2     
  22 C22           -9.7706    -3.4526     1.7978 C.ar    
  23 C23           -8.8775    -4.5152     1.9176 C.ar    
  24 C24            0.8339    -0.8622     3.2898 C.3     
  25 C25            2.2619    -0.3527     3.4994 C.3     
  26 N26            3.1669    -1.0433     2.5702 N.3     
  27 C27            2.7654    -0.8084     1.1762 C.3     
  28 C28           -8.9222    -5.3332     3.0445 C.ar    
  29 C29           -9.8499    -5.0881     4.0371 C.ar    
  30 C30          -10.7348    -4.0328     3.9152 C.ar    
  31 C31          -10.6920    -3.2120     2.7997 C.ar    
  32 C32           -7.8822    -4.7753     0.8480 C.ar    
  33 C33            4.5607    -0.6360     2.7924 C.3     
  34 F34          -11.5591    -2.1823     2.6858 F       
  35 C35           -6.5247    -4.8367     1.1561 C.ar    
  36 C36           -5.6034    -5.0793     0.1574 C.ar    
  37 C37           -6.0255    -5.2609    -1.1472 C.ar    
  38 C38           -7.3719    -5.2010    -1.4586 C.ar    
  39 C39           -8.3023    -4.9647    -0.4669 C.ar    
  40 H40            1.3029    -2.3909     1.1552 H       
  41 H41            1.0271    -1.1184    -0.0591 H       
  42 H42           -1.6735     0.2455     3.2333 H       
  43 H43           -4.0083    -0.4367     2.8608 H       
  44 H44           -2.7446    -3.0459    -0.2822 H       
  45 H45           -0.4107    -2.3580     0.0850 H       
  46 H46           -5.0537    -3.0810     0.7806 H       
  47 H47           -6.2543     1.8919     2.0904 H       
  48 H48          -11.0450     1.6927     1.6825 H       
  49 H49           -8.7562     2.4769     2.0757 H       
  50 H50          -10.6936    -2.5925     0.0766 H       
  51 H51           -8.9519    -2.9152    -0.0983 H       
  52 H52            0.1564    -0.3305     3.9579 H       
  53 H53            0.7936    -1.9300     3.5049 H       
  54 H54            2.2965     0.7203     3.3108 H       
  55 H55            2.5723    -0.5522     4.5251 H       
  56 H56            3.4430    -1.3401     0.5081 H       
  57 H57            2.8058     0.2594     0.9611 H       
  58 H58           -8.2321    -6.1582     3.1414 H       
  59 H59           -9.8848    -5.7224     4.9105 H       
  60 H60          -11.4589    -3.8449     4.6942 H       
  61 H61            4.8530    -0.8826     3.8131 H       
  62 H62            5.2091    -1.1619     2.0916 H       
  63 H63            4.6542     0.4389     2.6373 H       
  64 H64           -6.1940    -4.6943     2.1743 H       
  65 H65           -4.5510    -5.1271     0.3951 H       
  66 H66           -5.3011    -5.4499    -1.9257 H       
  67 H67           -7.6960    -5.3436    -2.4789 H       
  68 H68           -9.3533    -4.9185    -0.7111 H       
@<TRIPOS>BOND
   1    1    2 1
   2    1   27 1
   3    1   40 1
   4    1   41 1
   5    2    3 1
   6    2   24 1
   7    3    4 ar
   8    3    8 ar
   9    4    5 ar
  10    4   42 1
  11    5    6 ar
  12    5   43 1
  13    6    7 ar
  14    6    9 1
  15    7    8 ar
  16    7   44 1
  17    8   45 1
  18    9   10 1
  19    9   46 1
  20   10   11 ar
  21   10   12 ar
  22   11   15 ar
  23   12   13 ar
  24   13   14 ar
  25   13   16 1
  26   14   15 ar
  27   14   19 1
  28   15   47 1
  29   16   17 am
  30   16   20 1
  31   17   18 1
  32   17   21 2
  33   18   19 2
  34   18   48 1
  35   19   49 1
  36   20   22 1
  37   20   50 1
  38   20   51 1
  39   22   23 ar
  40   22   31 ar
  41   23   28 ar
  42   23   32 1
  43   24   25 1
  44   24   52 1
  45   24   53 1
  46   25   26 1
  47   25   54 1
  48   25   55 1
  49   26   27 1
  50   26   33 1
  51   27   56 1
  52   27   57 1
  53   28   29 ar
  54   28   58 1
  55   29   30 ar
  56   29   59 1
  57   30   31 ar
  58   30   60 1
  59   31   34 1
  60   32   35 ar
  61   32   39 ar
  62   33   61 1
  63   33   62 1
  64   33   63 1
  65   35   36 ar
  66   35   64 1
  67   36   37 ar
  68   36   65 1
  69   37   38 ar
  70   37   66 1
  71   38   39 ar
  72   38   67 1
  73   39   68 1

#	End of record

