#	Name: ASD01884791
#	Creating user name:	WinNT
#	Creation time:	15. 06. 2019 19:48

#	Modifying user name:	WinNT
#	Modification time:	15. 06. 2019 19:48

#	Program:	/corina/corina34_cracker 3.40 0067  02.08.2006

@<TRIPOS>MOLECULE
ASD01884791
  50   53    0    0    0
SMALL
NO_CHARGES


@<TRIPOS>ATOM
   1 C1            -0.4381     1.2688     0.2474 C.3     
   2 C2            -0.1565    -0.2337     0.1839 C.3     
   3 H3            -1.0901    -0.7843     0.2995 H       
   4 C4             0.4758    -0.5781    -1.1646 C.3     
   5 N5             1.0586    -1.9152    -1.1851 N.am    
   6 C6             1.7492    -2.4080    -0.1289 C.2     
   7 O7             2.4051    -3.4299    -0.2113 O.2     
   8 C8             1.6635    -1.6429     1.1184 C.2     
   9 C9             2.3597    -1.7468     2.3064 C.2     
  10 C10            1.8686    -0.7331     3.1593 C.2     
  11 N11            0.9340    -0.0657     2.5271 N.2     
  12 N12            0.7663    -0.6043     1.2589 N.pl3   
  13 C13            3.3833    -2.6995     2.6149 C.1     
  14 C14            4.2226    -3.4805     2.8678 C.1     
  15 C15            5.2462    -4.4332     3.1762 C.ar    
  16 C16            5.6396    -5.3822     2.2300 C.ar    
  17 N17            6.5818    -6.2584     2.5137 N.ar    
  18 C18            7.1853    -6.2732     3.6933 C.ar    
  19 N19            8.1724    -7.2164     3.9448 N.pl3   
  20 C20            6.8440    -5.3559     4.6846 C.ar    
  21 C21            5.8734    -4.4235     4.4323 C.ar    
  22 C22            5.4841    -3.4131     5.4804 C.3     
  23 O23            6.2687    -3.6205     6.6567 O.3     
  24 C24            0.9008    -2.7089    -2.3252 C.ar    
  25 C25            0.1213    -3.8573    -2.2714 C.ar    
  26 C26           -0.0325    -4.6392    -3.3994 C.ar    
  27 C27            0.5887    -4.2799    -4.5815 C.ar    
  28 C28            1.3655    -3.1373    -4.6385 C.ar    
  29 C29            1.5187    -2.3479    -3.5157 C.ar    
  30 C30            0.4190    -5.1358    -5.8102 C.3     
  31 F31           -0.6947    -4.6968    -6.5342 F       
  32 F32            1.5632    -5.0367    -6.6091 F       
  33 F33            0.2312    -6.4684    -5.4280 F       
  34 H34            0.4958     1.8187     0.1317 H       
  35 H35           -1.1236     1.5442    -0.5541 H       
  36 H36           -0.8873     1.5139     1.2098 H       
  37 H37           -0.2891    -0.5153    -1.9386 H       
  38 H38            1.2567     0.1501    -1.3838 H       
  39 H39            2.2074    -0.5398     4.1664 H       
  40 H40            5.1677    -5.3981     1.2587 H       
  41 H41            8.4158    -7.8582     3.2594 H       
  42 H42            8.6187    -7.2335     4.8058 H       
  43 H43            7.3429    -5.3776     5.6423 H       
  44 H44            5.6604    -2.4074     5.0988 H       
  45 H45            4.4279    -3.5297     5.7229 H       
  46 H46            6.0711    -3.0040     7.3750 H       
  47 H47           -0.3638    -4.1386    -1.3484 H       
  48 H48           -0.6382    -5.5323    -3.3581 H       
  49 H49            1.8495    -2.8597    -5.5632 H       
  50 H50            2.1219    -1.4532    -3.5620 H       
@<TRIPOS>BOND
   1    1    2 1
   2    1   34 1
   3    1   35 1
   4    1   36 1
   5    2    3 1
   6    2   12 1
   7    2    4 1
   8    4    5 1
   9    4   37 1
  10    4   38 1
  11    5    6 am
  12    5   24 1
  13    6    7 2
  14    6    8 1
  15    8   12 1
  16    8    9 2
  17    9   10 1
  18    9   13 1
  19   10   11 2
  20   10   39 1
  21   11   12 1
  22   13   14 3
  23   14   15 1
  24   15   21 ar
  25   15   16 ar
  26   16   17 ar
  27   16   40 1
  28   17   18 ar
  29   18   19 1
  30   18   20 ar
  31   19   41 1
  32   19   42 1
  33   20   21 ar
  34   20   43 1
  35   21   22 1
  36   22   23 1
  37   22   44 1
  38   22   45 1
  39   23   46 1
  40   24   29 ar
  41   24   25 ar
  42   25   26 ar
  43   25   47 1
  44   26   27 ar
  45   26   48 1
  46   27   28 ar
  47   27   30 1
  48   28   29 ar
  49   28   49 1
  50   29   50 1
  51   30   31 1
  52   30   32 1
  53   30   33 1

#	End of record

