#	Name: ASD03082351
#	Creating user name:	WinNT
#	Creation time:	15. 06. 2019 20:27

#	Modifying user name:	WinNT
#	Modification time:	15. 06. 2019 20:27

#	Program:	/corina/corina34_cracker 3.40 0067  02.08.2006

@<TRIPOS>MOLECULE
ASD03082351
  46   48    0    0    0
SMALL
NO_CHARGES


@<TRIPOS>ATOM
   1 C1            -2.6597    -2.8379    -0.6946 C.ar    
   2 C2            -1.6362    -2.1144    -1.2907 C.ar    
   3 C3            -0.5961    -2.7816    -1.9292 C.ar    
   4 C4            -0.5837    -4.1636    -1.9690 C.ar    
   5 C5            -1.6060    -4.8835    -1.3741 C.ar    
   6 C6            -2.6434    -4.2208    -0.7367 C.ar    
   7 F7            -3.6396    -4.9256    -0.1570 F       
   8 F8            -1.5924    -6.2339    -1.4149 F       
   9 N9            -1.6509    -0.7153    -1.2497 N.pl3   
  10 C10           -2.7753    -0.0417    -0.7615 C.2     
  11 C11           -2.8821     1.3452    -0.5599 C.2     
  12 N12           -3.9149    -0.5949    -0.4180 N.2     
  13 N13           -4.7794     0.4178     0.0173 N.pl3   
  14 C14           -4.1196     1.6015    -0.0801 C.2     
  15 C15           -6.0908     0.2418     0.4688 C.ar    
  16 C16           -7.1059     1.1099     0.0718 C.ar    
  17 C17           -6.4177    -0.8098     1.3232 C.ar    
  18 C18           -7.7234    -0.9489     1.7463 C.ar    
  19 N19           -8.6559    -0.1024     1.3522 N.ar    
  20 C20           -8.3874     0.9020     0.5399 C.ar    
  21 C21           -8.0895    -2.0822     2.6697 C.3     
  22 H22           -9.1794     1.5728     0.2414 H       
  23 C23           -4.6687     2.9572     0.2829 C.3     
  24 C24           -5.1368     3.6740    -0.9852 C.3     
  25 C25           -5.8271     4.9853    -0.6045 C.3     
  26 O26           -4.0098     3.9533    -1.8181 O.3     
  27 C27           -6.4046     5.6410    -1.8604 C.3     
  28 F28            0.4011    -2.0797    -2.5106 F       
  29 H29           -3.4659    -2.3219    -0.1944 H       
  30 H30            0.2237    -4.6819    -2.4647 H       
  31 H31           -0.8813    -0.2129    -1.5598 H       
  32 H32           -2.1116     2.0767    -0.7536 H       
  33 H33           -6.8927     1.9342    -0.5927 H       
  34 H34           -5.6594    -1.5063     1.6491 H       
  35 H35           -7.9783    -1.7581     3.7044 H       
  36 H36           -9.1234    -2.3773     2.4905 H       
  37 H37           -7.4317    -2.9308     2.4820 H       
  38 H38           -5.5108     2.8376     0.9645 H       
  39 H39           -3.8902     3.5468     0.7671 H       
  40 H40           -5.8383     3.0374    -1.5245 H       
  41 H41           -6.6320     4.7805     0.1014 H       
  42 H42           -5.1025     5.6571    -0.1443 H       
  43 H43           -3.3429     4.5164    -1.4018 H       
  44 H44           -7.1292     4.9692    -2.3205 H       
  45 H45           -6.8964     6.5752    -1.5892 H       
  46 H46           -5.5997     5.8457    -2.5663 H       
@<TRIPOS>BOND
   1    1    2 ar
   2    1    6 ar
   3    1   29 1
   4    2    3 ar
   5    2    9 1
   6    3    4 ar
   7    3   28 1
   8    4    5 ar
   9    4   30 1
  10    5    6 ar
  11    5    8 1
  12    6    7 1
  13    9   10 1
  14    9   31 1
  15   10   11 1
  16   10   12 2
  17   11   14 2
  18   11   32 1
  19   12   13 1
  20   13   14 1
  21   13   15 1
  22   14   23 1
  23   15   16 ar
  24   15   17 ar
  25   16   20 ar
  26   16   33 1
  27   17   18 ar
  28   17   34 1
  29   18   19 ar
  30   18   21 1
  31   19   20 ar
  32   20   22 1
  33   21   35 1
  34   21   36 1
  35   21   37 1
  36   23   24 1
  37   23   38 1
  38   23   39 1
  39   24   25 1
  40   24   26 1
  41   24   40 1
  42   25   27 1
  43   25   41 1
  44   25   42 1
  45   26   43 1
  46   27   44 1
  47   27   45 1
  48   27   46 1

#	End of record

