#	Name: ASD02039355
#	Creating user name:	WinNT
#	Creation time:	15. 06. 2019 20:18

#	Modifying user name:	WinNT
#	Modification time:	15. 06. 2019 20:18

#	Program:	/corina/corina34_cracker 3.40 0067  02.08.2006

@<TRIPOS>MOLECULE
ASD02039355
  47   49    0    0    0
SMALL
NO_CHARGES


@<TRIPOS>ATOM
   1 C1            -0.2465     0.9222     0.5688 C.ar    
   2 C2            -0.1515    -0.4560     0.4980 C.ar    
   3 C3            -1.2950    -1.2320     0.4475 C.ar    
   4 C4            -2.6415     0.7569     0.5513 C.ar    
   5 C5            -1.4844     1.5320     0.5956 C.ar    
   6 C6            -3.9741     1.4065     0.5793 C.ar    
   7 C7             1.0051     1.7599     0.6230 C.3     
   8 N8             1.5004     1.9865    -0.7370 N.am    
   9 C9             0.9486     3.0767    -1.5453 C.3     
  10 C10            2.4635     1.1921    -1.2445 C.2     
  11 C11            2.9445     0.0327    -0.4732 C.2     
  12 C12            3.8217    -0.9173    -0.9079 C.2     
  13 N13            2.6001    -0.2815     0.8018 N.2     
  14 C14            3.2213    -1.3715     1.1492 C.2     
  15 N15            3.9886    -1.7934     0.1106 N.pl3   
  16 O16            2.9356     1.4323    -2.3394 O.2     
  17 C17            4.8428    -2.9835     0.0952 C.3     
  18 C18           -4.2283     2.4266     1.4976 C.ar    
  19 C19            2.0422     4.1104    -1.8218 C.3     
  20 C20            0.4294     2.5164    -2.8709 C.3     
  21 C21           -2.5408    -0.6331     0.4674 C.ar    
  22 F22           -3.6578    -1.3913     0.4171 F       
  23 N23           -4.9140     1.0174    -0.2721 N.ar    
  24 C24           -6.1108     1.5687    -0.2799 C.ar    
  25 C25           -6.4332     2.5806     0.6052 C.ar    
  26 C26           -5.4793     3.0232     1.5105 C.ar    
  27 F27           -3.2693     2.8261     2.3612 F       
  28 H28            0.8198    -0.9279     0.4819 H       
  29 H29           -1.2147    -2.3076     0.3919 H       
  30 H30           -1.5561     2.6076     0.6608 H       
  31 H31            0.7811     2.7178     1.0925 H       
  32 H32            1.7659     1.2393     1.2047 H       
  33 H33            0.1290     3.5506    -1.0052 H       
  34 H34            4.2925    -0.9622    -1.8788 H       
  35 H35            3.1418    -1.8599     2.1092 H       
  36 H36            4.2685    -3.8384    -0.2616 H       
  37 H37            5.6911    -2.8133    -0.5679 H       
  38 H38            5.2046    -3.1842     1.1037 H       
  39 H39            2.7958     3.6753    -2.4783 H       
  40 H40            1.6027     4.9845    -2.3023 H       
  41 H41            2.5072     4.4078    -0.8819 H       
  42 H42           -0.2731     1.7069    -2.6730 H       
  43 H43           -0.0745     3.3069    -3.4270 H       
  44 H44            1.2660     2.1363    -3.4572 H       
  45 H45           -6.8504     1.2254    -0.9880 H       
  46 H46           -7.4172     3.0253     0.5894 H       
  47 H47           -5.7076     3.8123     2.2117 H       
@<TRIPOS>BOND
   1    1    2 ar
   2    1    7 1
   3    1    5 ar
   4    2    3 ar
   5    2   28 1
   6    3   21 ar
   7    3   29 1
   8    4    5 ar
   9    4    6 1
  10    4   21 ar
  11    5   30 1
  12    6   18 ar
  13    6   23 ar
  14    7    8 1
  15    7   31 1
  16    7   32 1
  17    8    9 1
  18    8   10 am
  19    9   20 1
  20    9   19 1
  21    9   33 1
  22   10   11 1
  23   10   16 2
  24   11   12 2
  25   11   13 1
  26   12   15 1
  27   12   34 1
  28   13   14 2
  29   14   15 1
  30   14   35 1
  31   15   17 1
  32   17   36 1
  33   17   37 1
  34   17   38 1
  35   18   27 1
  36   18   26 ar
  37   19   39 1
  38   19   40 1
  39   19   41 1
  40   20   42 1
  41   20   43 1
  42   20   44 1
  43   21   22 1
  44   23   24 ar
  45   24   25 ar
  46   24   45 1
  47   25   26 ar
  48   25   46 1
  49   26   47 1

#	End of record

