#	Name: ASD01912582
#	Creating user name:	WinNT
#	Creation time:	15. 06. 2019 19:59

#	Modifying user name:	WinNT
#	Modification time:	15. 06. 2019 19:59

#	Program:	/corina/corina34_cracker 3.40 0067  02.08.2006

@<TRIPOS>MOLECULE
ASD01912582
  61   65    0    0    0
SMALL
NO_CHARGES


@<TRIPOS>ATOM
   1 C1             0.0005     1.4166    -0.3885 C.ar    
   2 C2            -1.2143     1.9576     0.0325 C.ar    
   3 C3             1.2605     2.1625    -0.1732 C.2     
   4 N4             1.3790     3.5089     0.0077 N.pl3   
   5 C5             2.5139     1.6275    -0.1136 C.2     
   6 C6             3.4194     2.6795     0.1042 C.2     
   7 N7             2.7378     3.8037     0.1764 N.2     
   8 C8             4.8920     2.5458     0.2351 C.ar    
   9 C9             5.5006     1.3082     0.0398 C.ar    
  10 C10            5.6689     3.6590     0.5480 C.ar    
  11 C11            7.0416     3.5293     0.6685 C.ar    
  12 C12            7.6420     2.2900     0.4773 C.ar    
  13 C13            6.8706     1.1855     0.1614 C.ar    
  14 C14            0.2791     4.4765     0.0225 C.3     
  15 C15           -0.1673     4.7078     1.4432 C.2     
  16 N16           -1.1742     5.5655     1.7019 N.am    
  17 O17            0.3794     4.1221     2.3536 O.2     
  18 C18           -1.6255     5.8059     3.0810 C.3     
  19 C19           -1.6548     7.3181     3.3270 C.3     
  20 N20           -2.4655     7.9647     2.2865 N.3     
  21 C21           -1.8712     7.7794     0.9560 C.3     
  22 C22           -1.8467     6.2907     0.6133 C.3     
  23 C23           -2.6508     9.3137     2.5659 C.ar    
  24 C24           -3.3951    10.1021     1.6946 C.ar    
  25 C25           -3.5720    11.4431     1.9851 C.ar    
  26 C26           -2.9964    11.9521     3.1414 C.ar    
  27 C27           -2.2699    11.1120     3.9615 C.ar    
  28 N28           -2.1218     9.8355     3.6620 N.ar    
  29 C29           -2.3856     1.2572    -0.1712 C.ar    
  30 C30           -2.3568     0.0208    -0.7912 C.ar    
  31 C31           -1.1551    -0.5212    -1.2107 C.ar    
  32 C32            0.0236     0.1671    -1.0083 C.ar    
  33 F33            8.9820     2.1648     0.5952 F       
  34 O34            7.8029     4.6138     0.9733 O.3     
  35 C35            7.1196     5.8555     1.1555 C.3     
  36 H36           -1.2381     2.9224     0.5173 H       
  37 H37            2.7653     0.5821    -0.2153 H       
  38 H38            4.9009     0.4445    -0.2065 H       
  39 H39            5.2011     4.6212     0.6958 H       
  40 H40            7.3406     0.2244     0.0140 H       
  41 H41            0.6177     5.4181    -0.4098 H       
  42 H42           -0.5548     4.0875    -0.5616 H       
  43 H43           -2.6254     5.3935     3.2161 H       
  44 H44           -0.9345     5.3345     3.7798 H       
  45 H45           -2.0912     7.5190     4.3054 H       
  46 H46           -0.6389     7.7118     3.2936 H       
  47 H47           -2.4645     8.3148     0.2148 H       
  48 H48           -0.8523     8.1666     0.9556 H       
  49 H49           -1.3044     6.1386    -0.3199 H       
  50 H50           -2.8673     5.9216     0.5113 H       
  51 H51           -3.8287     9.6733     0.8032 H       
  52 H52           -4.1446    12.0797     1.3269 H       
  53 H53           -3.1154    12.9947     3.3967 H       
  54 H54           -1.8201    11.5038     4.8619 H       
  55 H55           -3.3268     1.6750     0.1543 H       
  56 H56           -3.2762    -0.5236    -0.9481 H       
  57 H57           -1.1389    -1.4872    -1.6934 H       
  58 H58            0.9611    -0.2571    -1.3362 H       
  59 H59            6.4048     5.7603     1.9729 H       
  60 H60            7.8420     6.6362     1.3936 H       
  61 H61            6.5907     6.1171     0.2390 H       
@<TRIPOS>BOND
   1    1    2 ar
   2    1    3 1
   3    1   32 ar
   4    2   29 ar
   5    2   36 1
   6    3    4 1
   7    3    5 2
   8    4   14 1
   9    4    7 1
  10    5    6 1
  11    5   37 1
  12    6    7 2
  13    6    8 1
  14    8    9 ar
  15    8   10 ar
  16    9   13 ar
  17    9   38 1
  18   10   11 ar
  19   10   39 1
  20   11   12 ar
  21   11   34 1
  22   12   13 ar
  23   12   33 1
  24   13   40 1
  25   14   15 1
  26   14   41 1
  27   14   42 1
  28   15   16 am
  29   15   17 2
  30   16   18 1
  31   16   22 1
  32   18   19 1
  33   18   43 1
  34   18   44 1
  35   19   20 1
  36   19   45 1
  37   19   46 1
  38   20   21 1
  39   20   23 1
  40   21   22 1
  41   21   47 1
  42   21   48 1
  43   22   49 1
  44   22   50 1
  45   23   24 ar
  46   23   28 ar
  47   24   25 ar
  48   24   51 1
  49   25   26 ar
  50   25   52 1
  51   26   27 ar
  52   26   53 1
  53   27   28 ar
  54   27   54 1
  55   29   30 ar
  56   29   55 1
  57   30   31 ar
  58   30   56 1
  59   31   32 ar
  60   31   57 1
  61   32   58 1
  62   34   35 1
  63   35   59 1
  64   35   60 1
  65   35   61 1

#	End of record

