#	Name: ASD01209225
#	Creating user name:	WinNT
#	Creation time:	15. 06. 2019 19:11

#	Modifying user name:	WinNT
#	Modification time:	15. 06. 2019 19:11

#	Program:	/corina/corina34_cracker 3.40 0067  02.08.2006

@<TRIPOS>MOLECULE
ASD01209225
  61   63    0    0    0
SMALL
NO_CHARGES


@<TRIPOS>ATOM
   1 O1             1.2972     3.8810     0.7616 O.3     
   2 O2             3.1525     5.4638     1.7439 O.3     
   3 C3             1.7720     7.2864    -8.8273 C.ar    
   4 C4             0.9040     6.9417    -9.8535 C.ar    
   5 C5            -0.3238     6.3646    -9.5644 C.ar    
   6 C6            -0.6881     6.1292    -8.2488 C.ar    
   7 C7             0.1816     6.4742    -7.2138 C.ar    
   8 C8             1.4179     7.0502    -7.5095 C.ar    
   9 O9            -1.1704     6.0293   -10.5733 O.3     
  10 C10           -0.2031     6.2253    -5.8084 C.2     
  11 N11            0.6386     6.5594    -4.8101 N.am    
  12 O12           -1.2785     5.7194    -5.5530 O.2     
  13 C13            0.2772     6.3255    -3.4896 C.2     
  14 P14            2.2615     5.1308     0.4449 P.3     
  15 O15            3.1501     4.7932    -0.6895 O.2     
  16 C16            1.2500     6.5846     0.0128 C.3     
  17 N17            1.0099     6.6079    -2.4580 N.2     
  18 S18           -1.2018     5.6300    -2.9875 S.3     
  19 C19           -0.7052     5.7646    -1.3026 C.2     
  20 C20            0.5091     6.3172    -1.2719 C.2     
  21 O21            2.9738     7.8516    -9.1162 O.3     
  22 C22            3.8671     8.0709    -8.0226 C.3     
  23 C23           -0.6768     6.1672   -11.9072 C.3     
  24 C24            5.2951     8.2176    -8.5521 C.3     
  25 C25            1.7894     2.5668     1.0311 C.3     
  26 C26            0.6122     1.6242     1.2890 C.3     
  27 C27            3.4638     9.3481    -7.2829 C.3     
  28 C28           -1.4150     5.2916   -12.9372 C.3     
  29 O29           -1.3838     6.4586   -13.7833 O.3     
  30 C30           -1.2707     7.3669   -12.6693 C.3     
  31 C31            4.1289     4.5626     2.2698 C.3     
  32 C32            4.7892     5.1875     3.5004 C.3     
  33 H33            1.1850     7.1236   -10.8803 H       
  34 H34           -1.6445     5.6805    -8.0245 H       
  35 H35            2.0941     7.3188    -6.7114 H       
  36 H36            1.4967     6.9631    -5.0139 H       
  37 H37            0.5341     6.7794     0.8114 H       
  38 H38            1.8971     7.4524    -0.1148 H       
  39 H39           -1.2841     5.4571    -0.4442 H       
  40 H40            3.8186     7.2240    -7.3382 H       
  41 H41            0.4093     6.0982   -11.9687 H       
  42 H42            5.3436     9.0646    -9.2364 H       
  43 H43            5.9765     8.3849    -7.7179 H       
  44 H44            5.5824     7.3078    -9.0791 H       
  45 H45            2.3599     2.2096     0.1738 H       
  46 H46            2.4331     2.5932     1.9104 H       
  47 H47            0.0417     1.9814     2.1463 H       
  48 H48           -0.0314     1.5978     0.4097 H       
  49 H49            0.9877     0.6218     1.4946 H       
  50 H50            2.4465     9.2436    -6.9057 H       
  51 H51            4.1452     9.5154    -6.4487 H       
  52 H52            3.5123    10.1951    -7.9672 H       
  53 H53           -0.8218     4.4582   -13.3134 H       
  54 H54           -2.4181     4.9978   -12.6280 H       
  55 H55           -2.2296     7.7068   -12.2783 H       
  56 H56           -0.5628     8.1795   -12.8330 H       
  57 H57            3.6455     3.6275     2.5523 H       
  58 H58            4.8868     4.3653     1.5117 H       
  59 H59            5.2727     6.1227     3.2179 H       
  60 H60            4.0313     5.3849     4.2585 H       
  61 H61            5.5340     4.5001     3.9016 H       
@<TRIPOS>BOND
   1    1   25 1
   2    1   14 1
   3    2   31 1
   4    2   14 1
   5    3    4 ar
   6    3   21 1
   7    3    8 ar
   8    4    5 ar
   9    4   33 1
  10    5    6 ar
  11    5    9 1
  12    6    7 ar
  13    6   34 1
  14    7    8 ar
  15    7   10 1
  16    8   35 1
  17    9   23 1
  18   10   11 am
  19   10   12 2
  20   11   13 1
  21   11   36 1
  22   13   17 2
  23   13   18 1
  24   14   15 2
  25   14   16 1
  26   16   20 1
  27   16   37 1
  28   16   38 1
  29   17   20 1
  30   18   19 1
  31   19   20 2
  32   19   39 1
  33   21   22 1
  34   22   24 1
  35   22   27 1
  36   22   40 1
  37   23   28 1
  38   23   30 1
  39   23   41 1
  40   24   42 1
  41   24   43 1
  42   24   44 1
  43   25   26 1
  44   25   45 1
  45   25   46 1
  46   26   47 1
  47   26   48 1
  48   26   49 1
  49   27   50 1
  50   27   51 1
  51   27   52 1
  52   28   29 1
  53   28   53 1
  54   28   54 1
  55   29   30 1
  56   30   55 1
  57   30   56 1
  58   31   32 1
  59   31   57 1
  60   31   58 1
  61   32   59 1
  62   32   60 1
  63   32   61 1

#	End of record

