#	Name: ASD01948232
#	Creating user name:	WinNT
#	Creation time:	15. 06. 2019 20:14

#	Modifying user name:	WinNT
#	Modification time:	15. 06. 2019 20:14

#	Program:	/corina/corina34_cracker 3.40 0067  02.08.2006

@<TRIPOS>MOLECULE
ASD01948232
  30   31    0    0    0
SMALL
NO_CHARGES


@<TRIPOS>ATOM
   1 C1            -0.4755     0.7327     1.4098 C.ar    
   2 C2             0.0258     0.0554     0.3081 C.ar    
   3 C3            -0.6886     0.0342    -0.8779 C.ar    
   4 C4            -1.9054     0.6888    -0.9663 C.ar    
   5 C5            -2.4107     1.3682     0.1369 C.ar    
   6 C6            -1.6961     1.3848     1.3267 C.ar    
   7 F7            -2.6014     0.6678    -2.1241 F       
   8 C8            -4.7893     0.0024     0.6796 C.ar    
   9 C9            -4.8294     1.3271     0.2671 C.ar    
  10 N10           -3.6396     2.0298     0.0491 N.pl3   
  11 C11           -5.9660    -0.6896     0.8937 C.ar    
  12 C12           -7.1841    -0.0643     0.6977 C.ar    
  13 C13           -7.2291     1.2565     0.2864 C.ar    
  14 C14           -6.0557     1.9544     0.0704 C.ar    
  15 N15           -2.2315     2.1073     2.5025 N.pl3   
  16 F16           -6.0994     3.2438    -0.3306 F       
  17 Br17          -8.7914    -1.0162     0.9917 Br      
  18 F18           -0.1977    -0.6254    -1.9498 F       
  19 O19           -2.9500     1.5284     3.2977 O.2     
  20 O20           -1.9537     3.2806     2.6748 O.2     
  21 O21            0.2275     0.7523     2.5731 O.3     
  22 C22            1.4744     0.0544     2.5894 C.3     
  23 H23            0.9748    -0.4557     0.3752 H       
  24 H24           -3.8390    -0.4886     0.8287 H       
  25 H25           -3.6670     2.9759    -0.1630 H       
  26 H26           -5.9346    -1.7205     1.2144 H       
  27 H27           -8.1817     1.7420     0.1338 H       
  28 H28            1.9310     0.1493     3.5746 H       
  29 H29            1.3040    -0.9992     2.3679 H       
  30 H30            2.1392     0.4807     1.8382 H       
@<TRIPOS>BOND
   1    1    2 ar
   2    1   21 1
   3    1    6 ar
   4    2    3 ar
   5    2   23 1
   6    3    4 ar
   7    3   18 1
   8    4    5 ar
   9    4    7 1
  10    5    6 ar
  11    5   10 1
  12    6   15 1
  13    8    9 ar
  14    8   11 ar
  15    8   24 1
  16    9   10 1
  17    9   14 ar
  18   10   25 1
  19   11   12 ar
  20   11   26 1
  21   12   13 ar
  22   12   17 1
  23   13   14 ar
  24   13   27 1
  25   14   16 1
  26   15   19 2
  27   15   20 2
  28   21   22 1
  29   22   28 1
  30   22   29 1
  31   22   30 1

#	End of record

