#	Name: ASD01411126
#	Creating user name:	WinNT
#	Creation time:	15. 06. 2019 19:19

#	Modifying user name:	WinNT
#	Modification time:	15. 06. 2019 19:19

#	Program:	/corina/corina34_cracker 3.40 0067  02.08.2006

@<TRIPOS>MOLECULE
ASD01411126
  63   65    0    0    0
SMALL
NO_CHARGES


@<TRIPOS>ATOM
   1 C1            -0.3263     1.1429    -0.0496 C.2     
   2 C2             0.8979     1.6987    -0.3326 C.2     
   3 C3             1.9270     0.8054    -0.4087 C.2     
   4 S4             1.3311    -0.8212    -0.1098 S.3     
   5 C5            -0.3076    -0.2232     0.1094 C.2     
   6 C6             3.2898     1.1429    -0.6910 C.1     
   7 C7             4.4070     1.4196    -0.9224 C.1     
   8 C8             5.8077     1.7666    -1.2126 C.3     
   9 C9             6.6588     0.4951    -1.2119 C.3     
  10 C10            5.8933     2.4369    -2.5853 C.3     
  11 C11            6.3272     2.7285    -0.1421 C.3     
  12 C12           -1.4344    -1.0245     0.4048 C.2     
  13 O13           -2.5084    -0.5017     0.6391 O.2     
  14 O14           -1.3193    -2.3694     0.4268 O.3     
  15 N15           -1.4910     1.9020     0.0721 N.am    
  16 C16           -1.9206     2.2865     1.2903 C.2     
  17 C17           -3.1341     3.1710     1.4169 C.3     
  18 O18           -1.3305     1.9206     2.2848 O.2     
  19 C19           -4.0816     5.4221     0.8903 C.3     
  20 C20           -2.8496     4.5241     0.7619 C.3     
  21 C21           -3.4611     3.3796     2.8969 C.3     
  22 C22           -4.6932     4.2776     3.0254 C.3     
  23 C23           -4.4086     5.6307     2.3704 C.3     
  24 C24           -5.6406     6.5287     2.4989 C.3     
  25 C25           -2.2468     2.2810    -1.1244 C.3     
  26 C26           -2.6206     1.4505    -3.3429 C.3     
  27 N27           -1.5693     2.4744    -3.3599 N.am    
  28 C28           -1.3426     2.9621    -2.1280 C.2     
  29 C29           -2.7549     1.0222    -1.8648 C.3     
  30 O30           -0.5318     3.8233    -1.8602 O.2     
  31 C31           -0.8585     2.9093    -4.5648 C.3     
  32 H32            1.0351     2.7593    -0.4833 H       
  33 H33            6.2887    -0.1901    -1.9745 H       
  34 H34            7.6960     0.7521    -1.4268 H       
  35 H35            6.5978     0.0176    -0.2340 H       
  36 H36            5.2870     3.3427    -2.5857 H       
  37 H37            6.9306     2.6938    -2.8001 H       
  38 H38            5.5233     1.7516    -3.3479 H       
  39 H39            6.2662     2.2510     0.8359 H       
  40 H40            7.3644     2.9854    -0.3570 H       
  41 H41            5.7209     3.6343    -0.1426 H       
  42 H42           -2.1422    -2.8312     0.6380 H       
  43 H43           -3.9817     2.6982     0.9207 H       
  44 H44           -3.8789     6.3861     0.4237 H       
  45 H45           -4.9292     4.9493     0.3941 H       
  46 H46           -2.0020     4.9969     1.2581 H       
  47 H47           -2.6166     4.3755    -0.2925 H       
  48 H48           -3.6638     2.4156     3.3636 H       
  49 H49           -2.6136     3.8524     3.3931 H       
  50 H50           -5.5407     3.8048     2.5292 H       
  51 H51           -4.9261     4.4262     4.0798 H       
  52 H52           -3.5610     6.1035     2.8666 H       
  53 H53           -6.4882     6.0559     2.0027 H       
  54 H54           -5.8736     6.6773     3.5533 H       
  55 H55           -5.4379     7.4927     2.0322 H       
  56 H56           -3.0812     2.9297    -0.8578 H       
  57 H57           -3.5610     1.8694    -3.7012 H       
  58 H58           -2.3279     0.5990    -3.9572 H       
  59 H59           -2.1226     0.1610    -1.6492 H       
  60 H60           -3.7945     0.8140    -1.6119 H       
  61 H61           -1.3921     3.7436    -5.0203 H       
  62 H62            0.1499     3.2255    -4.2976 H       
  63 H63           -0.8043     2.0826    -5.2731 H       
@<TRIPOS>BOND
   1    1    2 1
   2    1    5 2
   3    1   15 1
   4    2    3 2
   5    2   32 1
   6    3    4 1
   7    3    6 1
   8    4    5 1
   9    5   12 1
  10    6    7 3
  11    7    8 1
  12    8    9 1
  13    8   10 1
  14    8   11 1
  15    9   33 1
  16    9   34 1
  17    9   35 1
  18   10   36 1
  19   10   37 1
  20   10   38 1
  21   11   39 1
  22   11   40 1
  23   11   41 1
  24   12   13 2
  25   12   14 1
  26   14   42 1
  27   15   16 am
  28   15   25 1
  29   16   18 2
  30   16   17 1
  31   17   21 1
  32   17   20 1
  33   17   43 1
  34   19   20 1
  35   19   23 1
  36   19   44 1
  37   19   45 1
  38   20   46 1
  39   20   47 1
  40   21   22 1
  41   21   48 1
  42   21   49 1
  43   22   23 1
  44   22   50 1
  45   22   51 1
  46   23   24 1
  47   23   52 1
  48   24   53 1
  49   24   54 1
  50   24   55 1
  51   25   29 1
  52   25   28 1
  53   25   56 1
  54   26   27 1
  55   26   29 1
  56   26   57 1
  57   26   58 1
  58   27   28 am
  59   27   31 1
  60   28   30 2
  61   29   59 1
  62   29   60 1
  63   31   61 1
  64   31   62 1
  65   31   63 1

#	End of record

