#	Name: ASD01916716
#	Creating user name:	WinNT
#	Creation time:	15. 06. 2019 20:07

#	Modifying user name:	WinNT
#	Modification time:	15. 06. 2019 20:07

#	Program:	/corina/corina34_cracker 3.40 0067  02.08.2006

@<TRIPOS>MOLECULE
ASD01916716
  28   29    0    0    0
SMALL
NO_CHARGES


@<TRIPOS>ATOM
   1 C1            -0.0158     1.3136     0.0093 C.ar    
   2 N2             0.0021    -0.0041     0.0020 N.ar    
   3 C3             1.1579    -0.6678    -0.0126 C.ar    
   4 C4             2.3543     0.0585    -0.0201 C.ar    
   5 C5             2.2829     1.4393    -0.0120 C.ar    
   6 N6             1.0952     2.0255     0.0025 N.ar    
   7 C7             1.1753    -2.0997    -0.0199 C.1     
   8 C8             1.1895    -3.2736    -0.0260 C.1     
   9 C9             1.2074    -4.7455    -0.0336 C.3     
  10 C10            2.6559    -5.2379    -0.0502 C.3     
  11 C11            2.6742    -6.7447    -0.0579 C.ar    
  12 C12            2.6710    -7.4298    -1.2586 C.ar    
  13 C13            2.6877    -8.8120    -1.2657 C.ar    
  14 C14            2.7081    -9.5092    -0.0722 C.ar    
  15 C15            2.7123    -8.8241     1.1284 C.ar    
  16 C16            2.7000    -7.4418     1.1355 C.ar    
  17 Cl17          -1.5445     2.1362     0.0209 Cl      
  18 H18            3.3088    -0.4467    -0.0315 H       
  19 H19            3.1851     2.0330    -0.0170 H       
  20 H20            0.7067    -5.1195     0.8594 H       
  21 H21            0.6894    -5.1106    -0.9204 H       
  22 H22            3.1566    -4.8638    -0.9432 H       
  23 H23            3.1739    -4.8728     0.8367 H       
  24 H24            2.6550    -6.8851    -2.1910 H       
  25 H25            2.6845    -9.3473    -2.2037 H       
  26 H26            2.7205   -10.5891    -0.0778 H       
  27 H27            2.7279    -9.3687     2.0609 H       
  28 H28            2.7069    -6.9065     2.0735 H       
@<TRIPOS>BOND
   1    1    2 ar
   2    1    6 ar
   3    1   17 1
   4    2    3 ar
   5    3    4 ar
   6    3    7 1
   7    4    5 ar
   8    4   18 1
   9    5    6 ar
  10    5   19 1
  11    7    8 3
  12    8    9 1
  13    9   10 1
  14    9   20 1
  15    9   21 1
  16   10   11 1
  17   10   22 1
  18   10   23 1
  19   11   12 ar
  20   11   16 ar
  21   12   13 ar
  22   12   24 1
  23   13   14 ar
  24   13   25 1
  25   14   15 ar
  26   14   26 1
  27   15   16 ar
  28   15   27 1
  29   16   28 1

#	End of record

