#	Name: ASD06350039
#	Creating user name:	WinNT
#	Creation time:	15. 06. 2019 21:06

#	Modifying user name:	WinNT
#	Modification time:	15. 06. 2019 21:06

#	Program:	/corina/corina34_cracker 3.40 0067  02.08.2006

@<TRIPOS>MOLECULE
ASD06350039
  58   63    0    0    0
SMALL
NO_CHARGES


@<TRIPOS>ATOM
   1 F1            -1.9729    -1.1762    -2.1211 F       
   2 C2            -1.7705     0.0893    -1.6938 C.ar    
   3 C3            -2.3946     0.5384    -0.5419 C.ar    
   4 C4            -2.1887     1.8315    -0.1032 C.ar    
   5 C5            -1.3551     2.6817    -0.8179 C.ar    
   6 C6            -0.7303     2.2295    -1.9727 C.ar    
   7 C7            -0.9347     0.9340    -2.4051 C.ar    
   8 N8            -1.1453     3.9938    -0.3749 N.am    
   9 C9             0.0874     4.3653     0.0505 C.2     
  10 C10            0.3300     5.6276     0.4876 C.2     
  11 C11           -0.6964     6.5716     0.5054 C.2     
  12 C12           -1.9660     6.1968     0.0691 C.2     
  13 C13           -2.1696     4.8678    -0.3832 C.2     
  14 O14           -3.2705     4.5157    -0.7702 O.2     
  15 C15           -3.0740     7.1637     0.0729 C.2     
  16 O16           -3.0040     8.1665     0.7582 O.2     
  17 N17           -4.1671     6.9390    -0.6829 N.am    
  18 C18           -5.2747     7.7897    -0.5823 C.ar    
  19 C19           -6.5560     7.2865    -0.7661 C.ar    
  20 C20           -7.6477     8.1259    -0.6663 C.ar    
  21 C21           -7.4650     9.4716    -0.3826 C.ar    
  22 C22           -6.1852     9.9750    -0.1993 C.ar    
  23 C23           -5.0928     9.1357    -0.2931 C.ar    
  24 O24           -8.5406    10.2975    -0.2845 O.3     
  25 C25           -9.2857    10.2403     0.8462 C.ar    
  26 N26           -8.9040     9.4791     1.8678 N.ar    
  27 C27           -9.6223     9.4175     2.9708 C.ar    
  28 N28          -10.7404    10.0997     3.1120 N.ar    
  29 C29          -11.1894    10.8839     2.1353 C.ar    
  30 C30          -10.4570    10.9809     0.9569 C.ar    
  31 O31          -12.3398    11.5814     2.2885 O.3     
  32 N32          -12.9696    11.3856     3.5415 N.pl3   
  33 N33          -12.5414    10.6289     4.4921 N.2     
  34 N34          -13.3266    10.6529     5.5113 N.2     
  35 C35          -14.3615    11.4749     5.2536 C.ar    
  36 C36          -14.1358    11.9726     3.9545 C.ar    
  37 C37          -15.0435    12.8623     3.3907 C.ar    
  38 C38          -16.1462    13.2465     4.1007 C.ar    
  39 C39          -16.3719    12.7578     5.3820 C.ar    
  40 C40          -15.4947    11.8868     5.9608 C.ar    
  41 H41           -3.0431    -0.1230     0.0134 H       
  42 H42           -2.6759     2.1815     0.7949 H       
  43 H43           -0.0816     2.8891    -2.5299 H       
  44 H44           -0.4489     0.5819    -3.3031 H       
  45 H45            0.8910     3.6438     0.0418 H       
  46 H46            1.3197     5.9011     0.8225 H       
  47 H47           -0.5104     7.5774     0.8521 H       
  48 H48           -4.1865     6.1880    -1.2965 H       
  49 H49           -6.6983     6.2391    -0.9874 H       
  50 H50           -8.6442     7.7348    -0.8096 H       
  51 H51           -6.0436    11.0227     0.0212 H       
  52 H52           -4.0966     9.5277    -0.1505 H       
  53 H53           -9.2849     8.7895     3.7821 H       
  54 H54          -10.7941    11.6086     0.1453 H       
  55 H55          -14.8776    13.2485     2.3959 H       
  56 H56          -16.8499    13.9379     3.6612 H       
  57 H57          -17.2492    13.0734     5.9271 H       
  58 H58          -15.6788    11.5125     6.9570 H       
@<TRIPOS>BOND
   1    1    2 1
   2    2    3 ar
   3    2    7 ar
   4    3    4 ar
   5    3   41 1
   6    4    5 ar
   7    4   42 1
   8    5    6 ar
   9    5    8 1
  10    6    7 ar
  11    6   43 1
  12    7   44 1
  13    8    9 1
  14    8   13 am
  15    9   10 2
  16    9   45 1
  17   10   11 1
  18   10   46 1
  19   11   12 2
  20   11   47 1
  21   12   13 1
  22   12   15 1
  23   13   14 2
  24   15   16 2
  25   15   17 am
  26   17   18 1
  27   17   48 1
  28   18   19 ar
  29   18   23 ar
  30   19   20 ar
  31   19   49 1
  32   20   21 ar
  33   20   50 1
  34   21   22 ar
  35   21   24 1
  36   22   23 ar
  37   22   51 1
  38   23   52 1
  39   24   25 1
  40   25   26 ar
  41   25   30 ar
  42   26   27 ar
  43   27   28 ar
  44   27   53 1
  45   28   29 ar
  46   29   30 ar
  47   29   31 1
  48   30   54 1
  49   31   32 1
  50   32   33 1
  51   32   36 1
  52   33   34 2
  53   34   35 1
  54   35   36 ar
  55   35   40 ar
  56   36   37 ar
  57   37   38 ar
  58   37   55 1
  59   38   39 ar
  60   38   56 1
  61   39   40 ar
  62   39   57 1
  63   40   58 1

#	End of record

