#	Name: ASD01410920
#	Creating user name:	WinNT
#	Creation time:	15. 06. 2019 19:18

#	Modifying user name:	WinNT
#	Modification time:	15. 06. 2019 19:18

#	Program:	/corina/corina34_cracker 3.40 0067  02.08.2006

@<TRIPOS>MOLECULE
ASD01410920
  77   80    0    0    0
SMALL
NO_CHARGES


@<TRIPOS>ATOM
   1 C1            -0.4932     2.3702    -0.3493 C.ar    
   2 C2            -1.4695     0.2007    -0.7170 C.ar    
   3 C3            -2.6580     0.6351    -0.1489 C.ar    
   4 C4            -2.7607     1.9489     0.3348 C.ar    
   5 C5            -1.6687     2.8149     0.2239 C.ar    
   6 O6             0.5712     3.2107    -0.4522 O.3     
   7 C7             0.7824     3.8282    -1.6415 C.ar    
   8 N8            -3.7434    -0.2339    -0.0484 N.am    
   9 C9            -3.9585    -0.9139     1.0952 C.2     
  10 C10           -3.0974    -0.6484     2.3031 C.3     
  11 O11           -4.8451    -1.7395     1.1521 O.2     
  12 C12           -3.8627    -1.0359     3.5701 C.3     
  13 C13           -0.9412    -1.2085     3.4342 C.3     
  14 C14           -1.7064    -1.5960     4.7011 C.3     
  15 C15           -2.9884    -0.7663     4.7964 C.3     
  16 C16           -0.8322    -1.3264     5.9275 C.3     
  17 N17           -0.0980     3.6864    -2.6189 N.ar    
  18 C18           -4.6503    -0.4079    -1.1857 C.3     
  19 C19           -4.5431     0.8040    -2.1135 C.3     
  20 C20            1.9179     4.6080    -1.8196 C.ar    
  21 C21            2.1214     5.2331    -3.0377 C.ar    
  22 C22            1.1770     5.0549    -4.0391 C.ar    
  23 C23            0.0686     4.2696    -3.7905 C.ar    
  24 C24           -1.8154    -1.4780     2.2078 C.3     
  25 C25            1.3562     5.7162    -5.3813 C.3     
  26 C26           -0.3928     1.0623    -0.8168 C.ar    
  27 F27            0.7623     0.6334    -1.3711 F       
  28 N28            2.1042     4.8232    -6.2698 N.pl3   
  29 N29            1.5690     3.9484    -7.0457 N.2     
  30 C30           -4.2672    -1.6741    -1.9544 C.3     
  31 C31           -4.1354    -4.0582    -1.7450 C.3     
  32 O32           -4.4655    -2.8166    -1.1193 O.3     
  33 O33           -5.0291     1.9656    -1.4379 O.3     
  34 C34           -4.9728     3.1597    -2.2209 C.3     
  35 C35            2.5229     3.3242    -7.6987 C.2     
  36 C36            3.7215     3.8910    -7.2594 C.2     
  37 N37            3.3850     4.8111    -6.3840 N.2     
  38 C38           -4.0187     2.4184     0.9394 C.2     
  39 O39           -4.9882     1.6862     0.9708 O.2     
  40 O40           -4.0950     3.6601     1.4579 O.3     
  41 C41            2.9149     4.7718    -0.7014 C.3     
  42 F42            3.9613     5.5972    -1.1268 F       
  43 F43            2.2840     5.3513     0.4047 F       
  44 F44            3.4248     3.5190    -0.3441 F       
  45 H45           -1.3877    -0.8097    -1.0896 H       
  46 H46           -1.7440     3.8296     0.5860 H       
  47 H47           -2.8428     0.4107     2.3421 H       
  48 H48           -4.7760    -0.4448     3.6379 H       
  49 H49           -4.1173    -2.0950     3.5311 H       
  50 H50           -0.6865    -0.1494     3.4731 H       
  51 H51           -0.0279    -1.7995     3.3663 H       
  52 H52           -1.9611    -2.6551     4.6622 H       
  53 H53           -2.7338     0.2928     4.8354 H       
  54 H54           -3.5336    -1.0424     5.6990 H       
  55 H55           -0.5775    -0.2673     5.9664 H       
  56 H56           -1.3774    -1.6024     6.8301 H       
  57 H57            0.0811    -1.9174     5.8596 H       
  58 H58           -5.6743    -0.4986    -0.8234 H       
  59 H59           -3.5007     0.9561    -2.3936 H       
  60 H60           -5.1383     0.6293    -3.0097 H       
  61 H61            2.9949     5.8458    -3.2050 H       
  62 H62           -0.6692     4.1277    -4.5663 H       
  63 H63           -2.0701    -2.5371     2.1689 H       
  64 H64           -1.2703    -1.2020     1.3052 H       
  65 H65            0.3791     5.9264    -5.8161 H       
  66 H66            1.9065     6.6488    -5.2563 H       
  67 H67           -4.8908    -1.7617    -2.8441 H       
  68 H68           -3.2194    -1.6171    -2.2493 H       
  69 H69           -3.0849    -4.0506    -2.0356 H       
  70 H70           -4.3132    -4.8757    -1.0463 H       
  71 H71           -4.7563    -4.1953    -2.6303 H       
  72 H72           -5.3592     3.9954    -1.6374 H       
  73 H73           -3.9394     3.3606    -2.5032 H       
  74 H74           -5.5770     3.0338    -3.1194 H       
  75 H75            2.4046     2.5345    -8.4259 H       
  76 H76            4.7200     3.6296    -7.5775 H       
  77 H77           -4.9416     3.9234     1.8439 H       
@<TRIPOS>BOND
   1    1   26 ar
   2    1    6 1
   3    1    5 ar
   4    2    3 ar
   5    2   26 ar
   6    2   45 1
   7    3    4 ar
   8    3    8 1
   9    4    5 ar
  10    4   38 1
  11    5   46 1
  12    6    7 1
  13    7   20 ar
  14    7   17 ar
  15    8    9 am
  16    8   18 1
  17    9   11 2
  18    9   10 1
  19   10   12 1
  20   10   24 1
  21   10   47 1
  22   12   15 1
  23   12   48 1
  24   12   49 1
  25   13   14 1
  26   13   24 1
  27   13   50 1
  28   13   51 1
  29   14   15 1
  30   14   16 1
  31   14   52 1
  32   15   53 1
  33   15   54 1
  34   16   55 1
  35   16   56 1
  36   16   57 1
  37   17   23 ar
  38   18   19 1
  39   18   30 1
  40   18   58 1
  41   19   33 1
  42   19   59 1
  43   19   60 1
  44   20   21 ar
  45   20   41 1
  46   21   22 ar
  47   21   61 1
  48   22   23 ar
  49   22   25 1
  50   23   62 1
  51   24   63 1
  52   24   64 1
  53   25   28 1
  54   25   65 1
  55   25   66 1
  56   26   27 1
  57   28   29 1
  58   28   37 1
  59   29   35 2
  60   30   32 1
  61   30   67 1
  62   30   68 1
  63   31   32 1
  64   31   69 1
  65   31   70 1
  66   31   71 1
  67   33   34 1
  68   34   72 1
  69   34   73 1
  70   34   74 1
  71   35   36 1
  72   35   75 1
  73   36   37 2
  74   36   76 1
  75   38   39 2
  76   38   40 1
  77   40   77 1
  78   41   42 1
  79   41   43 1
  80   41   44 1

#	End of record

