#	Name: ASD01911459
#	Creating user name:	WinNT
#	Creation time:	15. 06. 2019 19:57

#	Modifying user name:	WinNT
#	Modification time:	15. 06. 2019 19:57

#	Program:	/corina/corina34_cracker 3.40 0067  02.08.2006

@<TRIPOS>MOLECULE
ASD01911459
  47   48    0    0    0
SMALL
NO_CHARGES


@<TRIPOS>ATOM
   1 C1             0.2417     1.5977    -0.2178 C.3     
   2 C2            -0.5819     2.4831     0.6814 C.2     
   3 C3            -2.0867     2.4242     0.6240 C.3     
   4 C4            -2.6747     3.4154     1.6302 C.3     
   5 O5            -0.0362     3.2399     1.4480 O.2     
   6 C6            -2.5579     2.7881    -0.7854 C.3     
   7 C7            -2.5552     1.0091     0.9688 C.3     
   8 N8             1.6670     1.7792     0.0884 N.3     
   9 C9             2.0993     3.1507    -0.2113 C.3     
  10 C10            2.0186     3.3896    -1.6970 C.ar    
  11 C11            0.8537     3.8816    -2.2557 C.ar    
  12 C12            0.7797     4.1007    -3.6185 C.ar    
  13 C13            1.8706     3.8283    -4.4227 C.ar    
  14 C14            3.0357     3.3372    -3.8639 C.ar    
  15 C15            3.1112     3.1222    -2.5005 C.ar    
  16 C16            1.9537     1.4303     1.4862 C.3     
  17 C17            1.7989    -0.0568     1.6747 C.ar    
  18 C18            2.8532    -0.9034     1.3875 C.ar    
  19 C19            2.7113    -2.2675     1.5603 C.ar    
  20 C20            1.5151    -2.7850     2.0209 C.ar    
  21 C21            0.4610    -1.9384     2.3091 C.ar    
  22 C22            0.6044    -0.5739     2.1403 C.ar    
  23 H23           -0.0352     0.5562    -0.0548 H       
  24 H24            0.0569     1.8642    -1.2585 H       
  25 H25           -2.3410     4.4236     1.3845 H       
  26 H26           -3.7631     3.3728     1.5886 H       
  27 H27           -2.3390     3.1562     2.6343 H       
  28 H28           -2.1390     2.0819    -1.5023 H       
  29 H29           -3.6463     2.7455    -0.8270 H       
  30 H30           -2.2242     3.7963    -1.0311 H       
  31 H31           -2.2195     0.7498     1.9729 H       
  32 H32           -3.6435     0.9664     0.9273 H       
  33 H33           -2.1362     0.3029     0.2520 H       
  34 H34            1.4505     3.8574     0.3062 H       
  35 H35            3.1274     3.2890     0.1236 H       
  36 H36            0.0015     4.0944    -1.6274 H       
  37 H37           -0.1306     4.4843    -4.0551 H       
  38 H38            1.8124     3.9988    -5.4875 H       
  39 H39            3.8879     3.1241    -4.4922 H       
  40 H40            4.0227     2.7420    -2.0634 H       
  41 H41            2.9744     1.7234     1.7318 H       
  42 H42            1.2576     1.9540     2.1415 H       
  43 H43            3.7878    -0.4991     1.0276 H       
  44 H44            3.5348    -2.9290     1.3352 H       
  45 H45            1.4039    -3.8509     2.1553 H       
  46 H46           -0.4737    -2.3428     2.6686 H       
  47 H47           -0.2179     0.0879     2.3690 H       
@<TRIPOS>BOND
   1    1    2 1
   2    1    8 1
   3    1   23 1
   4    1   24 1
   5    2    3 1
   6    2    5 2
   7    3    4 1
   8    3    6 1
   9    3    7 1
  10    4   25 1
  11    4   26 1
  12    4   27 1
  13    6   28 1
  14    6   29 1
  15    6   30 1
  16    7   31 1
  17    7   32 1
  18    7   33 1
  19    8    9 1
  20    8   16 1
  21    9   10 1
  22    9   34 1
  23    9   35 1
  24   10   11 ar
  25   10   15 ar
  26   11   12 ar
  27   11   36 1
  28   12   13 ar
  29   12   37 1
  30   13   14 ar
  31   13   38 1
  32   14   15 ar
  33   14   39 1
  34   15   40 1
  35   16   17 1
  36   16   41 1
  37   16   42 1
  38   17   18 ar
  39   17   22 ar
  40   18   19 ar
  41   18   43 1
  42   19   20 ar
  43   19   44 1
  44   20   21 ar
  45   20   45 1
  46   21   22 ar
  47   21   46 1
  48   22   47 1

#	End of record

