#	Name: ASD01915394
#	Creating user name:	WinNT
#	Creation time:	15. 06. 2019 20:05

#	Modifying user name:	WinNT
#	Modification time:	15. 06. 2019 20:05

#	Program:	/corina/corina34_cracker 3.40 0067  02.08.2006

@<TRIPOS>MOLECULE
ASD01915394
  45   48    0    0    0
SMALL
NO_CHARGES


@<TRIPOS>ATOM
   1 C1             0.0044     1.3482    -0.0738 C.ar    
   2 C2             0.0431    -0.0438    -0.1039 C.ar    
   3 N3             1.2040    -0.6862    -0.1060 N.ar    
   4 C4             2.3513    -0.0394    -0.0799 C.ar    
   5 C5             2.3865     1.3428    -0.0487 C.ar    
   6 C6             1.1952     2.0538    -0.0459 C.ar    
   7 C7             3.7063     2.0696    -0.0181 C.3     
   8 N8             4.7720     1.1530     0.4131 N.am    
   9 C9             5.7598     1.0317    -0.6745 C.3     
  10 C10            5.6026     2.3330    -1.5001 C.3     
  11 C11            4.0689     2.5591    -1.4360 C.3     
  12 C12            4.8356     0.5280     1.6054 C.2     
  13 O13            4.0180     0.7814     2.4693 O.2     
  14 C14            5.8952    -0.4619     1.8621 C.2     
  15 C15           -1.2242    -0.8145    -0.1335 C.ar    
  16 C16           -1.1949    -2.2071    -0.1637 C.ar    
  17 C17           -2.3782    -2.9196    -0.1907 C.ar    
  18 C18           -3.5907    -2.2518    -0.1877 C.ar    
  19 C19           -3.6244    -0.8693    -0.1581 C.ar    
  20 C20           -2.4483    -0.1481    -0.1252 C.ar    
  21 Cl21          -2.3445    -4.6548    -0.2290 Cl      
  22 C22            1.1973     3.5605    -0.0124 C.3     
  23 N23            6.1290    -1.0436     3.0073 N.2     
  24 C24            7.1205    -1.8951     3.0234 C.2     
  25 C25            7.7681    -2.0592     1.8592 C.2     
  26 S26            7.0481    -1.0592     0.6725 S.3     
  27 O27            6.3060     3.4159    -0.8882 O.3     
  28 H28           -0.9413     1.8699    -0.0766 H       
  29 H29            3.2768    -0.5959    -0.0825 H       
  30 H30            3.6470     2.9167     0.6652 H       
  31 H31            6.7677     0.9614    -0.2654 H       
  32 H32            5.5388     0.1614    -1.2924 H       
  33 H33            5.9331     2.1857    -2.5283 H       
  34 H34            3.5591     1.9622    -2.1922 H       
  35 H35            3.8298     3.6162    -1.5519 H       
  36 H36           -0.2491    -2.7285    -0.1664 H       
  37 H37           -4.5137    -2.8122    -0.2088 H       
  38 H38           -4.5732    -0.3533    -0.1566 H       
  39 H39           -2.4763     0.9313    -0.1022 H       
  40 H40            1.2091     3.9466    -1.0316 H       
  41 H41            0.3023     3.9137     0.4997 H       
  42 H42            2.0821     3.9108     0.5191 H       
  43 H43            7.4013    -2.4324     3.9172 H       
  44 H44            8.6067    -2.7201     1.6965 H       
  45 H45            7.2600     3.2750    -0.8171 H       
@<TRIPOS>BOND
   1    1    2 ar
   2    1    6 ar
   3    1   28 1
   4    2    3 ar
   5    2   15 1
   6    3    4 ar
   7    4    5 ar
   8    4   29 1
   9    5    6 ar
  10    5    7 1
  11    6   22 1
  12    7    8 1
  13    7   11 1
  14    7   30 1
  15    8    9 1
  16    8   12 am
  17    9   10 1
  18    9   31 1
  19    9   32 1
  20   10   11 1
  21   10   27 1
  22   10   33 1
  23   11   34 1
  24   11   35 1
  25   12   13 2
  26   12   14 1
  27   14   23 2
  28   14   26 1
  29   15   16 ar
  30   15   20 ar
  31   16   17 ar
  32   16   36 1
  33   17   18 ar
  34   17   21 1
  35   18   19 ar
  36   18   37 1
  37   19   20 ar
  38   19   38 1
  39   20   39 1
  40   22   40 1
  41   22   41 1
  42   22   42 1
  43   23   24 1
  44   24   25 2
  45   24   43 1
  46   25   26 1
  47   25   44 1
  48   27   45 1

#	End of record

