#	Name: ASD02198319
#	Creating user name:	WinNT
#	Creation time:	15. 06. 2019 20:19

#	Modifying user name:	WinNT
#	Modification time:	15. 06. 2019 20:19

#	Program:	/corina/corina34_cracker 3.40 0067  02.08.2006

@<TRIPOS>MOLECULE
ASD02198319
  46   49    0    0    0
SMALL
NO_CHARGES


@<TRIPOS>ATOM
   1 C1            -0.3917     1.5339    -0.2746 C.2     
   2 C2            -0.3421     0.1528    -0.3038 C.2     
   3 S3             1.2364     2.1346    -0.5785 S.3     
   4 C4             1.8196     0.5342    -0.7133 C.2     
   5 N5             0.8571    -0.3253    -0.5408 N.2     
   6 N6            -1.4531    -0.6508    -0.1016 N.pl3   
   7 C7            -1.5384     2.3195    -0.0487 C.2     
   8 C8            -1.4150     3.7868     0.0825 C.ar    
   9 O9            -2.6332     1.7894     0.0388 O.2     
  10 N10            3.1308     0.1988    -0.9697 N.pl3   
  11 C11           -2.4818     4.6139    -0.2763 C.ar    
  12 C12           -0.2335     4.3491     0.5709 C.ar    
  13 C13           -0.1221     5.7166     0.6917 C.ar    
  14 C14           -1.1839     6.5368     0.3287 C.ar    
  15 C15           -2.3631     5.9806    -0.1528 C.ar    
  16 O16           -1.0708     7.8841     0.4495 O.3     
  17 C17           -0.3921     8.5564    -0.5168 C.ar    
  18 C18            0.2083     7.8608    -1.5566 C.ar    
  19 C19            0.8976     8.5468    -2.5376 C.ar    
  20 C20            0.9897     9.9254    -2.4842 C.ar    
  21 C21            0.3927    10.6210    -1.4490 C.ar    
  22 C22           -0.3031     9.9403    -0.4687 C.ar    
  23 C23            3.5256    -1.1423    -0.9525 C.ar    
  24 C24            4.5539    -1.5728    -1.7764 C.ar    
  25 C25            4.9439    -2.9124    -1.7554 C.ar    
  26 C26            4.2956    -3.8100    -0.9045 C.ar    
  27 C27            3.2730    -3.3710    -0.0881 C.ar    
  28 C28            2.8905    -2.0430    -0.1048 C.ar    
  29 C29            6.0050    -3.3652    -2.6037 C.1     
  30 N30            6.8467    -3.7244    -3.2768 N.1     
  31 H31           -2.3184    -0.2476     0.0705 H       
  32 H32           -1.3653    -1.6163    -0.1323 H       
  33 H33            3.7803     0.8931    -1.1622 H       
  34 H34           -3.3984     4.1824    -0.6505 H       
  35 H35            0.5917     3.7124     0.8539 H       
  36 H36            0.7912     6.1522     1.0693 H       
  37 H37           -3.1860     6.6210    -0.4343 H       
  38 H38            0.1370     6.7840    -1.5985 H       
  39 H39            1.3654     8.0058    -3.3468 H       
  40 H40            1.5291    10.4598    -3.2522 H       
  41 H41            0.4666    11.6977    -1.4092 H       
  42 H42           -0.7695    10.4841     0.3395 H       
  43 H43            5.0512    -0.8739    -2.4326 H       
  44 H44            4.5942    -4.8477    -0.8854 H       
  45 H45            2.7728    -4.0668     0.5693 H       
  46 H46            2.0896    -1.7056     0.5363 H       
@<TRIPOS>BOND
   1    1    2 2
   2    1    3 1
   3    1    7 1
   4    2    6 1
   5    2    5 1
   6    3    4 1
   7    4    5 2
   8    4   10 1
   9    6   31 1
  10    6   32 1
  11    7    8 1
  12    7    9 2
  13    8   11 ar
  14    8   12 ar
  15   10   23 1
  16   10   33 1
  17   11   15 ar
  18   11   34 1
  19   12   13 ar
  20   12   35 1
  21   13   14 ar
  22   13   36 1
  23   14   15 ar
  24   14   16 1
  25   15   37 1
  26   16   17 1
  27   17   18 ar
  28   17   22 ar
  29   18   19 ar
  30   18   38 1
  31   19   20 ar
  32   19   39 1
  33   20   21 ar
  34   20   40 1
  35   21   22 ar
  36   21   41 1
  37   22   42 1
  38   23   24 ar
  39   23   28 ar
  40   24   25 ar
  41   24   43 1
  42   25   26 ar
  43   25   29 1
  44   26   27 ar
  45   26   44 1
  46   27   28 ar
  47   27   45 1
  48   28   46 1
  49   29   30 3

#	End of record

