#	Name: ASD00170471
#	Creating user name:	WinNT
#	Creation time:	15. 06. 2019 18:32

#	Modifying user name:	WinNT
#	Modification time:	15. 06. 2019 18:32

#	Program:	/corina/corina34_cracker 3.40 0067  02.08.2006

@<TRIPOS>MOLECULE
ASD00170471
  46   49    0    0    0
SMALL
NO_CHARGES


@<TRIPOS>ATOM
   1 C1            -0.0277     1.3895    -0.0166 C.ar    
   2 C2            -0.0015    -0.0103    -0.0083 C.ar    
   3 C3            -1.1922    -0.7252     0.0049 C.ar    
   4 C4            -2.3964    -0.0562     0.0098 C.ar    
   5 C5            -2.4347     1.3349     0.0016 C.ar    
   6 C6            -1.2457     2.0610    -0.0058 C.ar    
   7 C7            -3.8278    -0.5297     0.0238 C.3     
   8 C8            -4.6728     0.7255     0.0228 C.2     
   9 C9            -3.8583     1.7972     0.0099 C.2     
  10 S10           -6.3493     1.2709     0.0325 S.3     
  11 C11           -5.8065     2.9440     0.0181 C.2     
  12 N12           -4.5167     2.9773     0.0082 N.2     
  13 N13           -6.6354     4.0542     0.0170 N.pl3   
  14 N14            1.2213    -0.6874    -0.0137 N.am    
  15 C15            1.3482    -1.8547     0.6479 C.2     
  16 O16            0.4346    -2.2671     1.3308 O.2     
  17 C17            2.6252    -2.6474     0.5393 C.3     
  18 C18            1.2421     2.1556    -0.0307 C.ar    
  19 C19            2.2470     1.8578     0.8876 C.ar    
  20 C20            3.4287     2.5713     0.8739 C.ar    
  21 C21            3.6185     3.5852    -0.0522 C.ar    
  22 C22            2.6173     3.8875    -0.9722 C.ar    
  23 C23            1.4345     3.1710    -0.9666 C.ar    
  24 O24            4.7837     4.2860    -0.0621 O.3     
  25 C25            5.7670     3.9237     0.9094 C.3     
  26 O26            2.8054     4.8829    -1.8795 O.3     
  27 C27            1.7365     5.1386    -2.7929 C.3     
  28 H28           -1.1740    -1.8050     0.0110 H       
  29 H29           -1.2697     3.1407    -0.0121 H       
  30 H30           -4.0363    -1.1249    -0.8652 H       
  31 H31           -4.0224    -1.1140     0.9232 H       
  32 H32           -7.5987     3.9402     0.0246 H       
  33 H33           -6.2525     4.9454     0.0087 H       
  34 H34            1.9786    -0.3171    -0.4937 H       
  35 H35            3.3242    -2.1229    -0.1123 H       
  36 H36            3.0672    -2.7619     1.5290 H       
  37 H37            2.4080    -3.6308     0.1224 H       
  38 H38            2.1011     1.0688     1.6105 H       
  39 H39            4.2066     2.3394     1.5862 H       
  40 H40            0.6574     3.4040    -1.6795 H       
  41 H41            6.6451     4.5588     0.7919 H       
  42 H42            5.3549     4.0549     1.9099 H       
  43 H43            6.0511     2.8810     0.7673 H       
  44 H44            1.5372     4.2416    -3.3792 H       
  45 H45            0.8411     5.4151    -2.2361 H       
  46 H46            2.0159     5.9541    -3.4600 H       
@<TRIPOS>BOND
   1    1    2 ar
   2    1   18 1
   3    1    6 ar
   4    2    3 ar
   5    2   14 1
   6    3    4 ar
   7    3   28 1
   8    4    5 ar
   9    4    7 1
  10    5    6 ar
  11    5    9 1
  12    6   29 1
  13    7    8 1
  14    7   30 1
  15    7   31 1
  16    8    9 2
  17    8   10 1
  18    9   12 1
  19   10   11 1
  20   11   12 2
  21   11   13 1
  22   13   32 1
  23   13   33 1
  24   14   15 am
  25   14   34 1
  26   15   16 2
  27   15   17 1
  28   17   35 1
  29   17   36 1
  30   17   37 1
  31   18   19 ar
  32   18   23 ar
  33   19   20 ar
  34   19   38 1
  35   20   21 ar
  36   20   39 1
  37   21   22 ar
  38   21   24 1
  39   22   23 ar
  40   22   26 1
  41   23   40 1
  42   24   25 1
  43   25   41 1
  44   25   42 1
  45   25   43 1
  46   26   27 1
  47   27   44 1
  48   27   45 1
  49   27   46 1

#	End of record

