#	Name: ASD01916303
#	Creating user name:	WinNT
#	Creation time:	15. 06. 2019 20:07

#	Modifying user name:	WinNT
#	Modification time:	15. 06. 2019 20:07

#	Program:	/corina/corina34_cracker 3.40 0067  02.08.2006

@<TRIPOS>MOLECULE
ASD01916303
  46   47    0    0    0
SMALL
NO_CHARGES


@<TRIPOS>ATOM
   1 C1             0.0996     1.3199    -1.5347 C.ar    
   2 C2             0.0788     0.0121    -1.0766 C.ar    
   3 C3             1.2634    -0.6542    -0.8282 C.ar    
   4 C4             2.4827    -0.0057    -1.0405 C.ar    
   5 C5             2.4942     1.3135    -1.5031 C.ar    
   6 C6             1.3044     1.9666    -1.7465 C.ar    
   7 F7            -1.1017    -0.6122    -0.8723 F       
   8 C8             3.7149    -0.6891    -0.7849 C.1     
   9 C9             4.7251    -1.2493    -0.5754 C.1     
  10 C10            5.9573    -1.9327    -0.3198 C.ar    
  11 N11            7.1127    -1.3044    -0.5258 N.ar    
  12 C12            8.2666    -1.8941    -0.3037 C.ar    
  13 C13            8.3146    -3.2113     0.1600 C.ar    
  14 C14            7.1137    -3.9003     0.3868 C.ar    
  15 C15            5.9322    -3.2509     0.1490 C.ar    
  16 C16            9.6123    -3.8697     0.4076 C.2     
  17 O17           10.6442    -3.2332     0.3160 O.2     
  18 N18            9.6533    -5.1763     0.7353 N.am    
  19 C19           10.9413    -5.8298     0.9811 C.3     
  20 C20           10.7339    -7.0373     1.8975 C.3     
  21 O21            9.9366    -8.0142     1.2252 O.3     
  22 C22           12.0916    -7.6454     2.2550 C.3     
  23 C23           10.0225    -6.5908     3.1763 C.3     
  24 C24           11.5390    -6.2951    -0.3482 C.3     
  25 C25            9.5491    -1.1428    -0.5518 C.3     
  26 H26           -0.8289     1.8352    -1.7315 H       
  27 H27            1.2469    -1.6731    -0.4706 H       
  28 H28            3.4333     1.8205    -1.6689 H       
  29 H29            1.3129     2.9856    -2.1042 H       
  30 H30            7.1211    -4.9192     0.7447 H       
  31 H31            4.9906    -3.7535     0.3141 H       
  32 H32            8.8301    -5.6841     0.8085 H       
  33 H33           11.6215    -5.1242     1.4581 H       
  34 H34            9.0599    -7.6971     0.9682 H       
  35 H35           12.6998    -6.9003     2.7678 H       
  36 H36           11.9438    -8.5057     2.9078 H       
  37 H37           12.5984    -7.9635     1.3439 H       
  38 H38            9.0552    -6.1575     2.9217 H       
  39 H39            9.8747    -7.4510     3.8292 H       
  40 H40           10.6307    -5.8456     3.6892 H       
  41 H41           10.8587    -7.0007    -0.8253 H       
  42 H42           11.6867    -5.4349    -1.0011 H       
  43 H43           12.4972    -6.7813    -0.1654 H       
  44 H44            9.9099    -0.7201     0.3859 H       
  45 H45           10.2978    -1.8250    -0.9547 H       
  46 H46            9.3674    -0.3398    -1.2662 H       
@<TRIPOS>BOND
   1    1    2 ar
   2    1    6 ar
   3    1   26 1
   4    2    3 ar
   5    2    7 1
   6    3    4 ar
   7    3   27 1
   8    4    5 ar
   9    4    8 1
  10    5    6 ar
  11    5   28 1
  12    6   29 1
  13    8    9 3
  14    9   10 1
  15   10   11 ar
  16   10   15 ar
  17   11   12 ar
  18   12   13 ar
  19   12   25 1
  20   13   14 ar
  21   13   16 1
  22   14   15 ar
  23   14   30 1
  24   15   31 1
  25   16   17 2
  26   16   18 am
  27   18   19 1
  28   18   32 1
  29   19   20 1
  30   19   24 1
  31   19   33 1
  32   20   21 1
  33   20   22 1
  34   20   23 1
  35   21   34 1
  36   22   35 1
  37   22   36 1
  38   22   37 1
  39   23   38 1
  40   23   39 1
  41   23   40 1
  42   24   41 1
  43   24   42 1
  44   24   43 1
  45   25   44 1
  46   25   45 1
  47   25   46 1

#	End of record

