#	Name: ASD03430214
#	Creating user name:	WinNT
#	Creation time:	15. 06. 2019 20:40

#	Modifying user name:	WinNT
#	Modification time:	15. 06. 2019 20:40

#	Program:	/corina/corina34_cracker 3.40 0067  02.08.2006

@<TRIPOS>MOLECULE
ASD03430214
  65   71    0    0    0
SMALL
NO_CHARGES


@<TRIPOS>ATOM
   1 C1            -0.0120     1.3083     0.2216 C.ar    
   2 C2             0.0016    -0.0684     0.1831 C.ar    
   3 C3             1.2012    -0.7488     0.1747 C.ar    
   4 C4             2.4059    -0.0514     0.2137 C.ar    
   5 C5             2.3835     1.3380     0.2419 C.ar    
   6 C6             1.1771     2.0277     0.2430 C.ar    
   7 O7             3.4684    -0.9054     0.2313 O.3     
   8 C8             1.5519    -2.2108     0.1160 C.3     
   9 C9             3.0461    -2.2003    -0.2368 C.3     
  10 C10            0.4114    -3.9528     1.1088 C.ar    
  11 C11            1.2895    -2.9157     1.4139 C.ar    
  12 C12            0.7426    -2.9511    -0.9095 C.2     
  13 N13            0.1124    -3.9473    -0.2555 N.am    
  14 O14            0.6701    -2.7016    -2.0942 O.2     
  15 C15            1.7260    -2.7249     2.7055 C.ar    
  16 C16            1.2938    -3.5668     3.7152 C.ar    
  17 C17            0.4217    -4.5995     3.4238 C.ar    
  18 C18           -0.0190    -4.7948     2.1313 C.ar    
  19 C19           -0.7815    -4.9121    -0.9007 C.3     
  20 C20           -1.1433     2.3169     0.2582 C.3     
  21 C21           -0.4082     3.6068     0.6933 C.3     
  22 O22            0.9393     3.3690     0.2522 O.3     
  23 C23           -2.2068    -4.4393    -0.7736 C.ar    
  24 C24           -3.2373    -5.1496    -1.3921 C.ar    
  25 C25           -2.9347    -6.3676    -2.1730 C.2     
  26 O26           -1.7801    -6.7009    -2.3563 O.2     
  27 C27           -2.4967    -3.3070    -0.0412 C.ar    
  28 C28           -3.8049    -2.8714     0.0764 C.ar    
  29 C29           -4.8301    -3.5674    -0.5386 C.ar    
  30 C30           -4.5545    -4.7048    -1.2694 C.ar    
  31 N31           -3.9389    -7.1086    -2.6819 N.am    
  32 C32           -3.6591    -8.3244    -3.3181 C.ar    
  33 C33           -2.6087    -9.1155    -2.8757 C.ar    
  34 C34           -2.3349   -10.3150    -3.5049 C.ar    
  35 C35           -4.4384    -8.7456    -4.3934 C.ar    
  36 C36           -4.1572    -9.9495    -5.0187 C.ar    
  37 C37           -3.1056   -10.7299    -4.5755 C.ar    
  38 O38           -5.4727    -7.9772    -4.8279 O.3     
  39 C39           -6.2282    -8.4722    -5.9352 C.3     
  40 H40           -0.9289    -0.6162     0.1597 H       
  41 H41            3.3132     1.8871     0.2638 H       
  42 H42            3.1902    -2.2885    -1.3136 H       
  43 H43            3.5742    -2.9940     0.2917 H       
  44 H44            2.4068    -1.9175     2.9309 H       
  45 H45            1.6371    -3.4178     4.7282 H       
  46 H46            0.0842    -5.2565     4.2118 H       
  47 H47           -0.7000    -5.6037     1.9114 H       
  48 H48           -0.5206    -5.0002    -1.9553 H       
  49 H49           -0.6766    -5.8838    -0.4180 H       
  50 H50           -1.5899     2.4372    -0.7288 H       
  51 H51           -1.8963     2.0311     0.9927 H       
  52 H52           -0.8300     4.4789     0.1937 H       
  53 H53           -0.4448     3.7255     1.7762 H       
  54 H54           -1.7010    -2.7592     0.4417 H       
  55 H55           -4.0266    -1.9844     0.6513 H       
  56 H56           -5.8490    -3.2222    -0.4429 H       
  57 H57           -5.3558    -5.2471    -1.7494 H       
  58 H58           -4.8554    -6.7998    -2.6074 H       
  59 H59           -2.0050    -8.7938    -2.0401 H       
  60 H60           -1.5168   -10.9298    -3.1599 H       
  61 H61           -4.7599   -10.2787    -5.8523 H       
  62 H62           -2.8879   -11.6681    -5.0642 H       
  63 H63           -7.0208    -7.7649    -6.1796 H       
  64 H64           -5.5721    -8.5947    -6.7970 H       
  65 H65           -6.6680    -9.4347    -5.6738 H       
@<TRIPOS>BOND
   1    1    2 ar
   2    1    6 ar
   3    1   20 1
   4    2    3 ar
   5    2   40 1
   6    3    4 ar
   7    3    8 1
   8    4    5 ar
   9    4    7 1
  10    5    6 ar
  11    5   41 1
  12    6   22 1
  13    7    9 1
  14    8    9 1
  15    8   11 1
  16    8   12 1
  17    9   42 1
  18    9   43 1
  19   10   11 ar
  20   10   13 1
  21   10   18 ar
  22   11   15 ar
  23   12   13 am
  24   12   14 2
  25   13   19 1
  26   15   16 ar
  27   15   44 1
  28   16   17 ar
  29   16   45 1
  30   17   18 ar
  31   17   46 1
  32   18   47 1
  33   19   23 1
  34   19   48 1
  35   19   49 1
  36   20   21 1
  37   20   50 1
  38   20   51 1
  39   21   22 1
  40   21   52 1
  41   21   53 1
  42   23   24 ar
  43   23   27 ar
  44   24   25 1
  45   24   30 ar
  46   25   26 2
  47   25   31 am
  48   27   28 ar
  49   27   54 1
  50   28   29 ar
  51   28   55 1
  52   29   30 ar
  53   29   56 1
  54   30   57 1
  55   31   32 1
  56   31   58 1
  57   32   33 ar
  58   32   35 ar
  59   33   34 ar
  60   33   59 1
  61   34   37 ar
  62   34   60 1
  63   35   36 ar
  64   35   38 1
  65   36   37 ar
  66   36   61 1
  67   37   62 1
  68   38   39 1
  69   39   63 1
  70   39   64 1
  71   39   65 1

#	End of record

