#	Name: ASD02560234
#	Creating user name:	WinNT
#	Creation time:	15. 06. 2019 20:24

#	Modifying user name:	WinNT
#	Modification time:	15. 06. 2019 20:24

#	Program:	/corina/corina34_cracker 3.40 0067  02.08.2006

@<TRIPOS>MOLECULE
ASD02560234
  34   36    0    0    0
SMALL
NO_CHARGES


@<TRIPOS>ATOM
   1 N1            -0.0154     1.2825     0.0091 N.2     
   2 N2             0.0021    -0.0041     0.0020 N.2     
   3 C3             1.2367    -0.4196    -0.0120 C.2     
   4 O4             2.0272     0.6669    -0.0137 O.3     
   5 C5             1.2075     1.7315    -0.0002 C.2     
   6 C6             1.6260     3.1792     0.0029 C.3     
   7 C7             1.6943    -1.8554    -0.0241 C.3     
   8 C8             1.8339    -2.3262    -1.4488 C.ar    
   9 C9             3.0410    -2.1768    -2.1083 C.ar    
  10 C10            3.1757    -2.6055    -3.4125 C.ar    
  11 C11            2.0904    -3.1917    -4.0670 C.ar    
  12 C12            0.8753    -3.3398    -3.3953 C.ar    
  13 C13            0.7559    -2.9110    -2.0895 C.ar    
  14 C14            1.7798     3.6547     1.4246 C.ar    
  15 C15            3.0010     3.5404     2.0642 C.ar    
  16 C16            3.1416     3.9771     3.3695 C.ar    
  17 C17            2.0620     4.5274     4.0345 C.ar    
  18 C18            0.8414     4.6414     3.3961 C.ar    
  19 C19            0.7012     4.2107     2.0887 C.ar    
  20 Cl20          -0.8319     4.3540     1.2871 Cl      
  21 Cl21           4.3569     2.8487     1.2293 Cl      
  22 C22            2.2229    -3.6387    -5.4210 C.1     
  23 N23            2.3280    -3.9932    -6.4951 N.1     
  24 H24            2.5767     3.2837    -0.5200 H       
  25 H25            0.8668     3.7779    -0.5004 H       
  26 H26            2.6572    -1.9341     0.4805 H       
  27 H27            0.9614    -2.4747     0.4931 H       
  28 H28            3.8796    -1.7232    -1.6010 H       
  29 H29            4.1183    -2.4877    -3.9264 H       
  30 H30            0.0319    -3.7923    -3.8956 H       
  31 H31           -0.1832    -3.0252    -1.5687 H       
  32 H32            4.0949     3.8876     3.8690 H       
  33 H33            2.1722     4.8681     5.0534 H       
  34 H34           -0.0020     5.0709     3.9164 H       
@<TRIPOS>BOND
   1    1    2 1
   2    1    5 2
   3    2    3 2
   4    3    4 1
   5    3    7 1
   6    4    5 1
   7    5    6 1
   8    6   14 1
   9    6   24 1
  10    6   25 1
  11    7    8 1
  12    7   26 1
  13    7   27 1
  14    8    9 ar
  15    8   13 ar
  16    9   10 ar
  17    9   28 1
  18   10   11 ar
  19   10   29 1
  20   11   12 ar
  21   11   22 1
  22   12   13 ar
  23   12   30 1
  24   13   31 1
  25   14   15 ar
  26   14   19 ar
  27   15   16 ar
  28   15   21 1
  29   16   17 ar
  30   16   32 1
  31   17   18 ar
  32   17   33 1
  33   18   19 ar
  34   18   34 1
  35   19   20 1
  36   22   23 3

#	End of record

