#	Name: ASD01885949
#	Creating user name:	WinNT
#	Creation time:	15. 06. 2019 19:50

#	Modifying user name:	WinNT
#	Modification time:	15. 06. 2019 19:50

#	Program:	/corina/corina34_cracker 3.40 0067  02.08.2006

@<TRIPOS>MOLECULE
ASD01885949
  35   37    0    0    0
SMALL
NO_CHARGES


@<TRIPOS>ATOM
   1 C1            -0.0168     1.3890     0.0097 C.ar    
   2 C2             0.0021    -0.0041     0.0020 C.ar    
   3 C3             1.1814    -0.6871    -0.0129 C.ar    
   4 C4             2.3912     0.0185    -0.0205 C.ar    
   5 C5             2.3773     1.4364    -0.0129 C.ar    
   6 C6             1.1392     2.1066     0.0025 C.ar    
   7 C7             3.6375    -0.6579    -0.0355 C.ar    
   8 C8             4.7939     0.1107    -0.0419 C.ar    
   9 C9             4.6939     1.5063    -0.0337 C.ar    
  10 N10            3.5240     2.1169    -0.0192 N.ar    
  11 C11            5.9336     2.3198    -0.0402 C.2     
  12 N12            5.8568     3.6653    -0.0324 N.am    
  13 C13            3.7036    -2.1366    -0.0434 C.ar    
  14 C14            4.5017    -2.7961    -0.9793 C.ar    
  15 C15            4.5611    -4.1731    -0.9834 C.ar    
  16 C16            3.8280    -4.9043    -0.0576 C.ar    
  17 C17            3.0326    -4.2513     0.8753 C.ar    
  18 C18            2.9724    -2.8744     0.8887 C.ar    
  19 O19            3.8886    -6.2612    -0.0649 O.3     
  20 C20            3.1094    -6.9507     0.9147 C.3     
  21 O21            7.0188     1.7734    -0.0526 O.2     
  22 H22           -0.9642     1.9075     0.0169 H       
  23 H23           -0.9299    -0.5498     0.0083 H       
  24 H24            1.1830    -1.7671    -0.0183 H       
  25 H25            1.1072     3.1861     0.0082 H       
  26 H26            5.7634    -0.3652    -0.0529 H       
  27 H27            4.9905     4.1016    -0.0225 H       
  28 H28            6.6678     4.1975    -0.0367 H       
  29 H29            5.0717    -2.2282    -1.6996 H       
  30 H30            5.1783    -4.6841    -1.7075 H       
  31 H31            2.4636    -4.8231     1.5934 H       
  32 H32            2.3540    -2.3673     1.6145 H       
  33 H33            3.2483    -8.0255     0.7986 H       
  34 H34            3.4294    -6.6485     1.9119 H       
  35 H35            2.0562    -6.7038     0.7807 H       
@<TRIPOS>BOND
   1    1    2 ar
   2    1    6 ar
   3    1   22 1
   4    2    3 ar
   5    2   23 1
   6    3    4 ar
   7    3   24 1
   8    4    5 ar
   9    4    7 ar
  10    5    6 ar
  11    5   10 ar
  12    6   25 1
  13    7    8 ar
  14    7   13 1
  15    8    9 ar
  16    8   26 1
  17    9   10 ar
  18    9   11 1
  19   11   12 am
  20   11   21 2
  21   12   27 1
  22   12   28 1
  23   13   14 ar
  24   13   18 ar
  25   14   15 ar
  26   14   29 1
  27   15   16 ar
  28   15   30 1
  29   16   17 ar
  30   16   19 1
  31   17   18 ar
  32   17   31 1
  33   18   32 1
  34   19   20 1
  35   20   33 1
  36   20   34 1
  37   20   35 1

#	End of record

