#	Name: ASD01913800
#	Creating user name:	WinNT
#	Creation time:	15. 06. 2019 20:02

#	Modifying user name:	WinNT
#	Modification time:	15. 06. 2019 20:02

#	Program:	/corina/corina34_cracker 3.40 0067  02.08.2006

@<TRIPOS>MOLECULE
ASD01913800
  45   47    0    0    0
SMALL
NO_CHARGES


@<TRIPOS>ATOM
   1 C1             0.4454     0.5267     0.9022 C.ar    
   2 C2            -0.1532     0.2824    -0.3213 C.ar    
   3 C3             0.4613     0.6874    -1.4931 C.ar    
   4 C4             1.6765     1.3383    -1.4493 C.ar    
   5 C5             2.2868     1.5889    -0.2174 C.ar    
   6 C6             1.6602     1.1768     0.9618 C.ar    
   7 C7             3.5487     2.2637    -0.1637 C.1     
   8 C8             4.5832     2.8169    -0.1197 C.1     
   9 C9             5.8451     3.4918    -0.0661 C.ar    
  10 C10            6.4643     3.7470     1.1667 C.ar    
  11 C11            8.2483     4.7810    -0.0454 C.ar    
  12 N12            7.6415     4.5210    -1.1937 N.ar    
  13 C13            6.4809     3.9006    -1.2404 C.ar    
  14 C14            7.6804     4.4001     1.1667 C.ar    
  15 N15            9.4755     5.4395    -0.0514 N.am    
  16 C16            9.5015     6.7806    -0.0503 C.2     
  17 N17           10.6452     7.4814    -0.0667 N.am    
  18 C18           11.9475     6.8132    -0.0745 C.3     
  19 C19           11.8104     5.4527    -0.7663 C.3     
  20 C20           10.7107     4.6541    -0.0527 C.3     
  21 O21            8.4467     7.3850    -0.0343 O.2     
  22 C22           11.4318     5.6586    -2.2343 C.3     
  23 C23           13.1360     4.6941    -0.6751 C.3     
  24 C24           10.5897     8.9453    -0.0775 C.3     
  25 H25           -0.0421     0.2114     1.8129 H       
  26 H26           -1.1046    -0.2272    -0.3618 H       
  27 H27           -0.0116     0.4930    -2.4444 H       
  28 H28            2.1553     1.6532    -2.3647 H       
  29 H29            2.1261     1.3671     1.9174 H       
  30 H30            6.0008     3.4405     2.0928 H       
  31 H31            6.0164     3.7059    -2.1958 H       
  32 H32            8.1855     4.6135     2.0972 H       
  33 H33           12.6682     7.4261    -0.6158 H       
  34 H34           12.2885     6.6679     0.9505 H       
  35 H35           11.0182     4.4462     0.9721 H       
  36 H36           10.5412     3.7156    -0.5807 H       
  37 H37           12.2076     6.2409    -2.7314 H       
  38 H38           11.3349     4.6896    -2.7239 H       
  39 H39           10.4831     6.1920    -2.2935 H       
  40 H40           13.3968     4.5429     0.3724 H       
  41 H41           13.0357     3.7269    -1.1678 H       
  42 H42           13.9197     5.2719    -1.1650 H       
  43 H43            9.5490     9.2695    -0.0700 H       
  44 H44           11.0979     9.3347     0.8047 H       
  45 H45           11.0808     9.3210    -0.9751 H       
@<TRIPOS>BOND
   1    1    2 ar
   2    1    6 ar
   3    1   25 1
   4    2    3 ar
   5    2   26 1
   6    3    4 ar
   7    3   27 1
   8    4    5 ar
   9    4   28 1
  10    5    6 ar
  11    5    7 1
  12    6   29 1
  13    7    8 3
  14    8    9 1
  15    9   10 ar
  16    9   13 ar
  17   10   14 ar
  18   10   30 1
  19   11   12 ar
  20   11   15 1
  21   11   14 ar
  22   12   13 ar
  23   13   31 1
  24   14   32 1
  25   15   16 am
  26   15   20 1
  27   16   17 am
  28   16   21 2
  29   17   18 1
  30   17   24 1
  31   18   19 1
  32   18   33 1
  33   18   34 1
  34   19   20 1
  35   19   22 1
  36   19   23 1
  37   20   35 1
  38   20   36 1
  39   22   37 1
  40   22   38 1
  41   22   39 1
  42   23   40 1
  43   23   41 1
  44   23   42 1
  45   24   43 1
  46   24   44 1
  47   24   45 1

#	End of record

