#	Name: ASD00170488
#	Creating user name:	WinNT
#	Creation time:	15. 06. 2019 18:32

#	Modifying user name:	WinNT
#	Modification time:	15. 06. 2019 18:32

#	Program:	/corina/corina34_cracker 3.40 0067  02.08.2006

@<TRIPOS>MOLECULE
ASD00170488
  43   46    0    0    0
SMALL
NO_CHARGES


@<TRIPOS>ATOM
   1 C1            -0.0122     1.3976    -0.0048 C.ar    
   2 C2            -0.0025     0.0038     0.0035 C.ar    
   3 C3             1.2172    -0.6850     0.0033 C.ar    
   4 C4             2.4016     0.0238    -0.0051 C.ar    
   5 C5             2.3906     1.4143    -0.0134 C.ar    
   6 C6             1.1734     2.0993    -0.0132 C.ar    
   7 C7             3.8480    -0.4003    -0.0076 C.3     
   8 C8             4.6486     0.8837    -0.0181 C.2     
   9 C9             3.7961     1.9263    -0.0214 C.2     
  10 S10            6.3046     1.4883    -0.0280 S.3     
  11 C11            5.7027     3.1411    -0.0360 C.2     
  12 N12            4.4127     3.1290    -0.0312 N.2     
  13 N13            6.4918     4.2797    -0.0456 N.pl3   
  14 O14            1.2343    -2.0435     0.0119 O.3     
  15 C15            1.3575    -2.6828     1.2840 C.3     
  16 C16           -1.2801    -0.7479     0.0130 C.ar    
  17 C17           -2.2224    -0.5108     1.0128 C.ar    
  18 C18           -3.4133    -1.2144     1.0180 C.ar    
  19 C19           -3.6687    -2.1575     0.0257 C.ar    
  20 C20           -2.7310    -2.3927    -0.9683 C.ar    
  21 C21           -1.5438    -1.6892    -0.9812 C.ar    
  22 O22           -4.8395    -2.8491     0.0318 O.3     
  23 C23           -5.0361    -3.8011    -1.0156 C.3     
  24 O24           -4.3343    -0.9856     1.9921 O.3     
  25 C25           -4.0057    -0.0048     2.9780 C.3     
  26 H26           -0.9523     1.9292    -0.0093 H       
  27 H27            1.1616     3.1792    -0.0196 H       
  28 H28            4.0730    -0.9773     0.8894 H       
  29 H29            4.0668    -0.9880    -0.8991 H       
  30 H30            7.4585     4.1998    -0.0484 H       
  31 H31            6.0777     5.1569    -0.0495 H       
  32 H32            0.5680    -2.3283     1.9467 H       
  33 H33            1.2692    -3.7619     1.1584 H       
  34 H34            2.3292    -2.4457     1.7172 H       
  35 H35           -2.0228     0.2207     1.7819 H       
  36 H36           -2.9318    -3.1250    -1.7362 H       
  37 H37           -0.8150    -1.8743    -1.7564 H       
  38 H38           -6.0070    -4.2809    -0.8930 H       
  39 H39           -5.0009    -3.2933    -1.9795 H       
  40 H40           -4.2502    -4.5552    -0.9733 H       
  41 H41           -4.8237     0.0792     3.6936 H       
  42 H42           -3.0963    -0.3039     3.4992 H       
  43 H43           -3.8466     0.9585     2.4933 H       
@<TRIPOS>BOND
   1    1    2 ar
   2    1    6 ar
   3    1   26 1
   4    2    3 ar
   5    2   16 1
   6    3    4 ar
   7    3   14 1
   8    4    5 ar
   9    4    7 1
  10    5    6 ar
  11    5    9 1
  12    6   27 1
  13    7    8 1
  14    7   28 1
  15    7   29 1
  16    8    9 2
  17    8   10 1
  18    9   12 1
  19   10   11 1
  20   11   12 2
  21   11   13 1
  22   13   30 1
  23   13   31 1
  24   14   15 1
  25   15   32 1
  26   15   33 1
  27   15   34 1
  28   16   17 ar
  29   16   21 ar
  30   17   18 ar
  31   17   35 1
  32   18   19 ar
  33   18   24 1
  34   19   20 ar
  35   19   22 1
  36   20   21 ar
  37   20   36 1
  38   21   37 1
  39   22   23 1
  40   23   38 1
  41   23   39 1
  42   23   40 1
  43   24   25 1
  44   25   41 1
  45   25   42 1
  46   25   43 1

#	End of record

