#	Name: ASD01911112
#	Creating user name:	WinNT
#	Creation time:	15. 06. 2019 19:57

#	Modifying user name:	WinNT
#	Modification time:	15. 06. 2019 19:57

#	Program:	/corina/corina34_cracker 3.40 0067  02.08.2006

@<TRIPOS>MOLECULE
ASD01911112
  44   47    0    0    0
SMALL
NO_CHARGES


@<TRIPOS>ATOM
   1 C1             0.1072     1.0199     0.1795 C.2     
   2 O2             1.1270     1.6801     0.2226 O.2     
   3 C3             1.1825    -1.0559    -0.6958 C.ar    
   4 C4             0.1839    -0.4524     0.0699 C.ar    
   5 C5            -0.7437    -1.2647     0.7327 C.ar    
   6 C6            -0.6279    -2.6372     0.5979 C.ar    
   7 C7             0.3907    -3.1575    -0.1797 C.ar    
   8 N8             1.2511    -2.3672    -0.7932 N.ar    
   9 N9            -1.0932     1.6298     0.2374 N.am    
  10 C10           -2.3321     0.8637     0.0449 C.3     
  11 C11           -3.1592     1.5327    -1.0575 C.3     
  12 C12           -3.3793     3.0049    -0.7023 C.3     
  13 C13           -2.0279     3.7174    -0.6127 C.3     
  14 C14           -1.1882     3.0722     0.5003 C.3     
  15 O15           -5.4164     0.7238    -0.2191 O.3     
  16 N16           -6.3736     0.1089    -0.6398 N.2     
  17 C17           -6.1778    -0.2315    -1.8840 C.2     
  18 N18           -4.9638     0.2362    -2.2409 N.2     
  19 C19           -4.4919     0.8394    -1.1772 C.2     
  20 O20           -7.0353    -0.9263    -2.6720 O.3     
  21 C21           -8.1734    -1.4080    -2.1067 C.ar    
  22 C22           -8.5024    -1.0625    -0.8039 C.ar    
  23 C23           -9.6599    -1.5535    -0.2316 C.ar    
  24 C24          -10.4900    -2.3891    -0.9559 C.ar    
  25 C25          -10.1642    -2.7353    -2.2543 C.ar    
  26 C26           -9.0113    -2.2417    -2.8334 C.ar    
  27 H27            1.9025    -0.4420    -1.2165 H       
  28 H28           -1.5293    -0.8315     1.3340 H       
  29 H29           -1.3253    -3.2951     1.0950 H       
  30 H30            0.4836    -4.2282    -0.2863 H       
  31 H31           -2.0885    -0.1571    -0.2495 H       
  32 H32           -2.9026     0.8521     0.9736 H       
  33 H33           -2.6258     1.4629    -2.0055 H       
  34 H34           -3.9885     3.4772    -1.4730 H       
  35 H35           -3.8908     3.0743     0.2577 H       
  36 H36           -1.5052     3.6271    -1.5649 H       
  37 H37           -2.1866     4.7710    -0.3828 H       
  38 H38           -1.6673     3.2370     1.4654 H       
  39 H39           -0.1896     3.5091     0.5064 H       
  40 H40           -7.8540    -0.4104    -0.2376 H       
  41 H41           -9.9164    -1.2848     0.7825 H       
  42 H42          -11.3943    -2.7722    -0.5066 H       
  43 H43          -10.8139    -3.3887    -2.8176 H       
  44 H44           -8.7597    -2.5086    -3.8492 H       
@<TRIPOS>BOND
   1    1    2 2
   2    1    4 1
   3    1    9 am
   4    3    4 ar
   5    3    8 ar
   6    3   27 1
   7    4    5 ar
   8    5    6 ar
   9    5   28 1
  10    6    7 ar
  11    6   29 1
  12    7    8 ar
  13    7   30 1
  14    9   10 1
  15    9   14 1
  16   10   11 1
  17   10   31 1
  18   10   32 1
  19   11   12 1
  20   11   19 1
  21   11   33 1
  22   12   13 1
  23   12   34 1
  24   12   35 1
  25   13   14 1
  26   13   36 1
  27   13   37 1
  28   14   38 1
  29   14   39 1
  30   15   16 1
  31   15   19 1
  32   16   17 2
  33   17   18 1
  34   17   20 1
  35   18   19 2
  36   20   21 1
  37   21   22 ar
  38   21   26 ar
  39   22   23 ar
  40   22   40 1
  41   23   24 ar
  42   23   41 1
  43   24   25 ar
  44   24   42 1
  45   25   26 ar
  46   25   43 1
  47   26   44 1

#	End of record

