#	Name: ASD01150617
#	Creating user name:	WinNT
#	Creation time:	15. 06. 2019 19:04

#	Modifying user name:	WinNT
#	Modification time:	15. 06. 2019 19:04

#	Program:	/corina/corina34_cracker 3.40 0067  02.08.2006

@<TRIPOS>MOLECULE
ASD01150617
  53   55    0    0    0
SMALL
NO_CHARGES


@<TRIPOS>ATOM
   1 C1             0.4933     1.3919    -0.9465 C.ar    
   2 C2             0.4639     0.0109    -0.9224 C.ar    
   3 C3             1.9479     0.0102     0.9677 C.ar    
   4 C4             1.9789     1.3966     0.9446 C.ar    
   5 C5             1.2509     2.0887    -0.0132 C.ar    
   6 N6             1.2801     3.4880    -0.0392 N.am    
   7 C7             0.1264     4.1736    -0.1217 C.2     
   8 N8             0.1177     5.5194    -0.1489 N.am    
   9 C9             1.2790     6.2039    -0.0930 C.2     
  10 C10            2.5443     5.4601    -0.0027 C.2     
  11 N11            2.5098     4.1538     0.0269 N.2     
  12 O12            1.2793     7.4207    -0.1175 O.2     
  13 C13           -1.1538     6.2413    -0.2397 C.3     
  14 O14           -0.9269     3.5677    -0.1731 O.2     
  15 C15           -1.6751     6.5169     1.1472 C.ar    
  16 O16            3.7301     6.1204     0.0551 O.3     
  17 C17            4.9130     5.3233     0.1416 C.3     
  18 C18            1.1883    -0.6824     0.0308 C.ar    
  19 N19            2.6816    -0.6915     1.9324 N.am    
  20 C20            2.9446    -0.1217     3.1251 C.2     
  21 O21            2.6215     1.0289     3.3320 O.2     
  22 C22            3.6402    -0.9142     4.2018 C.3     
  23 C23           -2.6604     5.7140     1.6870 C.ar    
  24 C24           -3.1404     5.9655     2.9591 C.ar    
  25 C25           -2.6344     7.0232     3.6963 C.ar    
  26 C26           -1.6470     7.8306     3.1607 C.ar    
  27 C27           -1.1605     7.5757     1.8854 C.ar    
  28 F28            1.1574    -2.0329     0.0519 F       
  29 N29           -0.1636     8.3887     1.3413 N.3     
  30 C30           -0.6140     9.7839     1.2497 C.3     
  31 C31            1.0801     8.2867     2.1164 C.3     
  32 F32           -3.1057     7.2668     4.9388 F       
  33 H33           -0.0696     1.9304    -1.6945 H       
  34 H34           -0.1260    -0.5284    -1.6487 H       
  35 H35            2.5683     1.9367     1.6708 H       
  36 H36           -0.9995     7.1844    -0.7639 H       
  37 H37           -1.8771     5.6360    -0.7861 H       
  38 H38            5.7871     5.9733     0.1810 H       
  39 H39            4.8740     4.7118     1.0432 H       
  40 H40            4.9802     4.6767    -0.7333 H       
  41 H41            3.0005    -1.5876     1.7421 H       
  42 H42            3.8502    -1.9190     3.8351 H       
  43 H43            4.5754    -0.4220     4.4685 H       
  44 H44            2.9981    -0.9749     5.0805 H       
  45 H45           -3.0570     4.8884     1.1145 H       
  46 H46           -3.9115     5.3363     3.3784 H       
  47 H47           -1.2524     8.6557     3.7351 H       
  48 H48           -0.8606    10.1523     2.2455 H       
  49 H49            0.1813    10.3951     0.8229 H       
  50 H50           -1.4967     9.8397     0.6128 H       
  51 H51            1.4288     7.2540     2.1096 H       
  52 H52            1.8394     8.9296     1.6712 H       
  53 H53            0.8948     8.6008     3.1436 H       
@<TRIPOS>BOND
   1    1    2 ar
   2    1    5 ar
   3    1   33 1
   4    2   18 ar
   5    2   34 1
   6    3    4 ar
   7    3   19 1
   8    3   18 ar
   9    4    5 ar
  10    4   35 1
  11    5    6 1
  12    6    7 am
  13    6   11 1
  14    7    8 am
  15    7   14 2
  16    8    9 am
  17    8   13 1
  18    9   10 1
  19    9   12 2
  20   10   11 2
  21   10   16 1
  22   13   15 1
  23   13   36 1
  24   13   37 1
  25   15   23 ar
  26   15   27 ar
  27   16   17 1
  28   17   38 1
  29   17   39 1
  30   17   40 1
  31   18   28 1
  32   19   20 am
  33   19   41 1
  34   20   21 2
  35   20   22 1
  36   22   42 1
  37   22   43 1
  38   22   44 1
  39   23   24 ar
  40   23   45 1
  41   24   25 ar
  42   24   46 1
  43   25   26 ar
  44   25   32 1
  45   26   27 ar
  46   26   47 1
  47   27   29 1
  48   29   30 1
  49   29   31 1
  50   30   48 1
  51   30   49 1
  52   30   50 1
  53   31   51 1
  54   31   52 1
  55   31   53 1

#	End of record

