#	Name: ASD09116395
#	Creating user name:	WinNT
#	Creation time:	15. 06. 2019 21:21

#	Modifying user name:	WinNT
#	Modification time:	15. 06. 2019 21:21

#	Program:	/corina/corina34_cracker 3.40 0067  02.08.2006

@<TRIPOS>MOLECULE
ASD09116395
  69   74    0    0    0
SMALL
NO_CHARGES


@<TRIPOS>ATOM
   1 N1            -0.0033     1.5429     1.4957 N.2     
   2 N2             0.0165     0.1608     1.7428 N.pl3   
   3 C3             1.2318     1.9044     1.2429 C.2     
   4 N4             2.0248     0.8290     1.3173 N.2     
   5 C5             1.3062    -0.2314     1.6182 C.2     
   6 N6             1.7837    -1.5182     1.7788 N.pl3   
   7 C7            -1.0772    -0.6486     2.0552 C.ar    
   8 N8             1.6512     3.2006     0.9439 N.pl3   
   9 C9             3.0159     3.4796     0.8017 C.ar    
  10 C10            3.4332     4.4950    -0.0476 C.ar    
  11 C11            3.9539     2.7450     1.5142 C.ar    
  12 C12            5.2994     3.0224     1.3755 C.ar    
  13 C13            5.7233     4.0372     0.5242 C.ar    
  14 C14            4.7846     4.7733    -0.1894 C.ar    
  15 N15           -1.0399    -1.9452     1.7866 N.ar    
  16 N16           -2.0229    -2.7321     2.0452 N.ar    
  17 C17           -3.1399    -2.2881     2.5989 C.ar    
  18 C18           -3.2617    -0.9374     2.9371 C.ar    
  19 C19           -2.2090    -0.0921     2.6565 C.ar    
  20 C20           -4.2944    -3.1821     2.8482 C.ar    
  21 C21           -5.5619    -2.7816     2.4225 C.ar    
  22 C22           -5.7138    -1.4850     1.6754 C.3     
  23 C23           -5.6474    -0.2874     2.6193 C.3     
  24 C24           -4.5064    -0.4500     3.6200 C.3     
  25 C25           -4.1316    -4.4003     3.4984 C.ar    
  26 C26           -5.2322    -5.2007     3.7364 C.ar    
  27 C27           -6.4894    -4.7907     3.3314 C.ar    
  28 C28           -6.6545    -3.5827     2.6763 C.ar    
  29 N29            7.0974     4.2944     0.4210 N.3     
  30 C30            7.4317     5.0260    -0.8065 C.3     
  31 C31            6.5045     6.2430    -0.9191 C.3     
  32 O32            5.1615     5.7666    -1.0410 O.3     
  33 C33            7.8746     3.0519     0.5214 C.3     
  34 C34            9.3558     3.3566     0.2889 C.3     
  35 C35           10.1653     2.0625     0.3935 C.3     
  36 C36           11.6265     2.3448     0.0388 C.3     
  37 C37           10.0825     1.5233     1.8230 C.3     
  38 H38            2.7297    -1.7018     1.6682 H       
  39 H39            1.1728    -2.2379     2.0021 H       
  40 H40            0.9974     3.9088     0.8345 H       
  41 H41            2.7041     5.0694    -0.5996 H       
  42 H42            3.6311     1.9563     2.1776 H       
  43 H43            6.0263     2.4486     1.9312 H       
  44 H44           -2.2604     0.9620     2.8860 H       
  45 H45           -4.9151    -1.4026     0.9382 H       
  46 H46           -6.6745    -1.4805     1.1606 H       
  47 H47           -5.4875     0.6200     2.0370 H       
  48 H48           -6.5900    -0.2043     3.1603 H       
  49 H49           -4.8003    -1.1686     4.3851 H       
  50 H50           -4.3035     0.5115     4.0915 H       
  51 H51           -3.1497    -4.7194     3.8155 H       
  52 H52           -5.1105    -6.1487     4.2394 H       
  53 H53           -7.3474    -5.4168     3.5274 H       
  54 H54           -7.6393    -3.2677     2.3641 H       
  55 H55            8.4687     5.3589    -0.7631 H       
  56 H56            7.2891     4.3763    -1.6700 H       
  57 H57            6.5941     6.8589    -0.0242 H       
  58 H58            6.7704     6.8290    -1.7989 H       
  59 H59            7.7438     2.6207     1.5140 H       
  60 H60            7.5268     2.3440    -0.2309 H       
  61 H61            9.4866     3.7877    -0.7036 H       
  62 H62            9.7036     4.0645     1.0413 H       
  63 H63            9.7599     1.3235    -0.2976 H       
  64 H64           12.0319     3.0838     0.7299 H       
  65 H65           12.2032     1.4229     0.1134 H       
  66 H66           11.6855     2.7289    -0.9795 H       
  67 H67           10.4879     2.2623     2.5141 H       
  68 H68            9.0414     1.3221     2.0757 H       
  69 H69           10.6591     0.6013     1.8975 H       
@<TRIPOS>BOND
   1    1    2 1
   2    1    3 2
   3    2    7 1
   4    2    5 1
   5    3    4 1
   6    3    8 1
   7    4    5 2
   8    5    6 1
   9    6   38 1
  10    6   39 1
  11    7   15 ar
  12    7   19 ar
  13    8    9 1
  14    8   40 1
  15    9   10 ar
  16    9   11 ar
  17   10   14 ar
  18   10   41 1
  19   11   12 ar
  20   11   42 1
  21   12   13 ar
  22   12   43 1
  23   13   14 ar
  24   13   29 1
  25   14   32 1
  26   15   16 ar
  27   16   17 ar
  28   17   18 ar
  29   17   20 1
  30   18   19 ar
  31   18   24 1
  32   19   44 1
  33   20   21 ar
  34   20   25 ar
  35   21   22 1
  36   21   28 ar
  37   22   23 1
  38   22   45 1
  39   22   46 1
  40   23   24 1
  41   23   47 1
  42   23   48 1
  43   24   49 1
  44   24   50 1
  45   25   26 ar
  46   25   51 1
  47   26   27 ar
  48   26   52 1
  49   27   28 ar
  50   27   53 1
  51   28   54 1
  52   29   30 1
  53   29   33 1
  54   30   31 1
  55   30   55 1
  56   30   56 1
  57   31   32 1
  58   31   57 1
  59   31   58 1
  60   33   34 1
  61   33   59 1
  62   33   60 1
  63   34   35 1
  64   34   61 1
  65   34   62 1
  66   35   36 1
  67   35   37 1
  68   35   63 1
  69   36   64 1
  70   36   65 1
  71   36   66 1
  72   37   67 1
  73   37   68 1
  74   37   69 1

#	End of record

