#	Name: ASD02198321
#	Creating user name:	WinNT
#	Creation time:	15. 06. 2019 20:19

#	Modifying user name:	WinNT
#	Modification time:	15. 06. 2019 20:19

#	Program:	/corina/corina34_cracker 3.40 0067  02.08.2006

@<TRIPOS>MOLECULE
ASD02198321
  39   41    0    0    0
SMALL
NO_CHARGES


@<TRIPOS>ATOM
   1 C1             0.4986     1.5473     0.0790 C.2     
   2 C2             0.6597     0.1760     0.1444 C.2     
   3 S3             2.0816     2.2841     0.3138 S.3     
   4 C4             2.7952     0.7398     0.4735 C.2     
   5 N5             1.9000    -0.1982     0.3557 N.2     
   6 N6            -0.3889    -0.7189     0.0013 N.pl3   
   7 C7            -0.7120     2.2320    -0.1417 C.2     
   8 C8            -0.7553     3.7066    -0.0461 C.ar    
   9 O9            -1.7248     1.6085    -0.4116 O.2     
  10 N10            4.1362     0.5174     0.6962 N.pl3   
  11 C11           -1.6885     4.4294    -0.7925 C.ar    
  12 C12            0.1333     4.3800     0.7951 C.ar    
  13 C13            0.0896     5.7540     0.8819 C.ar    
  14 C14           -0.8369     6.4701     0.1337 C.ar    
  15 C15           -1.7261     5.8033    -0.7005 C.ar    
  16 O16           -0.8769     7.8242     0.2217 O.3     
  17 C17           -1.8538     8.4975    -0.5746 C.3     
  18 C18            4.6000    -0.7805     0.9309 C.ar    
  19 C19            5.9020    -1.1218     0.5996 C.ar    
  20 C20            6.3599    -2.4186     0.8358 C.ar    
  21 C21            5.5033    -3.3635     1.4044 C.ar    
  22 C22            4.2087    -3.0133     1.7307 C.ar    
  23 C23            3.7570    -1.7273     1.5019 C.ar    
  24 C24            7.7034    -2.7793     0.4959 C.1     
  25 N25            8.7692    -3.0654     0.2263 N.1     
  26 H26           -1.2887    -0.3911    -0.1531 H       
  27 H27           -0.2230    -1.6731     0.0554 H       
  28 H28            4.7587     1.2612     0.6903 H       
  29 H29           -2.3797     3.9119    -1.4413 H       
  30 H30            0.8534     3.8240     1.3772 H       
  31 H31            0.7761     6.2754     1.5325 H       
  32 H32           -2.4448     6.3632    -1.2805 H       
  33 H33           -1.6785     8.2776    -1.6277 H       
  34 H34           -2.8500     8.1562    -0.2932 H       
  35 H35           -1.7782     9.5725    -0.4105 H       
  36 H36            6.5597    -0.3866     0.1597 H       
  37 H37            5.8536    -4.3684     1.5886 H       
  38 H38            3.5477    -3.7456     2.1703 H       
  39 H39            2.7429    -1.4594     1.7593 H       
@<TRIPOS>BOND
   1    1    2 2
   2    1    3 1
   3    1    7 1
   4    2    6 1
   5    2    5 1
   6    3    4 1
   7    4    5 2
   8    4   10 1
   9    6   26 1
  10    6   27 1
  11    7    8 1
  12    7    9 2
  13    8   11 ar
  14    8   12 ar
  15   10   18 1
  16   10   28 1
  17   11   15 ar
  18   11   29 1
  19   12   13 ar
  20   12   30 1
  21   13   14 ar
  22   13   31 1
  23   14   15 ar
  24   14   16 1
  25   15   32 1
  26   16   17 1
  27   17   33 1
  28   17   34 1
  29   17   35 1
  30   18   19 ar
  31   18   23 ar
  32   19   20 ar
  33   19   36 1
  34   20   21 ar
  35   20   24 1
  36   21   22 ar
  37   21   37 1
  38   22   23 ar
  39   22   38 1
  40   23   39 1
  41   24   25 3

#	End of record

