#	Name: ASD03091203
#	Creating user name:	WinNT
#	Creation time:	15. 06. 2019 20:30

#	Modifying user name:	WinNT
#	Modification time:	15. 06. 2019 20:30

#	Program:	/corina/corina34_cracker 3.40 0067  02.08.2006

@<TRIPOS>MOLECULE
ASD03091203
  51   55    0    0    0
SMALL
NO_CHARGES


@<TRIPOS>ATOM
   1 N1            -0.1101     1.4520     0.1270 N.2     
   2 C2            -0.2287     0.1549     0.0057 C.2     
   3 N3             0.8400    -0.6777    -0.1911 N.am    
   4 C4             2.0941    -0.1751    -0.2701 C.2     
   5 C5             2.2513     1.2809    -0.1369 C.ar    
   6 C6             3.5007     1.8933    -0.2045 C.ar    
   7 C7             3.5905     3.2688    -0.0731 C.ar    
   8 C8             2.4422     4.0357     0.1253 C.ar    
   9 C9             1.2111     3.4497     0.1937 C.ar    
  10 C10            1.0908     2.0625     0.0647 C.ar    
  11 O11            3.0557    -0.9009    -0.4443 O.2     
  12 N12            4.8394     3.8927    -0.1390 N.3     
  13 C13            5.5715     3.4896    -1.3668 C.3     
  14 C14            7.0525     3.7913    -1.0568 C.3     
  15 C15            7.1491     3.7618     0.4924 C.3     
  16 C16            5.7173     3.4451     0.9722 C.3     
  17 N17            8.8697     2.3624    -0.4194 N.3     
  18 C18            7.9125     2.6008    -1.5296 C.3     
  19 C19            8.0582     2.5563     0.8093 C.3     
  20 C20            9.4170     1.0005    -0.4794 C.3     
  21 C21            0.6249    -2.1214    -0.3165 C.3     
  22 C22           -1.5788    -0.4391     0.0853 C.ar    
  23 C23           -2.0690    -1.2138    -0.9708 C.ar    
  24 C24           -3.3333    -1.7664    -0.8880 C.ar    
  25 C25           -4.1114    -1.5536     0.2353 C.ar    
  26 C26           -3.6313    -0.7878     1.2832 C.ar    
  27 C27           -2.3694    -0.2347     1.2174 C.ar    
  28 F28           -1.3094    -1.4212    -2.0687 F       
  29 H29            4.3907     1.3010    -0.3577 H       
  30 H30            2.5283     5.1075     0.2264 H       
  31 H31            0.3313     4.0567     0.3480 H       
  32 H32            5.4330     2.4258    -1.5595 H       
  33 H33            5.2346     4.0781    -2.2202 H       
  34 H34            7.3791     4.7425    -1.4773 H       
  35 H35            7.5276     4.6971     0.9048 H       
  36 H36            5.4903     4.0000     1.8825 H       
  37 H37            5.6012     2.3744     1.1401 H       
  38 H38            7.2887     1.7212    -1.6886 H       
  39 H39            8.4476     2.8582    -2.4437 H       
  40 H40            8.7033     2.7801     1.6590 H       
  41 H41            7.4569     1.6698     1.0111 H       
  42 H42            9.9380     0.8598    -1.4264 H       
  43 H43           10.1148     0.8527     0.3447 H       
  44 H44            8.6041     0.2785    -0.4012 H       
  45 H45            0.4339    -2.3710    -1.3602 H       
  46 H46            1.5126    -2.6522     0.0274 H       
  47 H47           -0.2318    -2.4151     0.2900 H       
  48 H48           -3.7144    -2.3651    -1.7021 H       
  49 H49           -5.0988    -1.9869     0.2948 H       
  50 H50           -4.2449    -0.6261     2.1571 H       
  51 H51           -1.9954     0.3589     2.0385 H       
@<TRIPOS>BOND
   1    1    2 2
   2    1   10 1
   3    2    3 1
   4    2   22 1
   5    3    4 am
   6    3   21 1
   7    4    5 1
   8    4   11 2
   9    5    6 ar
  10    5   10 ar
  11    6    7 ar
  12    6   29 1
  13    7    8 ar
  14    7   12 1
  15    8    9 ar
  16    8   30 1
  17    9   10 ar
  18    9   31 1
  19   12   13 1
  20   12   16 1
  21   13   14 1
  22   13   32 1
  23   13   33 1
  24   14   15 1
  25   14   18 1
  26   14   34 1
  27   15   16 1
  28   15   19 1
  29   15   35 1
  30   16   36 1
  31   16   37 1
  32   17   18 1
  33   17   19 1
  34   17   20 1
  35   18   38 1
  36   18   39 1
  37   19   40 1
  38   19   41 1
  39   20   42 1
  40   20   43 1
  41   20   44 1
  42   21   45 1
  43   21   46 1
  44   21   47 1
  45   22   23 ar
  46   22   27 ar
  47   23   24 ar
  48   23   28 1
  49   24   25 ar
  50   24   48 1
  51   25   26 ar
  52   25   49 1
  53   26   27 ar
  54   26   50 1
  55   27   51 1

#	End of record

