#	Name: ASD01814704
#	Creating user name:	WinNT
#	Creation time:	15. 06. 2019 19:32

#	Modifying user name:	WinNT
#	Modification time:	15. 06. 2019 19:32

#	Program:	/corina/corina34_cracker 3.40 0067  02.08.2006

@<TRIPOS>MOLECULE
ASD01814704
  54   58    0    0    0
SMALL
NO_CHARGES


@<TRIPOS>ATOM
   1 C1            -3.4025    -8.5803     1.4694 C.3     
   2 C2            -2.4946    -7.4271     1.1274 C.ar    
   3 C3            -2.1935    -6.4855     2.0929 C.ar    
   4 C4            -1.3567    -5.4285     1.7681 C.ar    
   5 C5            -0.8521    -5.3585     0.4788 C.ar    
   6 C6             0.0618    -4.2294     0.0774 C.3     
   7 C7             1.4960    -4.6736     0.2074 C.ar    
   8 C8             2.1545    -5.1715    -0.8933 C.ar    
   9 C9             3.4803    -5.5817    -0.7713 C.ar    
  10 C10            4.2365    -6.1228    -1.9104 C.2     
  11 O11            3.7294    -6.2329    -3.0115 O.2     
  12 N12            5.5190    -6.4931    -1.6864 N.am    
  13 C13            6.0707    -6.3633    -0.4517 C.2     
  14 N14            5.4276    -5.8892     0.5718 N.2     
  15 C15            4.1364    -5.4840     0.4744 C.ar    
  16 C16            3.4470    -4.9736     1.5795 C.ar    
  17 C17            3.9015    -4.7618     3.0077 C.3     
  18 C18            2.8726    -3.7865     3.6177 C.3     
  19 C19            1.6148    -4.0619     2.7670 C.3     
  20 C20            2.1385    -4.5691     1.4388 C.ar    
  21 C21            6.3193    -7.0395    -2.7852 C.3     
  22 H22            5.7181    -7.0703    -3.6938 H       
  23 C23            7.5481    -6.1540    -3.0136 C.3     
  24 C24            8.4184    -6.7750    -4.1094 C.3     
  25 O25            8.7892    -8.1010    -3.7270 O.3     
  26 C26            7.6827    -8.9869    -3.5454 C.3     
  27 C27            6.7811    -8.4556    -2.4279 C.3     
  28 H28            7.3390    -8.4315    -1.4918 H       
  29 O29            5.6426    -9.3073    -2.2849 O.3     
  30 C30           -1.1974    -6.3376    -0.4337 C.ar    
  31 N31           -1.9922    -7.3314    -0.0882 N.ar    
  32 H32           -2.8072    -9.4126     1.8447 H       
  33 H33           -4.1137    -8.2683     2.2342 H       
  34 H34           -3.9434    -8.8940     0.5765 H       
  35 H35           -2.6051    -6.5714     3.0877 H       
  36 H36           -1.1043    -4.6775     2.5021 H       
  37 H37           -0.1395    -3.9492    -0.9566 H       
  38 H38           -0.1133    -3.3718     0.7269 H       
  39 H39            1.6476    -5.2441    -1.8441 H       
  40 H40            7.0969    -6.6706    -0.3143 H       
  41 H41            3.8952    -5.7068     3.5509 H       
  42 H42            4.8981    -4.3206     3.0261 H       
  43 H43            2.6904    -4.0210     4.6665 H       
  44 H44            3.2009    -2.7537     3.5015 H       
  45 H45            0.9931    -4.8188     3.2452 H       
  46 H46            1.0479    -3.1424     2.6216 H       
  47 H47            7.2278    -5.1591    -3.3230 H       
  48 H48            8.1220    -6.0820    -2.0897 H       
  49 H49            7.8573    -6.8095    -5.0433 H       
  50 H50            9.3158    -6.1718    -4.2464 H       
  51 H51            7.1121    -9.0504    -4.4719 H       
  52 H52            8.0503    -9.9771    -3.2761 H       
  53 H53            5.8613   -10.2216    -2.0583 H       
  54 H54           -0.8089    -6.2901    -1.4402 H       
@<TRIPOS>BOND
   1    1    2 1
   2    1   32 1
   3    1   33 1
   4    1   34 1
   5    2   31 ar
   6    2    3 ar
   7    3    4 ar
   8    3   35 1
   9    4    5 ar
  10    4   36 1
  11    5    6 1
  12    5   30 ar
  13    6    7 1
  14    6   37 1
  15    6   38 1
  16    7   20 ar
  17    7    8 ar
  18    8    9 ar
  19    8   39 1
  20    9   15 ar
  21    9   10 1
  22   10   11 2
  23   10   12 am
  24   12   13 1
  25   12   21 1
  26   13   14 2
  27   13   40 1
  28   14   15 1
  29   15   16 ar
  30   16   20 ar
  31   16   17 1
  32   17   18 1
  33   17   41 1
  34   17   42 1
  35   18   19 1
  36   18   43 1
  37   18   44 1
  38   19   20 1
  39   19   45 1
  40   19   46 1
  41   21   22 1
  42   21   27 1
  43   21   23 1
  44   23   24 1
  45   23   47 1
  46   23   48 1
  47   24   25 1
  48   24   49 1
  49   24   50 1
  50   25   26 1
  51   26   27 1
  52   26   51 1
  53   26   52 1
  54   27   28 1
  55   27   29 1
  56   29   53 1
  57   30   31 ar
  58   30   54 1

#	End of record

