#	Name: ASD01813385
#	Creating user name:	WinNT
#	Creation time:	15. 06. 2019 19:30

#	Modifying user name:	WinNT
#	Modification time:	15. 06. 2019 19:30

#	Program:	/corina/corina34_cracker 3.40 0067  02.08.2006

@<TRIPOS>MOLECULE
ASD01813385
  43   46    0    0    0
SMALL
NO_CHARGES


@<TRIPOS>ATOM
   1 C1            -0.0169     1.3972     0.0097 C.2     
   2 C2             0.0021    -0.0041     0.0020 C.2     
   3 C3             1.1986    -0.6593    -0.0129 C.2     
   4 C4             2.3918     0.0821    -0.0204 C.2     
   5 N5             2.3437     1.4497    -0.0122 N.am    
   6 C6             1.1421     2.0937     0.0024 C.2     
   7 C7             3.6227    -0.5889    -0.0356 C.2     
   8 C8             4.7877     0.1218    -0.0425 C.2     
   9 C9             4.7345     1.5280    -0.0346 C.2     
  10 C10            3.4812     2.1736    -0.0189 C.2     
  11 O11            3.4258     3.3917    -0.0123 O.2     
  12 C12            5.9703     2.3140    -0.0413 C.2     
  13 O13            5.9124     3.6618    -0.0337 O.3     
  14 O14            7.0487     1.7516    -0.0537 O.2     
  15 C15            3.6593    -2.0954    -0.0439 C.3     
  16 C16            3.7837    -2.5946    -1.4848 C.3     
  17 N17            3.8194    -4.0631    -1.4929 N.3     
  18 C18            2.5398    -4.6234    -1.0382 C.3     
  19 C19            2.6087    -6.1408    -1.1423 C.2     
  20 C20            3.5396    -6.7654    -1.8909 C.2     
  21 C21            4.5986    -6.0449    -2.6982 C.3     
  22 C22            4.1836    -4.5739    -2.8222 C.3     
  23 C23            1.7408    -7.0104    -0.4919 C.2     
  24 C24            1.9580    -8.3057    -0.7026 C.2     
  25 S25            3.3310    -8.5055    -1.7820 S.3     
  26 H26           -0.9605     1.9226     0.0170 H       
  27 H27           -0.9233    -0.5609     0.0082 H       
  28 H28            1.2282    -1.7389    -0.0187 H       
  29 H29            1.1156     3.1733     0.0087 H       
  30 H30            5.7393    -0.3889    -0.0536 H       
  31 H31            6.7544     4.1373    -0.0385 H       
  32 H32            4.5153    -2.4412     0.5356 H       
  33 H33            2.7412    -2.4836     0.3971 H       
  34 H34            2.9277    -2.2488    -2.0643 H       
  35 H35            4.7018    -2.2064    -1.9259 H       
  36 H36            2.3619    -4.3355    -0.0021 H       
  37 H37            1.7324    -4.2498    -1.6680 H       
  38 H38            5.5600    -6.1140    -2.1892 H       
  39 H39            4.6732    -6.4917    -3.6896 H       
  40 H40            3.3267    -4.4920    -3.4909 H       
  41 H41            5.0153    -3.9929    -3.2209 H       
  42 H42            0.9421    -6.6572     0.1436 H       
  43 H43            1.3795    -9.1115    -0.2754 H       
@<TRIPOS>BOND
   1    1    2 1
   2    1    6 2
   3    1   26 1
   4    2    3 2
   5    2   27 1
   6    3    4 1
   7    3   28 1
   8    4    5 1
   9    4    7 2
  10    5    6 1
  11    5   10 am
  12    6   29 1
  13    7    8 1
  14    7   15 1
  15    8    9 2
  16    8   30 1
  17    9   10 1
  18    9   12 1
  19   10   11 2
  20   12   13 1
  21   12   14 2
  22   13   31 1
  23   15   16 1
  24   15   32 1
  25   15   33 1
  26   16   17 1
  27   16   34 1
  28   16   35 1
  29   17   18 1
  30   17   22 1
  31   18   19 1
  32   18   36 1
  33   18   37 1
  34   19   20 2
  35   19   23 1
  36   20   21 1
  37   20   25 1
  38   21   22 1
  39   21   38 1
  40   21   39 1
  41   22   40 1
  42   22   41 1
  43   23   24 2
  44   23   42 1
  45   24   25 1
  46   24   43 1

#	End of record

