#	Name: ASD01882624
#	Creating user name:	WinNT
#	Creation time:	15. 06. 2019 19:44

#	Modifying user name:	WinNT
#	Modification time:	15. 06. 2019 19:44

#	Program:	/corina/corina34_cracker 3.40 0067  02.08.2006

@<TRIPOS>MOLECULE
ASD01882624
  59   63    0    0    0
SMALL
NO_CHARGES


@<TRIPOS>ATOM
   1 C1             1.5386     1.5513    -1.0711 C.2     
   2 C2             1.6412     0.0925    -1.1356 C.2     
   3 C3             1.2465    -0.6462    -0.0133 C.2     
   4 C4             0.7706     0.0359     1.1229 C.2     
   5 C5             0.6902     1.3797     1.1446 C.2     
   6 N6             1.0636     2.1390     0.0757 N.pl3   
   7 N7             1.5462     3.6580    -1.3728 N.2     
   8 N8             1.8192     2.5235    -1.9157 N.2     
   9 C9             1.0850     3.4827    -0.1631 C.2     
  10 C10            2.1307    -0.5603    -2.3124 C.1     
  11 N11            2.5191    -1.0781    -3.2460 N.1     
  12 C12            0.6570     4.5654     0.7937 C.3     
  13 C13            1.8557     5.0030     1.6378 C.3     
  14 F14            2.8626     5.4930     0.7993 F       
  15 F15            1.4584     6.0082     2.5261 F       
  16 F16            2.3421     3.9080     2.3600 F       
  17 N17            1.3225    -2.0264    -0.0210 N.pl3   
  18 C18            2.6184    -2.7104    -0.1471 C.3     
  19 C19            2.7352    -3.7433     0.9788 C.3     
  20 N20            1.5616    -4.6264     0.9525 N.3     
  21 C21            0.3251    -3.8773     1.2129 C.3     
  22 C22            0.1101    -2.8499     0.1028 C.3     
  23 C23            1.7156    -5.7352     1.9037 C.3     
  24 C24            0.4081    -6.4738     2.0303 C.ar    
  25 C25            0.1320    -7.5373     1.1906 C.ar    
  26 C26           -1.0665    -8.2161     1.3049 C.ar    
  27 C27           -1.9929    -7.8293     2.2642 C.ar    
  28 C28           -1.7126    -6.7627     3.1048 C.ar    
  29 C29           -0.5106    -6.0905     2.9894 C.ar    
  30 O30           -3.1726    -8.4947     2.3787 O.3     
  31 C31           -4.0776    -8.0417     3.3876 C.3     
  32 C32           -5.3402    -8.9055     3.3652 C.3     
  33 C33           -6.3875    -8.6542     4.4519 C.3     
  34 C34           -6.6604    -8.2180     3.0110 C.3     
  35 Cl35          -1.4135    -9.5505     0.2500 Cl      
  36 H36            0.4646    -0.5283     1.9915 H       
  37 H37            0.3197     1.8694     2.0330 H       
  38 H38            0.2781     5.4186     0.2310 H       
  39 H39           -0.1275     4.1837     1.4470 H       
  40 H40            2.6747    -3.2132    -1.1126 H       
  41 H41            3.4260    -1.9833    -0.0621 H       
  42 H42            3.6392    -4.3355     0.8368 H       
  43 H43            2.7830    -3.2305     1.9394 H       
  44 H44           -0.5188    -4.5667     1.2407 H       
  45 H45            0.4064    -3.3626     2.1703 H       
  46 H46           -0.7399    -2.2149     0.3528 H       
  47 H47           -0.0794    -3.3663    -0.8382 H       
  48 H48            2.4853    -6.4181     1.5441 H       
  49 H49            2.0059    -5.3409     2.8775 H       
  50 H50            0.8532    -7.8374     0.4448 H       
  51 H51           -2.4316    -6.4597     3.8515 H       
  52 H52           -0.2905    -5.2624     3.6468 H       
  53 H53           -3.6011    -8.1200     4.3648 H       
  54 H54           -4.3449    -7.0025     3.1959 H       
  55 H55           -5.2012    -9.9328     3.0282 H       
  56 H56           -6.9377    -9.5161     4.8296 H       
  57 H57           -6.1770    -7.8735     5.1828 H       
  58 H58           -6.6294    -7.1502     2.7940 H       
  59 H59           -7.3901    -8.7928     2.4407 H       
@<TRIPOS>BOND
   1    1    2 1
   2    1    6 1
   3    1    8 2
   4    2    3 2
   5    2   10 1
   6    3    4 1
   7    3   17 1
   8    4    5 2
   9    4   36 1
  10    5    6 1
  11    5   37 1
  12    6    9 1
  13    7    8 1
  14    7    9 2
  15    9   12 1
  16   10   11 3
  17   12   13 1
  18   12   38 1
  19   12   39 1
  20   13   14 1
  21   13   15 1
  22   13   16 1
  23   17   18 1
  24   17   22 1
  25   18   19 1
  26   18   40 1
  27   18   41 1
  28   19   20 1
  29   19   42 1
  30   19   43 1
  31   20   21 1
  32   20   23 1
  33   21   22 1
  34   21   44 1
  35   21   45 1
  36   22   46 1
  37   22   47 1
  38   23   24 1
  39   23   48 1
  40   23   49 1
  41   24   25 ar
  42   24   29 ar
  43   25   26 ar
  44   25   50 1
  45   26   27 ar
  46   26   35 1
  47   27   28 ar
  48   27   30 1
  49   28   29 ar
  50   28   51 1
  51   29   52 1
  52   30   31 1
  53   31   32 1
  54   31   53 1
  55   31   54 1
  56   32   33 1
  57   32   34 1
  58   32   55 1
  59   33   34 1
  60   33   56 1
  61   33   57 1
  62   34   58 1
  63   34   59 1

#	End of record

