#	Name: ASD07932221
#	Creating user name:	WinNT
#	Creation time:	15. 06. 2019 21:14

#	Modifying user name:	WinNT
#	Modification time:	15. 06. 2019 21:14

#	Program:	/corina/corina34_cracker 3.40 0067  02.08.2006

@<TRIPOS>MOLECULE
ASD07932221
  65   69    0    0    0
SMALL
NO_CHARGES


@<TRIPOS>ATOM
   1 N1            -0.0158     1.3146     0.0093 N.ar    
   2 C2             0.0021    -0.0041     0.0020 C.ar    
   3 C3             1.2080    -0.7212    -0.0129 C.ar    
   4 C4             2.3965    -0.0503    -0.0206 C.ar    
   5 C5             2.3669     1.3573    -0.0132 C.ar    
   6 C6             3.5508     2.1111    -0.0200 C.ar    
   7 C7             3.4848     3.4715    -0.0121 C.ar    
   8 C8             2.2568     4.1293     0.0026 C.ar    
   9 C9             1.0860     3.4322     0.0101 C.ar    
  10 C10            1.1128     2.0222     0.0023 C.ar    
  11 C11           -1.2814    -0.7457     0.0103 C.2     
  12 O12           -1.2810    -1.9608     0.0038 O.2     
  13 N13           -2.4488    -0.0723     0.0250 N.am    
  14 C14           -3.7172    -0.8053     0.0332 C.3     
  15 C15           -4.8070     0.0682     0.6580 C.3     
  16 C16           -4.9644     1.3509    -0.1611 C.3     
  17 C17           -5.3568     0.9946    -1.5964 C.3     
  18 C18           -4.2670     0.1211    -2.2211 C.3     
  19 C19           -4.1096    -1.1616    -1.4021 C.3     
  20 O20           -4.4405     0.4010     1.9985 O.3     
  21 F21           -0.0947     4.0886     0.0248 F       
  22 C22            3.7057    -0.7963    -0.0361 C.3     
  23 N23            4.2627    -0.8362     1.3226 N.3     
  24 C24            5.4097    -1.7504     1.3946 C.3     
  25 C25            6.0520    -1.6570     2.7805 C.3     
  26 C26            5.0143    -2.0254     3.8445 C.3     
  27 C27            3.8092    -1.0895     3.7165 C.3     
  28 C28            3.2319    -1.1994     2.3035 C.3     
  29 F29            4.6008    -3.3485     3.6558 F       
  30 C30            5.6237    -1.8774     5.2148 C.ar    
  31 C31            4.8996    -2.2572     6.3286 C.ar    
  32 C32            5.4702    -2.1167     7.5858 C.ar    
  33 C33            6.7543    -1.5965     7.6736 C.ar    
  34 C34            7.4159    -1.2390     6.5151 C.ar    
  35 N35            6.8438    -1.3919     5.3364 N.ar    
  36 Cl36           4.5989    -2.5796     9.0142 Cl      
  37 H37            1.1958    -1.8011    -0.0179 H       
  38 H38            4.5098     1.6146    -0.0310 H       
  39 H39            4.3977     4.0486    -0.0170 H       
  40 H40            2.2325     5.2090     0.0086 H       
  41 H41           -2.4491     0.8977     0.0302 H       
  42 H42           -3.6050    -1.7191     0.6167 H       
  43 H43           -5.7507    -0.4771     0.6640 H       
  44 H44           -5.7408     1.9732     0.2840 H       
  45 H45           -4.0207     1.8963    -0.1672 H       
  46 H46           -6.3006     0.4493    -1.5903 H       
  47 H47           -5.4690     1.9084    -2.1799 H       
  48 H48           -4.5466    -0.1327    -3.2436 H       
  49 H49           -3.3233     0.6665    -2.2272 H       
  50 H50           -3.3332    -1.7839    -1.8471 H       
  51 H51           -5.0533    -1.7069    -1.3960 H       
  52 H52           -5.0871     0.9548     2.4570 H       
  53 H53            3.5401    -1.8136    -0.3909 H       
  54 H54            4.4051    -0.2891    -0.7007 H       
  55 H55            5.0717    -2.7717     1.2190 H       
  56 H56            6.1419    -1.4748     0.6356 H       
  57 H57            6.8937    -2.3470     2.8388 H       
  58 H58            6.4026    -0.6391     2.9512 H       
  59 H59            3.0486    -1.3741     4.4435 H       
  60 H60            4.1246    -0.0627     3.9020 H       
  61 H61            2.3824    -0.5236     2.2047 H       
  62 H62            2.9042    -2.2232     2.1237 H       
  63 H63            3.9024    -2.6579     6.2222 H       
  64 H64            7.2296    -1.4727     8.6354 H       
  65 H65            8.4150    -0.8333     6.5747 H       
@<TRIPOS>BOND
   1    1    2 ar
   2    1   10 ar
   3    2    3 ar
   4    2   11 1
   5    3    4 ar
   6    3   37 1
   7    4    5 ar
   8    4   22 1
   9    5    6 ar
  10    5   10 ar
  11    6    7 ar
  12    6   38 1
  13    7    8 ar
  14    7   39 1
  15    8    9 ar
  16    8   40 1
  17    9   10 ar
  18    9   21 1
  19   11   12 2
  20   11   13 am
  21   13   14 1
  22   13   41 1
  23   14   15 1
  24   14   19 1
  25   14   42 1
  26   15   16 1
  27   15   20 1
  28   15   43 1
  29   16   17 1
  30   16   44 1
  31   16   45 1
  32   17   18 1
  33   17   46 1
  34   17   47 1
  35   18   19 1
  36   18   48 1
  37   18   49 1
  38   19   50 1
  39   19   51 1
  40   20   52 1
  41   22   23 1
  42   22   53 1
  43   22   54 1
  44   23   24 1
  45   23   28 1
  46   24   25 1
  47   24   55 1
  48   24   56 1
  49   25   26 1
  50   25   57 1
  51   25   58 1
  52   26   27 1
  53   26   29 1
  54   26   30 1
  55   27   28 1
  56   27   59 1
  57   27   60 1
  58   28   61 1
  59   28   62 1
  60   30   31 ar
  61   30   35 ar
  62   31   32 ar
  63   31   63 1
  64   32   33 ar
  65   32   36 1
  66   33   34 ar
  67   33   64 1
  68   34   35 ar
  69   34   65 1

#	End of record

