#	Name: ASD00071021
#	Creating user name:	WinNT
#	Creation time:	15. 06. 2019 18:30

#	Modifying user name:	WinNT
#	Modification time:	15. 06. 2019 18:30

#	Program:	/corina/corina34_cracker 3.40 0067  02.08.2006

@<TRIPOS>MOLECULE
ASD00071021
  48   50    0    0    0
SMALL
NO_CHARGES


@<TRIPOS>ATOM
   1 N1            -0.0539     1.2622    -0.3889 N.ar    
   2 C2            -0.0207    -0.0441    -0.2231 C.ar    
   3 C3             1.1911    -0.7471    -0.1794 C.ar    
   4 C4             2.3703    -0.0765    -0.3107 C.ar    
   5 C5             2.3286     1.3208    -0.4883 C.ar    
   6 C6             3.5073     2.0705    -0.6301 C.ar    
   7 C7             3.4319     3.4224    -0.8011 C.ar    
   8 C8             2.1891     4.0707    -0.8366 C.ar    
   9 C9             1.0274     3.3663    -0.7013 C.ar    
  10 C10            1.0719     1.9741    -0.5234 C.ar    
  11 N11           -1.2134    -0.7406    -0.0880 N.pl3   
  12 O12            2.1404     5.4179    -1.0076 O.3     
  13 C13            0.8456     6.0219    -1.0355 C.3     
  14 O14            4.5737     4.1481    -0.9379 O.3     
  15 C15            5.8082     3.4299    -0.8926 C.3     
  16 C16            1.1900    -2.2418     0.0128 C.3     
  17 C17            2.5977    -2.7652    -0.1117 C.ar    
  18 C18            3.3897    -2.9029     1.0178 C.ar    
  19 C19            4.6856    -3.3851     0.9006 C.ar    
  20 C20            5.1869    -3.7278    -0.3406 C.ar    
  21 C21            4.3995    -3.5915    -1.4678 C.ar    
  22 C22            3.1010    -3.1151    -1.3551 C.ar    
  23 O23            2.3252    -2.9865    -2.4635 O.3     
  24 C24            2.9088    -3.3659    -3.7115 C.3     
  25 O25            2.8974    -2.5656     2.2388 O.3     
  26 C26            3.7691    -2.7333     3.3587 C.3     
  27 H27            3.3130    -0.6027    -0.2790 H       
  28 H28            4.4690     1.5798    -0.6036 H       
  29 H29            0.0770     3.8785    -0.7302 H       
  30 H30           -2.0533    -0.2583    -0.0339 H       
  31 H31           -1.2073    -1.7098    -0.0477 H       
  32 H32            0.2661     5.6012    -1.8572 H       
  33 H33            0.3337     5.8276    -0.0930 H       
  34 H34            0.9495     7.0976    -1.1775 H       
  35 H35            5.8977     2.9214     0.0674 H       
  36 H36            5.8305     2.6945    -1.6968 H       
  37 H37            6.6382     4.1260    -1.0137 H       
  38 H38            0.7997    -2.4806     1.0021 H       
  39 H39            0.5614    -2.7054    -0.7475 H       
  40 H40            5.3031    -3.4922     1.7802 H       
  41 H41            6.1958    -4.1026    -0.4298 H       
  42 H42            4.7935    -3.8600    -2.4369 H       
  43 H43            2.1849    -3.2142    -4.5121 H       
  44 H44            3.7922    -2.7559    -3.8999 H       
  45 H45            3.1944    -4.4172    -3.6743 H       
  46 H46            4.0597    -3.7808     3.4392 H       
  47 H47            4.6589    -2.1189     3.2217 H       
  48 H48            3.2535    -2.4282     4.2693 H       
@<TRIPOS>BOND
   1    1    2 ar
   2    1   10 ar
   3    2    3 ar
   4    2   11 1
   5    3    4 ar
   6    3   16 1
   7    4    5 ar
   8    4   27 1
   9    5    6 ar
  10    5   10 ar
  11    6    7 ar
  12    6   28 1
  13    7    8 ar
  14    7   14 1
  15    8    9 ar
  16    8   12 1
  17    9   10 ar
  18    9   29 1
  19   11   30 1
  20   11   31 1
  21   12   13 1
  22   13   32 1
  23   13   33 1
  24   13   34 1
  25   14   15 1
  26   15   35 1
  27   15   36 1
  28   15   37 1
  29   16   17 1
  30   16   38 1
  31   16   39 1
  32   17   18 ar
  33   17   22 ar
  34   18   19 ar
  35   18   25 1
  36   19   20 ar
  37   19   40 1
  38   20   21 ar
  39   20   41 1
  40   21   22 ar
  41   21   42 1
  42   22   23 1
  43   23   24 1
  44   24   43 1
  45   24   44 1
  46   24   45 1
  47   25   26 1
  48   26   46 1
  49   26   47 1
  50   26   48 1

#	End of record

