#	Name: ASD03540100
#	Creating user name:	WinNT
#	Creation time:	15. 06. 2019 20:42

#	Modifying user name:	WinNT
#	Modification time:	15. 06. 2019 20:42

#	Program:	/corina/corina34_cracker 3.40 0067  02.08.2006

@<TRIPOS>MOLECULE
ASD03540100
  49   53    0    0    0
SMALL
NO_CHARGES


@<TRIPOS>ATOM
   1 C1            -0.7374     2.1366    -0.4596 C.2     
   2 C2            -0.1174     0.8106    -0.2531 C.ar    
   3 C3             1.2702     0.6841    -0.2322 C.ar    
   4 C4             1.8462    -0.5692    -0.0371 C.ar    
   5 C5             3.3174    -0.7127    -0.0128 C.2     
   6 C6             1.0305    -1.6902     0.1362 C.ar    
   7 C7            -0.3435    -1.5579     0.1138 C.ar    
   8 C8            -0.9211    -0.3175    -0.0729 C.ar    
   9 O9            -0.1124     3.1467    -0.2007 O.2     
  10 N10           -1.9934     2.2258    -0.9402 N.am    
  11 O11            4.0259     0.2637    -0.1633 O.2     
  12 N12            3.8731    -1.9259     0.1760 N.am    
  13 O13            9.3766    -2.2858    -0.0202 O.3     
  14 C14            9.6635    -1.1749     0.8497 C.3     
  15 O15            8.4927    -0.3439     0.7409 O.3     
  16 C16            7.4716    -1.1921     0.4229 C.ar    
  17 C17            8.0146    -2.3868    -0.0453 C.ar    
  18 C18            6.0974    -1.0405     0.4957 C.ar    
  19 C19            5.2630    -2.0785     0.1022 C.ar    
  20 C20            5.8071    -3.2675    -0.3639 C.ar    
  21 C21            7.1789    -3.4199    -0.4364 C.ar    
  22 O22           -4.6599     7.0321    -1.4356 O.3     
  23 C23           -5.9986     6.5051    -1.3779 C.3     
  24 O24           -5.8498     5.1436    -1.8220 O.3     
  25 C25           -4.5690     4.7941    -1.5042 C.ar    
  26 C26           -3.8367     5.9553    -1.2664 C.ar    
  27 C27           -3.9561     3.5575    -1.3962 C.ar    
  28 C28           -2.6136     3.4763    -1.0505 C.ar    
  29 C29           -1.8867     4.6350    -0.8137 C.ar    
  30 C30           -2.4976     5.8700    -0.9222 C.ar    
  31 C31           -2.7097     1.0144    -1.3471 C.3     
  32 H32            1.8962     1.5538    -0.3669 H       
  33 H33            1.4758    -2.6624     0.2875 H       
  34 H34           -0.9696    -2.4277     0.2479 H       
  35 H35           -1.9967    -0.2202    -0.0845 H       
  36 H36            3.3102    -2.6934     0.3631 H       
  37 H37            9.7966    -1.5166     1.8761 H       
  38 H38           10.5476    -0.6378     0.5061 H       
  39 H39            5.6745    -0.1154     0.8587 H       
  40 H40            5.1578    -4.0745    -0.6698 H       
  41 H41            7.5999    -4.3457    -0.7997 H       
  42 H42           -6.3784     6.5354    -0.3566 H       
  43 H43           -6.6568     7.0570    -2.0489 H       
  44 H44           -4.5221     2.6561    -1.5798 H       
  45 H45           -0.8427     4.5714    -0.5449 H       
  46 H46           -1.9301     6.7702    -0.7379 H       
  47 H47           -3.3442     0.6751    -0.5283 H       
  48 H48           -3.3269     1.2327    -2.2186 H       
  49 H49           -1.9910     0.2340    -1.5972 H       
@<TRIPOS>BOND
   1    1    2 1
   2    1    9 2
   3    1   10 am
   4    2    3 ar
   5    2    8 ar
   6    3    4 ar
   7    3   32 1
   8    4    5 1
   9    4    6 ar
  10    5   11 2
  11    5   12 am
  12    6    7 ar
  13    6   33 1
  14    7    8 ar
  15    7   34 1
  16    8   35 1
  17   10   28 1
  18   10   31 1
  19   12   19 1
  20   12   36 1
  21   13   14 1
  22   13   17 1
  23   14   15 1
  24   14   37 1
  25   14   38 1
  26   15   16 1
  27   16   17 ar
  28   16   18 ar
  29   17   21 ar
  30   18   19 ar
  31   18   39 1
  32   19   20 ar
  33   20   21 ar
  34   20   40 1
  35   21   41 1
  36   22   23 1
  37   22   26 1
  38   23   24 1
  39   23   42 1
  40   23   43 1
  41   24   25 1
  42   25   26 ar
  43   25   27 ar
  44   26   30 ar
  45   27   28 ar
  46   27   44 1
  47   28   29 ar
  48   29   30 ar
  49   29   45 1
  50   30   46 1
  51   31   47 1
  52   31   48 1
  53   31   49 1

#	End of record

