#	Name: ASD01208974
#	Creating user name:	WinNT
#	Creation time:	15. 06. 2019 19:10

#	Modifying user name:	WinNT
#	Modification time:	15. 06. 2019 19:10

#	Program:	/corina/corina34_cracker 3.40 0067  02.08.2006

@<TRIPOS>MOLECULE
ASD01208974
  49   52    0    0    0
SMALL
NO_CHARGES


@<TRIPOS>ATOM
   1 C1            -2.1070     1.7022     0.4097 C.3     
   2 C2            -2.0408     0.2317     0.8333 C.3     
   3 C3            -1.2188    -0.5584    -0.1871 C.3     
   4 C4            -1.3163    -2.0527     0.1266 C.3     
   5 C5            -0.6326    -2.3361     1.4393 C.2     
   6 N6             0.6524    -1.9732     1.6220 N.am    
   7 C7             1.3163    -2.3301     2.7905 C.2     
   8 N8            -2.7258    -2.4419     0.2161 N.pl3   
   9 C9            -3.5096    -2.3402     1.3099 C.2     
  10 C10           -4.7381    -2.8027     0.9814 C.2     
  11 C11           -4.7040    -3.2006    -0.3590 C.2     
  12 N12           -3.4998    -2.9796    -0.8204 N.2     
  13 O13           -1.2388    -2.8908     2.3315 O.2     
  14 S14            2.9405    -1.9378     3.1524 S.3     
  15 C15            2.8076    -2.7685     4.7003 C.2     
  16 C16            1.5696    -3.2587     4.8020 C.2     
  17 N17            0.7920    -3.0034     3.7655 N.2     
  18 Cl18           4.0664    -2.9236     5.8856 Cl      
  19 S19           -6.1342    -2.8886     2.0530 S.o2    
  20 O20           -6.9232    -3.9419     1.5170 O.2     
  21 O21           -5.5717    -2.9838     3.3545 O.2     
  22 C22           -6.9701    -1.2933     1.8361 C.3     
  23 C23           -8.1766    -1.0006     2.7302 C.3     
  24 C24           -6.8520    -0.2738     2.9708 C.3     
  25 C25           -1.3758     0.1378     2.2100 C.3     
  26 C26           -2.1607     0.9947     3.2067 C.3     
  27 O27           -2.2105     2.3436     2.7374 O.3     
  28 C28           -2.8637     2.4987     1.4759 C.3     
  29 H29           -1.0965     2.0979     0.3082 H       
  30 H30           -2.6285     1.7834    -0.5440 H       
  31 H31           -3.0492    -0.1786     0.8853 H       
  32 H32           -1.6060    -0.3713    -1.1886 H       
  33 H33           -0.1764    -0.2437    -0.1359 H       
  34 H34           -0.8316    -2.6227    -0.6660 H       
  35 H35            1.1142    -1.4631     0.9383 H       
  36 H36           -3.2099    -1.9585     2.2747 H       
  37 H37           -5.5302    -3.6146    -0.9180 H       
  38 H38            1.2307    -3.8149     5.6635 H       
  39 H39           -6.9951    -0.9106     0.8158 H       
  40 H40           -8.9953    -0.4250     2.2983 H       
  41 H41           -8.4682    -1.7666     3.4488 H       
  42 H42           -6.2720    -0.5616     3.8477 H       
  43 H43           -6.7991     0.7800     2.6971 H       
  44 H44           -1.3743    -0.8998     2.5438 H       
  45 H45           -0.3505     0.5019     2.1449 H       
  46 H46           -3.1742     0.6053     3.3017 H       
  47 H47           -1.6674     0.9659     4.1783 H       
  48 H48           -2.8769     3.5533     1.2006 H       
  49 H49           -3.8865     2.1289     1.5482 H       
@<TRIPOS>BOND
   1    1    2 1
   2    1   28 1
   3    1   29 1
   4    1   30 1
   5    2    3 1
   6    2   25 1
   7    2   31 1
   8    3    4 1
   9    3   32 1
  10    3   33 1
  11    4    5 1
  12    4    8 1
  13    4   34 1
  14    5    6 am
  15    5   13 2
  16    6    7 1
  17    6   35 1
  18    7   14 1
  19    7   17 2
  20    8    9 1
  21    8   12 1
  22    9   10 2
  23    9   36 1
  24   10   11 1
  25   10   19 1
  26   11   12 2
  27   11   37 1
  28   14   15 1
  29   15   16 2
  30   15   18 1
  31   16   17 1
  32   16   38 1
  33   19   20 2
  34   19   21 2
  35   19   22 1
  36   22   23 1
  37   22   24 1
  38   22   39 1
  39   23   24 1
  40   23   40 1
  41   23   41 1
  42   24   42 1
  43   24   43 1
  44   25   26 1
  45   25   44 1
  46   25   45 1
  47   26   27 1
  48   26   46 1
  49   26   47 1
  50   27   28 1
  51   28   48 1
  52   28   49 1

#	End of record

