#	Name: ASD01815662
#	Creating user name:	WinNT
#	Creation time:	15. 06. 2019 19:33

#	Modifying user name:	WinNT
#	Modification time:	15. 06. 2019 19:33

#	Program:	/corina/corina34_cracker 3.40 0067  02.08.2006

@<TRIPOS>MOLECULE
ASD01815662
  52   54    0    0    0
SMALL
NO_CHARGES


@<TRIPOS>ATOM
   1 C1            -0.0165     1.3623     0.0095 C.2     
   2 C2             0.0021    -0.0041     0.0020 C.2     
   3 C3             1.1658     2.2288     0.0029 C.2     
   4 O4             2.2796     1.7384    -0.0104 O.2     
   5 N5             1.0194     3.5685     0.0115 N.am    
   6 C6             2.2011     4.4345     0.0049 C.3     
   7 C7             1.8462     5.7878     0.6252 C.3     
   8 N8             3.0247     6.6635     0.5996 N.3     
   9 C9             3.4657     6.9202    -0.7773 C.3     
  10 C10            3.8689     5.6007    -1.4395 C.3     
  11 C11            2.6711     4.6470    -1.4368 C.3     
  12 C12            2.7614     7.9214     1.3112 C.3     
  13 C13            4.0455     8.7518     1.3710 C.3     
  14 C14            3.7758    10.0469     2.1436 C.3     
  15 N15            2.6379    10.7392     1.5236 N.am    
  16 C16            1.3805    10.0029     1.3350 C.3     
  17 C17            1.6770     8.7083     0.5714 C.3     
  18 C18            2.7453    12.0254     1.1356 C.2     
  19 O19            3.7905    12.6236     1.2974 O.2     
  20 O20            1.6944    12.6475     0.5687 O.3     
  21 C21            1.8819    14.0327     0.1755 C.3     
  22 C22            0.5892    14.5661    -0.4452 C.3     
  23 C23           -1.2530    -0.5649     0.0110 C.2     
  24 C24           -2.2656     0.3099     0.0254 C.2     
  25 S25           -1.6858     1.9145     0.0208 S.3     
  26 H26            0.9121    -0.5855    -0.0104 H       
  27 H27            0.1317     3.9594     0.0221 H       
  28 H28            2.9981     3.9670     0.5829 H       
  29 H29            1.0392     6.2482     0.0552 H       
  30 H30            1.5247     5.6415     1.6564 H       
  31 H31            2.6511     7.3753    -1.3407 H       
  32 H32            4.3206     7.5964    -0.7648 H       
  33 H33            4.1814     5.7896    -2.4666 H       
  34 H34            4.6927     5.1519    -0.8846 H       
  35 H35            2.9660     3.6905    -1.8685 H       
  36 H36            1.8606     5.0784    -2.0244 H       
  37 H37            2.4234     7.7019     2.3239 H       
  38 H38            4.8242     8.1815     1.8774 H       
  39 H39            4.3703     8.9929     0.3589 H       
  40 H40            3.5388     9.8109     3.1810 H       
  41 H41            4.6579    10.6861     2.1045 H       
  42 H42            0.9481     9.7633     2.3064 H       
  43 H43            0.6821    10.6131     0.7623 H       
  44 H44            2.0242     8.9498    -0.4332 H       
  45 H45            0.7700     8.1070     0.5087 H       
  46 H46            2.1365    14.6280     1.0524 H       
  47 H47            2.6890    14.0972    -0.5542 H       
  48 H48            0.3346    13.9708    -1.3221 H       
  49 H49           -0.2179    14.5016     0.2845 H       
  50 H50            0.7299    15.6059    -0.7403 H       
  51 H51           -1.4103    -1.6334     0.0064 H       
  52 H52           -3.3104     0.0366     0.0333 H       
@<TRIPOS>BOND
   1    1    2 2
   2    1    3 1
   3    1   25 1
   4    2   23 1
   5    2   26 1
   6    3    4 2
   7    3    5 am
   8    5    6 1
   9    5   27 1
  10    6    7 1
  11    6   11 1
  12    6   28 1
  13    7    8 1
  14    7   29 1
  15    7   30 1
  16    8    9 1
  17    8   12 1
  18    9   10 1
  19    9   31 1
  20    9   32 1
  21   10   11 1
  22   10   33 1
  23   10   34 1
  24   11   35 1
  25   11   36 1
  26   12   13 1
  27   12   17 1
  28   12   37 1
  29   13   14 1
  30   13   38 1
  31   13   39 1
  32   14   15 1
  33   14   40 1
  34   14   41 1
  35   15   16 1
  36   15   18 am
  37   16   17 1
  38   16   42 1
  39   16   43 1
  40   17   44 1
  41   17   45 1
  42   18   19 2
  43   18   20 1
  44   20   21 1
  45   21   22 1
  46   21   46 1
  47   21   47 1
  48   22   48 1
  49   22   49 1
  50   22   50 1
  51   23   24 2
  52   23   51 1
  53   24   25 1
  54   24   52 1

#	End of record

