#	Name: ASD08170811
#	Creating user name:	WinNT
#	Creation time:	15. 06. 2019 21:18

#	Modifying user name:	WinNT
#	Modification time:	15. 06. 2019 21:18

#	Program:	/corina/corina34_cracker 3.40 0067  02.08.2006

@<TRIPOS>MOLECULE
ASD08170811
  60   63    0    0    0
SMALL
NO_CHARGES


@<TRIPOS>ATOM
   1 C1            -0.0155     1.2910     0.0091 C.2     
   2 N2             0.0021    -0.0041     0.0020 N.2     
   3 N3            -1.1192    -0.5842     0.0096 N.2     
   4 C4            -2.1834     0.1604     0.0237 C.2     
   5 S5            -1.7028     1.8047     0.0357 S.3     
   6 N6            -3.4954    -0.3008     0.0338 N.am    
   7 C7            -3.7441    -1.6254     0.0295 C.2     
   8 C8            -5.1658    -2.1251     0.0403 C.3     
   9 O9            -2.8238    -2.4152     0.0169 O.2     
  10 C10            1.1892     2.1964     0.0025 C.3     
  11 C11            1.5828     2.5110    -1.4422 C.3     
  12 C12            2.8059     3.4301    -1.4489 C.3     
  13 C13            3.1995     3.7448    -2.8935 C.3     
  14 C14            4.4042     4.6501    -2.9002 C.2     
  15 N15            5.6432     4.2729    -2.9149 N.2     
  16 S16            4.3802     6.4139    -2.8969 S.3     
  17 C17            6.0933     6.4179    -2.9086 C.2     
  18 N18            6.5124     5.1885    -2.9181 N.2     
  19 N19            6.9013     7.5498    -2.9121 N.am    
  20 C20            8.2428     7.4202    -2.9215 C.2     
  21 C21            9.1183     8.6468    -2.9253 C.3     
  22 O22            8.7453     6.3164    -2.9269 O.2     
  23 C23            8.9126     9.4068    -4.2103 C.ar    
  24 C24            8.0902    10.5176    -4.2323 C.ar    
  25 C25            9.5509     8.9964    -5.3658 C.ar    
  26 C26            9.3623     9.6934    -6.5445 C.ar    
  27 C27            8.5350    10.8007    -6.5679 C.ar    
  28 C28            7.9015    11.2147    -5.4110 C.ar    
  29 C29           -5.8267    -1.7317     1.3363 C.ar    
  30 C30           -6.6645    -0.6330     1.3791 C.ar    
  31 C31           -5.5995    -2.4727     2.4809 C.ar    
  32 C32           -6.2058    -2.1118     3.6696 C.ar    
  33 C33           -7.0388    -1.0095     3.7138 C.ar    
  34 C34           -7.2707    -0.2720     2.5679 C.ar    
  35 O35           -5.1713    -3.5487    -0.0841 O.3     
  36 O36           10.4882     8.2545    -2.8179 O.3     
  37 H37           -4.2314     0.3309     0.0438 H       
  38 H38           -5.7119    -1.6853    -0.7942 H       
  39 H39            0.9501     3.1232     0.5240 H       
  40 H40            2.0193     1.7002     0.5054 H       
  41 H41            1.8219     1.5842    -1.9637 H       
  42 H42            0.7527     3.0071    -1.9450 H       
  43 H43            2.5668     4.3569    -0.9274 H       
  44 H44            3.6360     2.9340    -0.9460 H       
  45 H45            3.4386     2.8179    -3.4151 H       
  46 H46            2.3694     4.2409    -3.3964 H       
  47 H47            6.4993     8.4326    -2.9079 H       
  48 H48            8.8553     9.2835    -2.0806 H       
  49 H49            7.5947    10.8407    -3.3287 H       
  50 H50           10.1972     8.1313    -5.3475 H       
  51 H51            9.8615     9.3732    -7.4471 H       
  52 H52            8.3879    11.3455    -7.4887 H       
  53 H53            7.2552    12.0798    -5.4293 H       
  54 H54           -6.8452    -0.0564     0.4840 H       
  55 H55           -4.9487    -3.3339     2.4463 H       
  56 H56           -6.0289    -2.6912     4.5637 H       
  57 H57           -7.5127    -0.7278     4.6425 H       
  58 H58           -7.9216     0.5891     2.6024 H       
  59 H59           -4.7021    -4.0074     0.6262 H       
  60 H60           10.7918     7.6850    -3.5380 H       
@<TRIPOS>BOND
   1    1    2 2
   2    1   10 1
   3    1    5 1
   4    2    3 1
   5    3    4 2
   6    4    5 1
   7    4    6 1
   8    6    7 am
   9    6   37 1
  10    7    8 1
  11    7    9 2
  12    8   29 1
  13    8   35 1
  14    8   38 1
  15   10   11 1
  16   10   39 1
  17   10   40 1
  18   11   12 1
  19   11   41 1
  20   11   42 1
  21   12   13 1
  22   12   43 1
  23   12   44 1
  24   13   14 1
  25   13   45 1
  26   13   46 1
  27   14   15 2
  28   14   16 1
  29   15   18 1
  30   16   17 1
  31   17   18 2
  32   17   19 1
  33   19   20 am
  34   19   47 1
  35   20   21 1
  36   20   22 2
  37   21   23 1
  38   21   36 1
  39   21   48 1
  40   23   24 ar
  41   23   25 ar
  42   24   28 ar
  43   24   49 1
  44   25   26 ar
  45   25   50 1
  46   26   27 ar
  47   26   51 1
  48   27   28 ar
  49   27   52 1
  50   28   53 1
  51   29   30 ar
  52   29   31 ar
  53   30   34 ar
  54   30   54 1
  55   31   32 ar
  56   31   55 1
  57   32   33 ar
  58   32   56 1
  59   33   34 ar
  60   33   57 1
  61   34   58 1
  62   35   59 1
  63   36   60 1

#	End of record

