#	Name: ASD01231143
#	Creating user name:	WinNT
#	Creation time:	15. 06. 2019 19:15

#	Modifying user name:	WinNT
#	Modification time:	15. 06. 2019 19:15

#	Program:	/corina/corina34_cracker 3.40 0067  02.08.2006

@<TRIPOS>MOLECULE
ASD01231143
  45   48    0    0    0
SMALL
NO_CHARGES


@<TRIPOS>ATOM
   1 S1            -1.6208     2.7528     1.5545 S.o2    
   2 N2            -1.3517     1.2758     0.8760 N.am    
   3 C3            -0.2269     0.8823     0.4273 C.2     
   4 N4             0.9293     1.6183     0.4823 N.pl3   
   5 C5             1.1098     2.6847     1.4608 C.3     
   6 C6            -0.0642     3.6617     1.3702 C.3     
   7 C7            -0.0951    -0.4911    -0.2109 C.3     
   8 C8             1.2822    -1.0401     0.1700 C.3     
   9 C9             2.3978    -0.1594    -0.3766 C.3     
  10 C10            1.9808     1.3019    -0.4900 C.3     
  11 C11           -1.1736    -1.4048     0.3116 C.ar    
  12 C12           -2.0836    -1.9691    -0.5633 C.ar    
  13 C13           -3.0735    -2.8067    -0.0869 C.ar    
  14 C14           -3.1537    -3.0819     1.2707 C.ar    
  15 C15           -2.2390    -2.5147     2.1464 C.ar    
  16 C16           -1.2479    -1.6819     1.6642 C.ar    
  17 O17           -4.1267    -3.9051     1.7419 O.3     
  18 C18           -4.9330    -4.5226     0.8384 C.ar    
  19 C19           -4.5703    -5.7540     0.3119 C.ar    
  20 C20           -5.3913    -6.3806    -0.6067 C.ar    
  21 C21           -6.5758    -5.7790    -1.0015 C.ar    
  22 C22           -6.9379    -4.5507    -0.4765 C.ar    
  23 C23           -6.1217    -3.9249     0.4463 C.ar    
  24 F24           -7.3774    -6.3919    -1.8997 F       
  25 Cl25          -4.9383    -7.9211    -1.2666 Cl      
  26 O26           -2.6312     3.3300     0.7389 O.2     
  27 O27           -1.8677     2.4654     2.9240 O.2     
  28 H28            1.1498     2.2563     2.4623 H       
  29 H29            2.0400     3.2141     1.2543 H       
  30 H30           -0.0475     4.1611     0.4015 H       
  31 H31            0.0190     4.4044     2.1636 H       
  32 H32           -0.1733    -0.4054    -1.2947 H       
  33 H33            1.3613    -1.0836     1.2562 H       
  34 H34            1.3902    -2.0461    -0.2355 H       
  35 H35            3.2602    -0.2301     0.2862 H       
  36 H36            2.6829    -0.5229    -1.3639 H       
  37 H37            1.6080     1.4917    -1.4965 H       
  38 H38            2.8461     1.9377    -0.3026 H       
  39 H39           -2.0207    -1.7546    -1.6199 H       
  40 H40           -3.7844    -3.2466    -0.7706 H       
  41 H41           -2.2993    -2.7273     3.2036 H       
  42 H42           -0.5330    -1.2437     2.3448 H       
  43 H43           -3.6471    -6.2224     0.6194 H       
  44 H44           -7.8613    -4.0830    -0.7850 H       
  45 H45           -6.4071    -2.9685     0.8589 H       
@<TRIPOS>BOND
   1    1    2 am
   2    1    6 1
   3    1   26 2
   4    1   27 2
   5    2    3 2
   6    3    4 1
   7    3    7 1
   8    4    5 1
   9    4   10 1
  10    5    6 1
  11    5   28 1
  12    5   29 1
  13    6   30 1
  14    6   31 1
  15    7    8 1
  16    7   11 1
  17    7   32 1
  18    8    9 1
  19    8   33 1
  20    8   34 1
  21    9   10 1
  22    9   35 1
  23    9   36 1
  24   10   37 1
  25   10   38 1
  26   11   12 ar
  27   11   16 ar
  28   12   13 ar
  29   12   39 1
  30   13   14 ar
  31   13   40 1
  32   14   15 ar
  33   14   17 1
  34   15   16 ar
  35   15   41 1
  36   16   42 1
  37   17   18 1
  38   18   19 ar
  39   18   23 ar
  40   19   20 ar
  41   19   43 1
  42   20   21 ar
  43   20   25 1
  44   21   22 ar
  45   21   24 1
  46   22   23 ar
  47   22   44 1
  48   23   45 1

#	End of record

