#	Name: ASD07130007
#	Creating user name:	WinNT
#	Creation time:	15. 06. 2019 21:09

#	Modifying user name:	WinNT
#	Modification time:	15. 06. 2019 21:09

#	Program:	/corina/corina34_cracker 3.40 0067  02.08.2006

@<TRIPOS>MOLECULE
ASD07130007
  32   34    0    0    0
SMALL
NO_CHARGES


@<TRIPOS>ATOM
   1 C1            -0.0167     1.3837     0.0096 C.ar    
   2 C2             0.0021    -0.0041     0.0020 C.ar    
   3 C3             1.1885    -0.6822    -0.0125 C.ar    
   4 C4             2.3914     0.0260    -0.0201 C.ar    
   5 C5             2.3778     1.4330    -0.0129 C.ar    
   6 C6             1.1588     2.1025     0.0023 C.ar    
   7 C7             3.8031    -0.3649    -0.0352 C.2     
   8 C8             4.5239     0.7676    -0.0363 C.2     
   9 N9             3.6894     1.8519    -0.0231 N.pl3   
  10 C10            4.3437    -1.7715    -0.0469 C.3     
  11 N11            4.2820    -2.3085    -1.4128 N.3     
  12 C12            5.0128    -3.5802    -1.5125 C.3     
  13 C13            4.8729    -4.1330    -2.9334 C.3     
  14 O14            5.3494    -3.1601    -3.8670 O.3     
  15 C15            4.6592    -1.9094    -3.7978 C.3     
  16 C16            4.7969    -1.3341    -2.3858 C.3     
  17 H17           -0.9623     1.9054     0.0169 H       
  18 H18           -0.9283    -0.5525     0.0079 H       
  19 H19            1.1954    -1.7621    -0.0176 H       
  20 H20            1.1336     3.1822     0.0076 H       
  21 H21            5.6028     0.8157    -0.0464 H       
  22 H22            3.9787     2.7777    -0.0218 H       
  23 H23            5.3787    -1.7659     0.2949 H       
  24 H24            3.7454    -2.3962     0.6164 H       
  25 H25            6.0665    -3.4129    -1.2892 H       
  26 H26            4.5984    -4.2949    -0.8015 H       
  27 H27            5.4602    -5.0464    -3.0280 H       
  28 H28            3.8246    -4.3507    -3.1376 H       
  29 H29            5.0918    -1.2146    -4.5177 H       
  30 H30            3.6047    -2.0624    -4.0273 H       
  31 H31            4.2249    -0.4092    -2.3122 H       
  32 H32            5.8471    -1.1309    -2.1764 H       
@<TRIPOS>BOND
   1    1    2 ar
   2    1    6 ar
   3    1   17 1
   4    2    3 ar
   5    2   18 1
   6    3    4 ar
   7    3   19 1
   8    4    5 ar
   9    4    7 1
  10    5    6 ar
  11    5    9 1
  12    6   20 1
  13    7    8 2
  14    7   10 1
  15    8    9 1
  16    8   21 1
  17    9   22 1
  18   10   11 1
  19   10   23 1
  20   10   24 1
  21   11   12 1
  22   11   16 1
  23   12   13 1
  24   12   25 1
  25   12   26 1
  26   13   14 1
  27   13   27 1
  28   13   28 1
  29   14   15 1
  30   15   16 1
  31   15   29 1
  32   15   30 1
  33   16   31 1
  34   16   32 1

#	End of record

