#	Name: ASD01813218
#	Creating user name:	WinNT
#	Creation time:	15. 06. 2019 19:30

#	Modifying user name:	WinNT
#	Modification time:	15. 06. 2019 19:30

#	Program:	/corina/corina34_cracker 3.40 0067  02.08.2006

@<TRIPOS>MOLECULE
ASD01813218
  47   50    0    0    0
SMALL
NO_CHARGES


@<TRIPOS>ATOM
   1 C1            -0.5914     0.6122     0.5182 C.2     
   2 C2            -0.2988    -0.7582     0.5005 C.2     
   3 C3             0.9904    -1.1673     0.3226 C.2     
   4 C4             2.0032    -0.2074     0.1602 C.2     
   5 N5             1.6891     1.1243     0.1820 N.am    
   6 C6             0.3969     1.5213     0.3602 C.2     
   7 C7             3.3290    -0.6252    -0.0227 C.2     
   8 C8             4.3205     0.2991    -0.1811 C.2     
   9 C9             3.9937     1.6676    -0.1586 C.2     
  10 C10            2.6512     2.0561     0.0276 C.2     
  11 O11            2.3590     3.2399     0.0480 O.2     
  12 C12            5.0391     2.6796    -0.3258 C.2     
  13 O13            4.7193     3.9899    -0.3033 O.3     
  14 O14            6.1958     2.3385    -0.4850 O.2     
  15 C15            3.6593    -2.0954    -0.0439 C.3     
  16 N16            3.6580    -2.5776    -1.4315 N.3     
  17 C17            4.0494    -4.0017    -1.4979 C.3     
  18 C18            4.8217    -4.1379    -2.8338 C.3     
  19 C19            5.5888    -2.7906    -2.8910 C.3     
  20 C20            4.5904    -1.7952    -2.2637 C.3     
  21 C21            5.7778    -5.3020    -2.7884 C.ar    
  22 C22            6.5641    -5.5938    -3.8873 C.ar    
  23 C23            7.4410    -6.6615    -3.8457 C.ar    
  24 C24            7.5319    -7.4373    -2.7051 C.ar    
  25 C25            6.7462    -7.1449    -1.6060 C.ar    
  26 C26            5.8724    -6.0745    -1.6460 C.ar    
  27 C27            3.8933    -4.2647    -3.9690 C.1     
  28 N28            3.1768    -4.3625    -4.8451 N.1     
  29 H29           -1.6104     0.9432     0.6541 H       
  30 H30           -1.0877    -1.4849     0.6271 H       
  31 H31            1.2305    -2.2202     0.3072 H       
  32 H32            0.1600     2.5749     0.3758 H       
  33 H33            5.3439    -0.0161    -0.3217 H       
  34 H34            5.4433     4.6205    -0.4178 H       
  35 H35            4.6448    -2.2527     0.3945 H       
  36 H36            2.9137    -2.6437     0.5319 H       
  37 H37            4.6958    -4.2572    -0.6582 H       
  38 H38            3.1648    -4.6385    -1.5044 H       
  39 H39            6.5036    -2.8426    -2.3006 H       
  40 H40            5.8097    -2.5164    -3.9226 H       
  41 H41            4.0406    -1.2767    -3.0492 H       
  42 H42            5.1247    -1.0746    -1.6445 H       
  43 H43            6.4931    -4.9877    -4.7784 H       
  44 H44            8.0549    -6.8899    -4.7044 H       
  45 H45            8.2165    -8.2719    -2.6729 H       
  46 H46            6.8170    -7.7512    -0.7150 H       
  47 H47            5.2586    -5.8461    -0.7873 H       
@<TRIPOS>BOND
   1    1    2 1
   2    1    6 2
   3    1   29 1
   4    2    3 2
   5    2   30 1
   6    3    4 1
   7    3   31 1
   8    4    5 1
   9    4    7 2
  10    5    6 1
  11    5   10 am
  12    6   32 1
  13    7    8 1
  14    7   15 1
  15    8    9 2
  16    8   33 1
  17    9   10 1
  18    9   12 1
  19   10   11 2
  20   12   13 1
  21   12   14 2
  22   13   34 1
  23   15   16 1
  24   15   35 1
  25   15   36 1
  26   16   17 1
  27   16   20 1
  28   17   18 1
  29   17   37 1
  30   17   38 1
  31   18   19 1
  32   18   21 1
  33   18   27 1
  34   19   20 1
  35   19   39 1
  36   19   40 1
  37   20   41 1
  38   20   42 1
  39   21   22 ar
  40   21   26 ar
  41   22   23 ar
  42   22   43 1
  43   23   24 ar
  44   23   44 1
  45   24   25 ar
  46   24   45 1
  47   25   26 ar
  48   25   46 1
  49   26   47 1
  50   27   28 3

#	End of record

