#	Name: ASD01840044
#	Creating user name:	WinNT
#	Creation time:	15. 06. 2019 19:37

#	Modifying user name:	WinNT
#	Modification time:	15. 06. 2019 19:37

#	Program:	/corina/corina34_cracker 3.40 0067  02.08.2006

@<TRIPOS>MOLECULE
ASD01840044
  38   41    0    0    0
SMALL
NO_CHARGES


@<TRIPOS>ATOM
   1 C1             0.0630     1.4267     0.0917 C.ar    
   2 C2            -1.0729     2.1062     0.3887 C.ar    
   3 C3            -2.2180     1.3912     0.7615 C.ar    
   4 N4            -2.2149     0.0777     0.8236 N.ar    
   5 C5            -1.1249    -0.6398     0.5368 C.ar    
   6 C6             0.0551     0.0085     0.1613 C.ar    
   7 S7            -0.8848    -2.3827     0.5468 S.3     
   8 C8             0.7895    -2.2323     0.0513 C.2     
   9 C9             1.1348    -0.9234    -0.1093 C.2     
  10 O10           -3.3531     2.0674     1.0650 O.3     
  11 N11            2.4012    -0.5192    -0.4961 N.pl3   
  12 C12            1.6639    -3.3211    -0.1535 C.2     
  13 C13            1.1466    -4.7084    -0.0925 C.ar    
  14 O14            2.8440    -3.1203    -0.3804 O.2     
  15 N15            0.1911    -7.2713     0.0203 N.ar    
  16 C16           -0.6057    -6.3106    -0.4047 C.ar    
  17 C17           -0.1649    -5.0040    -0.4775 C.ar    
  18 C18            1.9583    -5.7594     0.3463 C.ar    
  19 C19            1.4356    -7.0368     0.3873 C.ar    
  20 C20           -1.1617     3.6082     0.3279 C.3     
  21 C21            0.2348     4.2277     0.3391 C.3     
  22 C22            1.0773     3.5433    -0.7440 C.3     
  23 C23            1.3457     2.1035    -0.3059 C.3     
  24 H24           -3.9327     2.2233     0.3069 H       
  25 H25            2.7063     0.3791    -0.2943 H       
  26 H26            2.9833    -1.1344    -0.9690 H       
  27 H27           -1.6183    -6.5481    -0.6957 H       
  28 H28           -0.8232    -4.2220    -0.8263 H       
  29 H29            2.9787    -5.5747     0.6481 H       
  30 H30            2.0530    -7.8543     0.7295 H       
  31 H31           -1.6779     3.9013    -0.5863 H       
  32 H32           -1.7229     3.9705     1.1892 H       
  33 H33            0.1644     5.2951     0.1294 H       
  34 H34            0.6964     4.0746     1.3145 H       
  35 H35            0.5331     3.5454    -1.6884 H       
  36 H36            2.0226     4.0728    -0.8631 H       
  37 H37            2.0291     2.1063     0.5433 H       
  38 H38            1.8007     1.5558    -1.1312 H       
@<TRIPOS>BOND
   1    1    6 ar
   2    1   23 1
   3    1    2 ar
   4    2    3 ar
   5    2   20 1
   6    3    4 ar
   7    3   10 1
   8    4    5 ar
   9    5    7 1
  10    5    6 ar
  11    6    9 1
  12    7    8 1
  13    8    9 2
  14    8   12 1
  15    9   11 1
  16   10   24 1
  17   11   25 1
  18   11   26 1
  19   12   13 1
  20   12   14 2
  21   13   18 ar
  22   13   17 ar
  23   15   16 ar
  24   15   19 ar
  25   16   17 ar
  26   16   27 1
  27   17   28 1
  28   18   19 ar
  29   18   29 1
  30   19   30 1
  31   20   21 1
  32   20   31 1
  33   20   32 1
  34   21   22 1
  35   21   33 1
  36   21   34 1
  37   22   23 1
  38   22   35 1
  39   22   36 1
  40   23   37 1
  41   23   38 1

#	End of record

