#	Name: ASD01900640
#	Creating user name:	WinNT
#	Creation time:	15. 06. 2019 19:52

#	Modifying user name:	WinNT
#	Modification time:	15. 06. 2019 19:52

#	Program:	/corina/corina34_cracker 3.40 0067  02.08.2006

@<TRIPOS>MOLECULE
ASD01900640
  48   52    0    0    0
SMALL
NO_CHARGES


@<TRIPOS>ATOM
   1 C1            -0.0186     1.4182     0.1363 C.ar    
   2 C2            -0.0086     0.0184     0.1254 C.ar    
   3 C3             1.2004    -0.6775     0.0646 C.ar    
   4 C4             2.3944     0.0227     0.0146 C.ar    
   5 C5             2.3659     1.4260     0.0307 C.ar    
   6 O6             3.5722    -0.6342    -0.0563 O.3     
   7 C7             4.7413    -0.0182     0.1902 C.2     
   8 C8             4.8674     1.3292     0.2208 C.2     
   9 C9             3.6621     2.1483    -0.0102 C.2     
  10 C10            5.9385    -0.8462     0.4376 C.ar    
  11 N11            7.1077    -0.2483     0.6841 N.ar    
  12 C12            8.2095    -0.9183     0.9125 C.ar    
  13 C13            8.1981    -2.3242     0.9056 C.ar    
  14 C14            6.9749    -2.9986     0.6477 C.ar    
  15 C15            5.8246    -2.2275     0.4149 C.ar    
  16 C16            9.3584    -3.0754     1.1455 C.ar    
  17 C17            9.2943    -4.4362     1.1274 C.ar    
  18 C18            8.0938    -5.0971     0.8743 C.ar    
  19 C19            6.9467    -4.4016     0.6369 C.ar    
  20 C20            1.1580     2.1127     0.0893 C.ar    
  21 C21           -1.2795    -0.7238     0.1789 C.2     
  22 C22           -2.4444    -0.0576     0.2380 C.2     
  23 C23           -3.7161    -0.8003     0.2915 C.ar    
  24 C24           -4.9300    -0.1106     0.3530 C.ar    
  25 C25           -3.7143    -2.1977     0.2752 C.ar    
  26 C26           -4.9083    -2.8860     0.3251 C.ar    
  27 C27           -6.1063    -2.1963     0.3907 C.ar    
  28 C28           -6.1161    -0.8125     0.4024 C.ar    
  29 N29            3.7318     3.4376    -0.2393 N.2     
  30 O30            2.5669     4.1562    -0.6022 O.3     
  31 H31           -0.9575     1.9504     0.1773 H       
  32 H32            1.2044    -1.7575     0.0569 H       
  33 H33            5.8246     1.7923     0.4096 H       
  34 H34            9.1306    -0.3888     1.1065 H       
  35 H35            4.8743    -2.7000     0.2148 H       
  36 H36           10.2966    -2.5782     1.3428 H       
  37 H37           10.1889    -5.0123     1.3119 H       
  38 H38            8.0726    -6.1768     0.8658 H       
  39 H39            6.0228    -4.9259     0.4424 H       
  40 H40            1.1494     3.1926     0.0977 H       
  41 H41           -1.2748    -1.8038     0.1707 H       
  42 H42           -2.4491     1.0224     0.2462 H       
  43 H43           -4.9392     0.9693     0.3621 H       
  44 H44           -2.7802    -2.7373     0.2233 H       
  45 H45           -4.9086    -3.9659     0.3126 H       
  46 H46           -7.0383    -2.7406     0.4289 H       
  47 H47           -7.0549    -0.2810     0.4537 H       
  48 H48            2.7171     5.0998    -0.7505 H       
@<TRIPOS>BOND
   1    1    2 ar
   2    1   20 ar
   3    1   31 1
   4    2    3 ar
   5    2   21 1
   6    3    4 ar
   7    3   32 1
   8    4    5 ar
   9    4    6 1
  10    5   20 ar
  11    5    9 1
  12    6    7 1
  13    7    8 2
  14    7   10 1
  15    8    9 1
  16    8   33 1
  17    9   29 2
  18   10   11 ar
  19   10   15 ar
  20   11   12 ar
  21   12   13 ar
  22   12   34 1
  23   13   14 ar
  24   13   16 ar
  25   14   15 ar
  26   14   19 ar
  27   15   35 1
  28   16   17 ar
  29   16   36 1
  30   17   18 ar
  31   17   37 1
  32   18   19 ar
  33   18   38 1
  34   19   39 1
  35   20   40 1
  36   21   22 2
  37   21   41 1
  38   22   23 1
  39   22   42 1
  40   23   24 ar
  41   23   25 ar
  42   24   28 ar
  43   24   43 1
  44   25   26 ar
  45   25   44 1
  46   26   27 ar
  47   26   45 1
  48   27   28 ar
  49   27   46 1
  50   28   47 1
  51   29   30 1
  52   30   48 1

#	End of record

