#	Name: ASD01881882
#	Creating user name:	WinNT
#	Creation time:	15. 06. 2019 19:43

#	Modifying user name:	WinNT
#	Modification time:	15. 06. 2019 19:43

#	Program:	/corina/corina34_cracker 3.40 0067  02.08.2006

@<TRIPOS>MOLECULE
ASD01881882
  41   44    0    0    0
SMALL
NO_CHARGES


@<TRIPOS>ATOM
   1 C1            -0.0161     1.3353     0.0094 C.2     
   2 N2             0.0021    -0.0041     0.0020 N.am    
   3 C3             1.3973    -0.4682    -0.0138 C.3     
   4 C4             2.2200     0.8349    -0.0147 C.3     
   5 N5             1.2009     1.8949     0.0008 N.am    
   6 O6            -1.0442     1.9843     0.0179 O.2     
   7 C7             1.4733     3.3343     0.0059 C.3     
   8 C8             1.5825     3.8276     1.4501 C.3     
   9 O9             2.7183     3.2256     2.0744 O.3     
  10 N10            3.9137     4.4069     7.2878 N.pl3   
  11 N11            5.0503     3.5895     7.3747 N.2     
  12 N12            5.2397     2.9984     6.2481 N.2     
  13 C13            4.2883     3.3591     5.3639 C.ar    
  14 C14            3.4261     4.2627     6.0089 C.ar    
  15 C15            4.0418     3.0125     4.0283 C.ar    
  16 C16            2.9602     3.5603     3.3701 C.ar    
  17 C17            2.1145     4.4541     4.0227 C.ar    
  18 C18            2.3432     4.8023     5.3241 C.ar    
  19 C19            3.3525     5.2443     8.3509 C.3     
  20 C20            3.9819     6.6374     8.2886 C.3     
  21 C21            3.4408     7.7006     9.2466 C.3     
  22 C22            4.8220     7.0873     9.4856 C.3     
  23 Br23           5.1847     1.8001     3.1341 Br      
  24 H24           -0.7808    -0.5768     0.0064 H       
  25 H25            1.6147    -1.0573     0.8772 H       
  26 H26            1.5976    -1.0477    -0.9150 H       
  27 H27            2.8458     0.8928     0.8759 H       
  28 H28            2.8287     0.9025    -0.9163 H       
  29 H29            2.4101     3.5287    -0.5162 H       
  30 H30            0.6613     3.8596    -0.4970 H       
  31 H31            1.6965     4.9116     1.4562 H       
  32 H32            0.6800     3.5541     1.9967 H       
  33 H33            1.2716     4.8759     3.4956 H       
  34 H34            1.6817     5.4964     5.8213 H       
  35 H35            2.2739     5.3266     8.2174 H       
  36 H36            3.5653     4.7925     9.3198 H       
  37 H37            4.2988     6.9663     7.2989 H       
  38 H38            3.4021     8.7289     8.8873 H       
  39 H39            2.6364     7.4075     9.9212 H       
  40 H40            4.9263     6.3908    10.3175 H       
  41 H41            5.6919     7.7122     9.2835 H       
@<TRIPOS>BOND
   1    1    2 am
   2    1    5 am
   3    1    6 2
   4    2    3 1
   5    2   24 1
   6    3    4 1
   7    3   25 1
   8    3   26 1
   9    4    5 1
  10    4   27 1
  11    4   28 1
  12    5    7 1
  13    7    8 1
  14    7   29 1
  15    7   30 1
  16    8    9 1
  17    8   31 1
  18    8   32 1
  19    9   16 1
  20   10   11 1
  21   10   14 1
  22   10   19 1
  23   11   12 2
  24   12   13 1
  25   13   14 ar
  26   13   15 ar
  27   14   18 ar
  28   15   16 ar
  29   15   23 1
  30   16   17 ar
  31   17   18 ar
  32   17   33 1
  33   18   34 1
  34   19   20 1
  35   19   35 1
  36   19   36 1
  37   20   21 1
  38   20   22 1
  39   20   37 1
  40   21   22 1
  41   21   38 1
  42   21   39 1
  43   22   40 1
  44   22   41 1

#	End of record

