#	Name: ASD08150408
#	Creating user name:	WinNT
#	Creation time:	15. 06. 2019 21:16

#	Modifying user name:	WinNT
#	Modification time:	15. 06. 2019 21:16

#	Program:	/corina/corina34_cracker 3.40 0067  02.08.2006

@<TRIPOS>MOLECULE
ASD08150408
  48   53    0    0    0
SMALL
NO_CHARGES


@<TRIPOS>ATOM
   1 N1             0.8847     2.9188    -1.5526 N.am    
   2 C2             1.3125     2.2943    -2.6670 C.2     
   3 C3             2.5223     1.5707    -2.6718 C.2     
   4 C4             3.2765     1.4934    -1.5460 C.2     
   5 C5             2.8295     2.1492    -0.3717 C.ar    
   6 C6             3.5738     2.1010     0.8224 C.ar    
   7 N7             3.1592     2.7073     1.9041 N.ar    
   8 C8             2.0131     3.4038     1.9418 C.ar    
   9 C9             1.2000     3.5059     0.7862 C.ar    
  10 C10            1.6204     2.8612    -0.4007 C.ar    
  11 C11            0.0069     4.2333     0.8362 C.ar    
  12 C12           -0.3680     4.8485     2.0198 C.ar    
  13 C13            0.4422     4.7434     3.1591 C.ar    
  14 C14            1.6053     4.0395     3.1261 C.ar    
  15 O15            0.6442     2.3556    -3.6849 O.2     
  16 C16           -1.6318     5.6220     2.0815 C.ar    
  17 C17           -0.3178     3.6362    -1.5751 C.ar    
  18 C18           -2.7631     5.1860     1.3735 C.ar    
  19 C19           -0.3114     4.9945    -1.8625 C.ar    
  20 C20           -1.5004     5.7008    -1.8846 C.ar    
  21 C21           -2.6973     5.0522    -1.6198 C.ar    
  22 C22           -2.7037     3.6978    -1.3331 C.ar    
  23 C23           -1.5187     2.9885    -1.3155 C.ar    
  24 F24           -3.8581     5.7429    -1.6411 F       
  25 F25           -1.4957     7.0226    -2.1637 F       
  26 N26           -3.8913     5.8485     1.4096 N.ar    
  27 C27           -4.0232     6.9724     2.1222 C.ar    
  28 C28           -2.9261     7.4771     2.8649 C.ar    
  29 C29           -1.7066     6.7788     2.8440 C.ar    
  30 C30           -5.2432     7.6705     2.1482 C.ar    
  31 C31           -5.3535     8.8124     2.8804 C.ar    
  32 C32           -4.2738     9.3070     3.6094 C.ar    
  33 C33           -3.0763     8.6595     3.6093 C.ar    
  34 H34            2.8498     1.0758    -3.5742 H       
  35 H35            4.2039     0.9398    -1.5449 H       
  36 H36            4.5041     1.5529     0.8455 H       
  37 H37           -0.6174     4.3154    -0.0412 H       
  38 H38            0.1386     5.2280     4.0753 H       
  39 H39            2.2169     3.9684     4.0134 H       
  40 H40           -2.7008     4.2827     0.7848 H       
  41 H41            0.6210     5.4991    -2.0683 H       
  42 H42           -3.6367     3.1945    -1.1268 H       
  43 H43           -1.5250     1.9320    -1.0917 H       
  44 H44           -0.8515     7.1357     3.3988 H       
  45 H45           -6.0901     7.3019     1.5885 H       
  46 H46           -6.2934     9.3443     2.8964 H       
  47 H47           -4.3883    10.2158     4.1815 H       
  48 H48           -2.2466     9.0521     4.1784 H       
@<TRIPOS>BOND
   1    1    2 am
   2    1   10 1
   3    1   17 1
   4    2    3 1
   5    2   15 2
   6    3    4 2
   7    3   34 1
   8    4    5 1
   9    4   35 1
  10    5    6 ar
  11    5   10 ar
  12    6    7 ar
  13    6   36 1
  14    7    8 ar
  15    8    9 ar
  16    8   14 ar
  17    9   10 ar
  18    9   11 ar
  19   11   12 ar
  20   11   37 1
  21   12   13 ar
  22   12   16 1
  23   13   14 ar
  24   13   38 1
  25   14   39 1
  26   16   18 ar
  27   16   29 ar
  28   17   19 ar
  29   17   23 ar
  30   18   26 ar
  31   18   40 1
  32   19   20 ar
  33   19   41 1
  34   20   21 ar
  35   20   25 1
  36   21   22 ar
  37   21   24 1
  38   22   23 ar
  39   22   42 1
  40   23   43 1
  41   26   27 ar
  42   27   28 ar
  43   27   30 ar
  44   28   29 ar
  45   28   33 ar
  46   29   44 1
  47   30   31 ar
  48   30   45 1
  49   31   32 ar
  50   31   46 1
  51   32   33 ar
  52   32   47 1
  53   33   48 1

#	End of record

