#	Name: ASD05060060
#	Creating user name:	WinNT
#	Creation time:	15. 06. 2019 20:56

#	Modifying user name:	WinNT
#	Modification time:	15. 06. 2019 20:56

#	Program:	/corina/corina34_cracker 3.40 0067  02.08.2006

@<TRIPOS>MOLECULE
ASD05060060
  63   66    0    0    0
SMALL
NO_CHARGES


@<TRIPOS>ATOM
   1 C1            -2.4895    -2.9976    -0.0318 C.2     
   2 C2            -1.2333    -2.2165     0.0418 C.2     
   3 C3            -0.0394    -2.8484    -0.0228 C.2     
   4 C4             1.1966    -2.0694    -0.1582 C.2     
   5 O5            -2.4474    -4.2062    -0.1502 O.2     
   6 N6            -3.6793    -2.3684     0.0382 N.am    
   7 O7             1.1416    -0.8652    -0.3306 O.2     
   8 C8            -4.9219    -3.1410    -0.0345 C.3     
   9 C9            -6.0600    -2.3758     0.6632 C.3     
  10 C10           -7.1381    -2.1153    -0.4090 C.3     
  11 C11           -6.8932    -3.2175    -1.4694 C.3     
  12 C12           -5.3481    -3.3189    -1.5064 C.3     
  13 O13           -6.6038    -3.1660     1.7224 O.3     
  14 O14           -1.2802    -0.8703     0.1738 O.3     
  15 C15            3.7061    -1.9899    -0.1052 C.2     
  16 C16            2.5020    -2.7429    -0.0856 C.2     
  17 C17            2.5798    -4.1325     0.0042 C.2     
  18 C18            3.8349    -4.7350     0.0716 C.2     
  19 C19            4.9595    -3.9732     0.0496 C.2     
  20 N20            4.8923    -2.6236    -0.0369 N.am    
  21 O21            3.6660    -0.7747    -0.1881 O.2     
  22 C22            3.9446    -6.2348     0.1696 C.3     
  23 C23            3.8250    -6.6540     1.6122 C.ar    
  24 C24            2.5745    -6.8413     2.1772 C.ar    
  25 C25            2.4650    -7.2268     3.5019 C.ar    
  26 C26            3.6059    -7.4246     4.2607 C.ar    
  27 C27            4.8550    -7.2368     3.6938 C.ar    
  28 C28            4.9632    -6.8569     2.3691 C.ar    
  29 F29            3.5004    -7.8005     5.5541 F       
  30 F30            1.4620    -6.6475     1.4356 F       
  31 C31            6.1301    -1.8402    -0.0582 C.3     
  32 C32            6.5214    -1.4810     1.3521 C.ar    
  33 C33            7.1649    -2.4119     2.1504 C.ar    
  34 C34            7.5246    -2.0815     3.4453 C.ar    
  35 C35            7.2406    -0.8206     3.9412 C.ar    
  36 C36            6.5973     0.1085     3.1413 C.ar    
  37 C37            6.2432    -0.2209     1.8463 C.ar    
  38 F38            7.5908    -0.4968     5.2052 F       
  39 F39            7.4410    -3.6423     1.6654 F       
  40 H40            0.0043    -3.9265     0.0252 H       
  41 H41           -3.7129    -1.4040     0.1368 H       
  42 H42           -4.7843    -4.1152     0.4347 H       
  43 H43           -5.6878    -1.4296     1.0560 H       
  44 H44           -8.1350    -2.2140     0.0206 H       
  45 H45           -7.0074    -1.1267    -0.8491 H       
  46 H46           -7.3349    -4.1625    -1.1534 H       
  47 H47           -7.2837    -2.9129    -2.4404 H       
  48 H48           -4.9283    -2.5246    -2.1238 H       
  49 H49           -5.0387    -4.2959    -1.8778 H       
  50 H50           -7.3264    -2.7378     2.2015 H       
  51 H51           -0.4155    -0.4575     0.3042 H       
  52 H52            1.6818    -4.7322     0.0216 H       
  53 H53            5.9255    -4.4532     0.1025 H       
  54 H54            3.1453    -6.6962    -0.4103 H       
  55 H55            4.9098    -6.5549    -0.2229 H       
  56 H56            1.4903    -7.3727     3.9434 H       
  57 H57            5.7451    -7.3910     4.2856 H       
  58 H58            5.9380    -6.7145     1.9265 H       
  59 H59            6.9246    -2.4287    -0.5170 H       
  60 H60            5.9735    -0.9288    -0.6351 H       
  61 H61            8.0261    -2.8070     4.0687 H       
  62 H62            6.3756     1.0923     3.5279 H       
  63 H63            5.7450     0.5059     1.2217 H       
@<TRIPOS>BOND
   1    1    2 1
   2    1    5 2
   3    1    6 am
   4    2    3 2
   5    2   14 1
   6    3    4 1
   7    3   40 1
   8    4    7 2
   9    4   16 1
  10    6    8 1
  11    6   41 1
  12    8    9 1
  13    8   12 1
  14    8   42 1
  15    9   10 1
  16    9   13 1
  17    9   43 1
  18   10   11 1
  19   10   44 1
  20   10   45 1
  21   11   12 1
  22   11   46 1
  23   11   47 1
  24   12   48 1
  25   12   49 1
  26   13   50 1
  27   14   51 1
  28   15   16 1
  29   15   20 am
  30   15   21 2
  31   16   17 2
  32   17   18 1
  33   17   52 1
  34   18   19 2
  35   18   22 1
  36   19   20 1
  37   19   53 1
  38   20   31 1
  39   22   23 1
  40   22   54 1
  41   22   55 1
  42   23   24 ar
  43   23   28 ar
  44   24   25 ar
  45   24   30 1
  46   25   26 ar
  47   25   56 1
  48   26   27 ar
  49   26   29 1
  50   27   28 ar
  51   27   57 1
  52   28   58 1
  53   31   32 1
  54   31   59 1
  55   31   60 1
  56   32   33 ar
  57   32   37 ar
  58   33   34 ar
  59   33   39 1
  60   34   35 ar
  61   34   61 1
  62   35   36 ar
  63   35   38 1
  64   36   37 ar
  65   36   62 1
  66   37   63 1

#	End of record

