#	Name: ASD01881888
#	Creating user name:	WinNT
#	Creation time:	15. 06. 2019 19:43

#	Modifying user name:	WinNT
#	Modification time:	15. 06. 2019 19:43

#	Program:	/corina/corina34_cracker 3.40 0067  02.08.2006

@<TRIPOS>MOLECULE
ASD01881888
  40   43    0    0    0
SMALL
NO_CHARGES


@<TRIPOS>ATOM
   1 N1            -0.0154     1.2839     0.0091 N.pl3   
   2 N2             0.0021    -0.0041     0.0020 N.2     
   3 N3             1.2033    -0.4649    -0.0119 N.2     
   4 C4             2.0741     0.5645    -0.0147 C.ar    
   5 C5             1.2843     1.7298    -0.0009 C.ar    
   6 C6             3.4670     0.6759    -0.0271 C.ar    
   7 C7             4.0484     1.9285    -0.0255 C.ar    
   8 C8             3.2560     3.0739    -0.0118 C.ar    
   9 C9             1.8924     2.9784    -0.0004 C.ar    
  10 O10            5.4033     2.0444    -0.0370 O.3     
  11 C11            5.9411     3.3683    -0.0346 C.3     
  12 C12            7.4694     3.2979    -0.0487 C.3     
  13 C13            8.0367     4.6941    -0.0462 C.ar    
  14 C14            8.9411     5.0623     0.9321 C.ar    
  15 C15            9.4573     6.3489     0.9251 C.ar    
  16 C16            9.0426     7.2210    -0.0701 C.ar    
  17 C17            8.1351     6.7818    -1.0151 C.ar    
  18 N18            7.6686     5.5487    -0.9805 N.ar    
  19 C19           -1.2133     2.1272     0.0196 C.3     
  20 C20           -1.6228     2.4135     1.4657 C.3     
  21 C21           -2.7884     3.3784     1.6921 C.3     
  22 C22           -2.9777     1.8797     1.9352 C.3     
  23 Br23           4.5472    -0.8761    -0.0451 Br      
  24 H24            3.7236     4.0474    -0.0103 H       
  25 H25            1.2882     3.8735     0.0099 H       
  26 H26            5.5939     3.9031    -0.9187 H       
  27 H27            5.6098     3.8935     0.8612 H       
  28 H28            7.8167     2.7631     0.8353 H       
  29 H29            7.8008     2.7728    -0.9445 H       
  30 H30            9.2416     4.3567     1.6925 H       
  31 H31           10.1653     6.6646     1.6770 H       
  32 H32            9.4238     8.2308    -0.1060 H       
  33 H33            7.8071     7.4549    -1.7934 H       
  34 H34           -1.0007     3.0667    -0.4906 H       
  35 H35           -2.0254     1.6113    -0.4926 H       
  36 H36           -0.8089     2.4286     2.1906 H       
  37 H37           -2.7415     4.0280     2.5661 H       
  38 H38           -3.2635     3.8093     0.8108 H       
  39 H39           -3.5773     1.3246     1.2137 H       
  40 H40           -3.0553     1.5434     2.9691 H       
@<TRIPOS>BOND
   1    1    2 1
   2    1    5 1
   3    1   19 1
   4    2    3 2
   5    3    4 1
   6    4    5 ar
   7    4    6 ar
   8    5    9 ar
   9    6    7 ar
  10    6   23 1
  11    7    8 ar
  12    7   10 1
  13    8    9 ar
  14    8   24 1
  15    9   25 1
  16   10   11 1
  17   11   12 1
  18   11   26 1
  19   11   27 1
  20   12   13 1
  21   12   28 1
  22   12   29 1
  23   13   14 ar
  24   13   18 ar
  25   14   15 ar
  26   14   30 1
  27   15   16 ar
  28   15   31 1
  29   16   17 ar
  30   16   32 1
  31   17   18 ar
  32   17   33 1
  33   19   20 1
  34   19   34 1
  35   19   35 1
  36   20   21 1
  37   20   22 1
  38   20   36 1
  39   21   22 1
  40   21   37 1
  41   21   38 1
  42   22   39 1
  43   22   40 1

#	End of record

