#	Name: ASD01908042
#	Creating user name:	WinNT
#	Creation time:	15. 06. 2019 19:54

#	Modifying user name:	WinNT
#	Modification time:	15. 06. 2019 19:54

#	Program:	/corina/corina34_cracker 3.40 0067  02.08.2006

@<TRIPOS>MOLECULE
ASD01908042
  30   32    0    0    0
SMALL
NO_CHARGES


@<TRIPOS>ATOM
   1 S1            -0.8990     0.3126    -2.5438 S.3     
   2 C2            -0.4004    -0.6668    -1.1676 C.2     
   3 N3             0.7441    -1.2216    -1.4271 N.2     
   4 C4             1.2848    -0.9593    -2.6087 C.2     
   5 C5             0.5723    -0.1416    -3.4005 C.2     
   6 N6            -1.1176    -0.8209     0.0083 N.pl3   
   7 N7             4.3743    -2.0127    -4.2031 N.pl3   
   8 N8             4.4664    -2.6769    -2.9740 N.2     
   9 C9             3.4037    -2.3927    -2.2680 C.2     
  10 C10            2.5904    -1.5305    -3.0281 C.2     
  11 C11            3.2187    -1.3151    -4.2192 C.2     
  12 C12            3.1013    -2.9000    -0.8815 C.3     
  13 C13           -2.3944    -0.2581     0.1287 C.ar    
  14 C14           -3.5141    -0.9784    -0.2710 C.ar    
  15 C15           -4.7735    -0.4190    -0.1505 C.ar    
  16 C16           -4.9193     0.8553     0.3664 C.ar    
  17 C17           -3.8080     1.5751     0.7651 C.ar    
  18 C18           -2.5458     1.0203     0.6536 C.ar    
  19 F19           -1.4611     1.7221     1.0486 F       
  20 F20           -3.3725    -2.2231    -0.7769 F       
  21 H21            0.8528     0.1820    -4.3920 H       
  22 H22           -0.7353    -1.3187     0.7479 H       
  23 H23            5.0294    -2.0449    -4.9177 H       
  24 H24            2.8572    -0.6982    -5.0286 H       
  25 H25            3.5127    -2.2103    -0.1445 H       
  26 H26            2.0219    -2.9724    -0.7486 H       
  27 H27            3.5506    -3.8842    -0.7487 H       
  28 H28           -5.6439    -0.9780    -0.4608 H       
  29 H29           -5.9039     1.2896     0.4585 H       
  30 H30           -3.9261     2.5700     1.1683 H       
@<TRIPOS>BOND
   1    1    2 1
   2    1    5 1
   3    2    3 2
   4    2    6 1
   5    3    4 1
   6    4    5 2
   7    4   10 1
   8    5   21 1
   9    6   13 1
  10    6   22 1
  11    7    8 1
  12    7   11 1
  13    7   23 1
  14    8    9 2
  15    9   10 1
  16    9   12 1
  17   10   11 2
  18   11   24 1
  19   12   25 1
  20   12   26 1
  21   12   27 1
  22   13   14 ar
  23   13   18 ar
  24   14   15 ar
  25   14   20 1
  26   15   16 ar
  27   15   28 1
  28   16   17 ar
  29   16   29 1
  30   17   18 ar
  31   17   30 1
  32   18   19 1

#	End of record

