#	Name: ASD01410572
#	Creating user name:	WinNT
#	Creation time:	15. 06. 2019 19:18

#	Modifying user name:	WinNT
#	Modification time:	15. 06. 2019 19:18

#	Program:	/corina/corina34_cracker 3.40 0067  02.08.2006

@<TRIPOS>MOLECULE
ASD01410572
  84   87    0    0    0
SMALL
NO_CHARGES


@<TRIPOS>ATOM
   1 C1            -0.9785    -0.5189    -1.1994 C.ar    
   2 C2            -0.4320    -0.3743    -2.4610 C.ar    
   3 C3             0.9311    -0.5147    -2.6471 C.ar    
   4 C4             1.7503    -0.7997    -1.5723 C.ar    
   5 C5             1.2044    -0.9449    -0.3046 C.ar    
   6 C6            -0.1634    -0.8036    -0.1207 C.ar    
   7 O7             2.0081    -1.2258     0.7544 O.3     
   8 C8             3.3396    -1.3745     0.5234 C.ar    
   9 C9             3.9078    -2.6428     0.5381 C.ar    
  10 C10            5.2584    -2.8050     0.3049 C.ar    
  11 C11            6.0599    -1.7000     0.0541 C.ar    
  12 C12            5.4925    -0.4168     0.0379 C.ar    
  13 C13            4.1233    -0.2637     0.2691 C.ar    
  14 N14            7.4243    -1.8645    -0.1805 N.am    
  15 C15            7.8760    -2.0345    -1.4389 C.2     
  16 C16            8.3670    -1.8526     0.9408 C.3     
  17 O17            9.0508    -2.2623    -1.6358 O.2     
  18 C18            6.9213    -1.9415    -2.6012 C.3     
  19 C19           -1.3235    -0.0638    -3.6357 C.3     
  20 C20            7.3485    -2.9257    -3.6920 C.3     
  21 C21            6.3792    -2.8313    -4.8720 C.3     
  22 C22            6.3966    -1.4082    -5.4338 C.3     
  23 C23            5.9694    -0.4241    -4.3429 C.3     
  24 C24            6.9387    -0.5185    -3.1629 C.3     
  25 C25            5.4273    -1.3138    -6.6138 C.3     
  26 C26            7.6366    -1.4285     2.2166 C.3     
  27 O27            9.7456    -3.5959    -0.0082 O.3     
  28 C28            8.9523    -3.2535     1.1299 C.3     
  29 C29           10.3418    -4.8924     0.0676 C.3     
  30 O30            7.1854    -0.0794     2.0811 O.3     
  31 C31            6.4866     0.4173     3.2244 C.3     
  32 C32           -1.4459     1.4301    -3.7923 C.ar    
  33 C33           -1.1298     2.0181    -5.0022 C.ar    
  34 C34           -1.2458     3.3934    -5.1359 C.ar    
  35 C35           -1.6774     4.1285    -4.0426 C.ar    
  36 C36           -1.9755     3.4708    -2.8640 C.ar    
  37 N37           -1.8586     2.1605    -2.7747 N.ar    
  38 C38           -2.4450     4.2598    -1.6690 C.3     
  39 C39            6.3356     0.7628    -0.2270 C.2     
  40 O40            7.5078     0.6198    -0.5137 O.2     
  41 O41            5.8066     1.9999    -0.1512 O.3     
  42 C42           -0.7597    -0.9600     1.2544 C.3     
  43 F43           -2.1446    -0.7741     1.1862 F       
  44 F44           -0.4847    -2.2434     1.7387 F       
  45 F45           -0.2031    -0.0078     2.1151 F       
  46 H46           -2.0428    -0.4047    -1.0561 H       
  47 H47            1.3554    -0.4016    -3.6338 H       
  48 H48            2.8147    -0.9099    -1.7183 H       
  49 H49            3.2890    -3.5062     0.7334 H       
  50 H50            5.6925    -3.7938     0.3179 H       
  51 H51            3.6794     0.7208     0.2582 H       
  52 H52            9.1717    -1.1478     0.7315 H       
  53 H53            5.9141    -2.1870    -2.2645 H       
  54 H54           -0.8924    -0.4899    -4.5416 H       
  55 H55           -2.3108    -0.4934    -3.4662 H       
  56 H56            8.3557    -2.6802    -4.0286 H       
  57 H57            7.3361    -3.9395    -3.2918 H       
  58 H58            6.6835    -3.5324    -5.6492 H       
  59 H59            5.3719    -3.0767    -4.5354 H       
  60 H60            7.4038    -1.1628    -5.7704 H       
  61 H61            5.9818     0.5897    -4.7431 H       
  62 H62            4.9622    -0.6695    -4.0063 H       
  63 H63            6.6344     0.1826    -2.3858 H       
  64 H64            7.9459    -0.2730    -3.4995 H       
  65 H65            4.4201    -1.5593    -6.2772 H       
  66 H66            5.4397    -0.3000    -7.0140 H       
  67 H67            5.7316    -2.0150    -7.3909 H       
  68 H68            6.7806    -2.0833     2.3800 H       
  69 H69            8.3165    -1.5007     3.0656 H       
  70 H70            9.5746    -3.2695     2.0247 H       
  71 H71            8.1419    -3.9743     1.2381 H       
  72 H72           10.9930    -4.9424     0.9403 H       
  73 H73            9.5602    -5.6472     0.1537 H       
  74 H74           10.9270    -5.0764    -0.8334 H       
  75 H75            7.1427     0.3834     4.0942 H       
  76 H76            6.1775     1.4466     3.0424 H       
  77 H77            5.6068    -0.1991     3.4086 H       
  78 H78           -0.7962     1.4141    -5.8331 H       
  79 H79           -1.0053     3.8804    -6.0694 H       
  80 H80           -1.7790     5.2016    -4.1108 H       
  81 H81           -3.5320     4.3382    -1.6897 H       
  82 H82           -2.1346     3.7539    -0.7548 H       
  83 H83           -2.0082     5.2580    -1.6982 H       
  84 H84            6.3987     2.7425    -0.3333 H       
@<TRIPOS>BOND
   1    1    2 ar
   2    1    6 ar
   3    1   46 1
   4    2    3 ar
   5    2   19 1
   6    3    4 ar
   7    3   47 1
   8    4    5 ar
   9    4   48 1
  10    5    6 ar
  11    5    7 1
  12    6   42 1
  13    7    8 1
  14    8    9 ar
  15    8   13 ar
  16    9   10 ar
  17    9   49 1
  18   10   11 ar
  19   10   50 1
  20   11   12 ar
  21   11   14 1
  22   12   13 ar
  23   12   39 1
  24   13   51 1
  25   14   15 am
  26   14   16 1
  27   15   17 2
  28   15   18 1
  29   16   26 1
  30   16   28 1
  31   16   52 1
  32   18   20 1
  33   18   24 1
  34   18   53 1
  35   19   32 1
  36   19   54 1
  37   19   55 1
  38   20   21 1
  39   20   56 1
  40   20   57 1
  41   21   22 1
  42   21   58 1
  43   21   59 1
  44   22   23 1
  45   22   25 1
  46   22   60 1
  47   23   24 1
  48   23   61 1
  49   23   62 1
  50   24   63 1
  51   24   64 1
  52   25   65 1
  53   25   66 1
  54   25   67 1
  55   26   30 1
  56   26   68 1
  57   26   69 1
  58   27   28 1
  59   27   29 1
  60   28   70 1
  61   28   71 1
  62   29   72 1
  63   29   73 1
  64   29   74 1
  65   30   31 1
  66   31   75 1
  67   31   76 1
  68   31   77 1
  69   32   33 ar
  70   32   37 ar
  71   33   34 ar
  72   33   78 1
  73   34   35 ar
  74   34   79 1
  75   35   36 ar
  76   35   80 1
  77   36   37 ar
  78   36   38 1
  79   38   81 1
  80   38   82 1
  81   38   83 1
  82   39   40 2
  83   39   41 1
  84   41   84 1
  85   42   43 1
  86   42   44 1
  87   42   45 1

#	End of record

