#	Name: ASD04930017
#	Creating user name:	WinNT
#	Creation time:	15. 06. 2019 20:56

#	Modifying user name:	WinNT
#	Modification time:	15. 06. 2019 20:56

#	Program:	/corina/corina34_cracker 3.40 0067  02.08.2006

@<TRIPOS>MOLECULE
ASD04930017
  20   21    0    0    0
SMALL
NO_CHARGES


@<TRIPOS>ATOM
   1 C1            -0.0167     1.3811     0.0096 C.ar    
   2 C2             0.0021    -0.0041     0.0020 C.ar    
   3 C3             1.1989    -0.6958    -0.0154 C.ar    
   4 C4             2.3932     0.0025    -0.0256 C.ar    
   5 C5             2.3756     1.4112    -0.0132 C.ar    
   6 C6             1.1661     2.0971     0.0022 C.ar    
   7 N7             3.6270    -0.6345    -0.0533 N.am    
   8 C8             4.7564     0.0705     0.1557 C.2     
   9 O9             4.7349     1.3821     0.4604 O.3     
  10 C10            3.6808     2.0998    -0.0125 C.2     
  11 O11            3.8063     3.2413    -0.4102 O.2     
  12 O12            5.8280    -0.4954     0.0669 O.2     
  13 Cl13           1.1414     3.8329     0.0124 Cl      
  14 C14            3.7009    -2.0750    -0.3097 C.3     
  15 H15           -0.9611     1.9050     0.0170 H       
  16 H16           -0.9296    -0.5502     0.0102 H       
  17 H17            1.2016    -1.7757    -0.0207 H       
  18 H18            3.7912    -2.2491    -1.3819 H       
  19 H19            4.5699    -2.4907     0.2003 H       
  20 H20            2.7966    -2.5570     0.0618 H       
@<TRIPOS>BOND
   1    1    2 ar
   2    1    6 ar
   3    1   15 1
   4    2    3 ar
   5    2   16 1
   6    3    4 ar
   7    3   17 1
   8    4    5 ar
   9    4    7 1
  10    5    6 ar
  11    5   10 1
  12    6   13 1
  13    7    8 am
  14    7   14 1
  15    8    9 1
  16    8   12 2
  17    9   10 1
  18   10   11 2
  19   14   18 1
  20   14   19 1
  21   14   20 1

#	End of record

