#	Name: ASD01910202
#	Creating user name:	WinNT
#	Creation time:	15. 06. 2019 19:55

#	Modifying user name:	WinNT
#	Modification time:	15. 06. 2019 19:55

#	Program:	/corina/corina34_cracker 3.40 0067  02.08.2006

@<TRIPOS>MOLECULE
ASD01910202
  40   43    0    0    0
SMALL
NO_CHARGES


@<TRIPOS>ATOM
   1 C1            -0.0158     1.3721    -0.0215 C.ar    
   2 C2             0.0038    -0.0094    -0.0011 C.ar    
   3 C3             1.2089    -0.6953     0.0063 C.ar    
   4 C4             2.4008     0.0105    -0.0074 C.ar    
   5 C5             2.3807     1.4203    -0.0287 C.ar    
   6 C6             1.1692     2.0919    -0.0354 C.ar    
   7 C7             3.8281    -0.3735    -0.0051 C.2     
   8 N8             4.5733     0.7463    -0.0240 N.am    
   9 C9             3.7966     1.8445    -0.0387 C.2     
  10 O10            4.1924     2.9925    -0.0577 O.2     
  11 O11            4.2564    -1.5098     0.0114 O.2     
  12 C12            5.9749     0.7662    -0.0278 C.ar    
  13 C13            6.6864    -0.4269    -0.0115 C.ar    
  14 C14            8.0690    -0.4129    -0.0152 C.ar    
  15 C15            8.7514     0.7861    -0.0350 C.ar    
  16 C16            8.0454     1.9906    -0.0516 C.ar    
  17 C17            6.6507     1.9759    -0.0536 C.ar    
  18 C18            8.7736     3.2769    -0.0724 C.2     
  19 N19           10.1213     3.2883    -0.0755 N.am    
  20 C20           10.8107     4.5019    -0.1811 C.ar    
  21 C21           12.0967     4.5293    -0.7098 C.ar    
  22 C22           12.7740     5.7308    -0.8127 C.ar    
  23 C23           12.1734     6.9025    -0.3906 C.ar    
  24 C24           10.8949     6.8774     0.1358 C.ar    
  25 C25           10.2101     5.6819     0.2363 C.ar    
  26 O26            8.1569     4.3244    -0.0868 O.2     
  27 F27           12.6835     3.3843    -1.1217 F       
  28 H28           -0.9609     1.8949    -0.0313 H       
  29 H29           -0.9260    -0.5588     0.0096 H       
  30 H30            1.2182    -1.7751     0.0230 H       
  31 H31            1.1478     3.1716    -0.0520 H       
  32 H32            6.1578    -1.3685     0.0045 H       
  33 H33            8.6167    -1.3437    -0.0020 H       
  34 H34            9.8314     0.7929    -0.0375 H       
  35 H35            6.0991     2.9044    -0.0667 H       
  36 H36           10.6136     2.4555    -0.0046 H       
  37 H37           13.7729     5.7537    -1.2227 H       
  38 H38           12.7041     7.8395    -0.4719 H       
  39 H39           10.4293     7.7946     0.4650 H       
  40 H40            9.2117     5.6639     0.6476 H       
@<TRIPOS>BOND
   1    1    2 ar
   2    1    6 ar
   3    1   28 1
   4    2    3 ar
   5    2   29 1
   6    3    4 ar
   7    3   30 1
   8    4    5 ar
   9    4    7 1
  10    5    6 ar
  11    5    9 1
  12    6   31 1
  13    7    8 am
  14    7   11 2
  15    8    9 am
  16    8   12 1
  17    9   10 2
  18   12   13 ar
  19   12   17 ar
  20   13   14 ar
  21   13   32 1
  22   14   15 ar
  23   14   33 1
  24   15   16 ar
  25   15   34 1
  26   16   17 ar
  27   16   18 1
  28   17   35 1
  29   18   19 am
  30   18   26 2
  31   19   20 1
  32   19   36 1
  33   20   21 ar
  34   20   25 ar
  35   21   22 ar
  36   21   27 1
  37   22   23 ar
  38   22   37 1
  39   23   24 ar
  40   23   38 1
  41   24   25 ar
  42   24   39 1
  43   25   40 1

#	End of record

