#	Name: ASD02198278
#	Creating user name:	WinNT
#	Creation time:	15. 06. 2019 20:19

#	Modifying user name:	WinNT
#	Modification time:	15. 06. 2019 20:19

#	Program:	/corina/corina34_cracker 3.40 0067  02.08.2006

@<TRIPOS>MOLECULE
ASD02198278
  36   38    0    0    0
SMALL
NO_CHARGES


@<TRIPOS>ATOM
   1 C1            -0.0167     1.3799     0.0096 C.2     
   2 C2             0.0021    -0.0041     0.0020 C.2     
   3 S3             1.6544     1.9377    -0.0033 S.3     
   4 C4             2.2112     0.3224    -0.0173 C.2     
   5 N5             1.2119    -0.5125    -0.0123 N.2     
   6 N6            -1.1462    -0.7784     0.0093 N.pl3   
   7 C7            -1.1642     2.1948     0.0197 C.2     
   8 O8            -2.2732     1.6867     0.0224 O.2     
   9 C9            -1.0257     3.6644     0.0270 C.2     
  10 N10            3.5365    -0.0464    -0.0320 N.pl3   
  11 C11            3.9020    -1.4650    -0.0431 C.3     
  12 C12           -2.0385     4.5832     0.0370 C.2     
  13 C13           -1.3623     5.8328     0.0404 C.2     
  14 N14           -0.0811     5.5579     0.0326 N.2     
  15 O15            0.1224     4.3664     0.0311 O.3     
  16 C16           -1.9825     7.1791     0.0501 C.2     
  17 O17           -3.1915     7.2905     0.0559 O.2     
  18 O18           -1.2051     8.2785     0.0523 O.3     
  19 C19           -1.8809     9.5637     0.0619 C.3     
  20 C20           -0.8414    10.6864     0.0631 C.3     
  21 C21            5.2638    -1.8391    -0.6317 C.3     
  22 C22            5.0385    -1.9089     0.8800 C.3     
  23 H23           -2.0179    -0.3531     0.0202 H       
  24 H24           -1.0787    -1.7461     0.0034 H       
  25 H25            4.2289     0.6329    -0.0349 H       
  26 H26            3.0781    -2.1615    -0.1984 H       
  27 H27           -3.1031     4.4015     0.0407 H       
  28 H28           -2.5086     9.6507    -0.8249 H       
  29 H29           -2.5008     9.6415     0.9550 H       
  30 H30           -0.2137    10.5994     0.9499 H       
  31 H31           -0.2215    10.6085    -0.8301 H       
  32 H32           -1.3487    11.6511     0.0702 H       
  33 H33            5.3359    -2.7819    -1.1739 H       
  34 H34            5.8878    -1.0297    -1.0106 H       
  35 H35            5.5143    -1.1455     1.4956 H       
  36 H36            4.9624    -2.8977     1.3324 H       
@<TRIPOS>BOND
   1    1    2 2
   2    1    3 1
   3    1    7 1
   4    2    6 1
   5    2    5 1
   6    3    4 1
   7    4    5 2
   8    4   10 1
   9    6   23 1
  10    6   24 1
  11    7    8 2
  12    7    9 1
  13    9   12 2
  14    9   15 1
  15   10   11 1
  16   10   25 1
  17   11   21 1
  18   11   22 1
  19   11   26 1
  20   12   13 1
  21   12   27 1
  22   13   14 2
  23   13   16 1
  24   14   15 1
  25   16   17 2
  26   16   18 1
  27   18   19 1
  28   19   20 1
  29   19   28 1
  30   19   29 1
  31   20   30 1
  32   20   31 1
  33   20   32 1
  34   21   22 1
  35   21   33 1
  36   21   34 1
  37   22   35 1
  38   22   36 1

#	End of record

