#	Name: ASD01150693
#	Creating user name:	WinNT
#	Creation time:	15. 06. 2019 19:04

#	Modifying user name:	WinNT
#	Modification time:	15. 06. 2019 19:04

#	Program:	/corina/corina34_cracker 3.40 0067  02.08.2006

@<TRIPOS>MOLECULE
ASD01150693
  32   34    0    0    0
SMALL
NO_CHARGES


@<TRIPOS>ATOM
   1 C1             0.0023     1.4638     0.0137 C.2     
   2 C2            -0.4276     1.0459    -1.3689 C.3     
   3 C3             3.5395     3.7056     0.5378 C.ar    
   4 C4             2.3476     4.4120     0.3411 C.ar    
   5 C5             1.1464     3.6771     0.1626 C.ar    
   6 C6             1.2128     2.2707     0.1921 C.ar    
   7 C7             2.4560     1.6553     0.3956 C.ar    
   8 N8             3.5418     2.3681     0.5571 N.ar    
   9 C9             2.5571     5.8483     0.3545 C.2     
  10 C10            3.8063     6.2242     0.5455 C.2     
  11 S11            4.8686     4.8434     0.7372 S.3     
  12 C12            2.5431     0.1512     0.4302 C.3     
  13 C13           -0.1418     4.3707    -0.0487 C.ar    
  14 C14           -0.3454     5.1356    -1.1989 C.ar    
  15 C15           -1.5491     5.7800    -1.3912 C.ar    
  16 C16           -2.5562     5.6694    -0.4450 C.ar    
  17 C17           -2.3593     4.9116     0.6990 C.ar    
  18 C18           -1.1616     4.2584     0.8985 C.ar    
  19 F19           -3.7337     6.3028    -0.6383 F       
  20 F20           -1.5680     0.2404    -1.2791 F       
  21 F21           -0.7186     2.1829    -2.1304 F       
  22 F22            0.6045     0.3265    -1.9807 F       
  23 O23           -0.6563     1.1365     0.9787 O.2     
  24 H24            1.7516     6.5547     0.2180 H       
  25 H25            4.1330     7.2529     0.5829 H       
  26 H26            2.6352    -0.2309    -0.5864 H       
  27 H27            3.4150    -0.1489     1.0116 H       
  28 H28            1.6422    -0.2544     0.8907 H       
  29 H29            0.4387     5.2227    -1.9365 H       
  30 H30           -1.7074     6.3722    -2.2803 H       
  31 H31           -3.1470     4.8294     1.4333 H       
  32 H32           -1.0109     3.6644     1.7878 H       
@<TRIPOS>BOND
   1    1    2 1
   2    1    6 1
   3    1   23 2
   4    2   20 1
   5    2   21 1
   6    2   22 1
   7    3    4 ar
   8    3    8 ar
   9    3   11 1
  10    4    5 ar
  11    4    9 1
  12    5    6 ar
  13    5   13 1
  14    6    7 ar
  15    7    8 ar
  16    7   12 1
  17    9   10 2
  18    9   24 1
  19   10   11 1
  20   10   25 1
  21   12   26 1
  22   12   27 1
  23   12   28 1
  24   13   14 ar
  25   13   18 ar
  26   14   15 ar
  27   14   29 1
  28   15   16 ar
  29   15   30 1
  30   16   17 ar
  31   16   19 1
  32   17   18 ar
  33   17   31 1
  34   18   32 1

#	End of record

