#	Name: ASD01814230
#	Creating user name:	WinNT
#	Creation time:	15. 06. 2019 19:31

#	Modifying user name:	WinNT
#	Modification time:	15. 06. 2019 19:31

#	Program:	/corina/corina34_cracker 3.40 0067  02.08.2006

@<TRIPOS>MOLECULE
ASD01814230
  44   47    0    0    0
SMALL
NO_CHARGES


@<TRIPOS>ATOM
   1 C1            -0.0337     1.3701    -0.0230 C.ar    
   2 C2            -0.0085    -0.0158    -0.0283 C.ar    
   3 C3             1.1886    -0.6994    -0.0338 C.ar    
   4 C4             2.3911     0.0012    -0.0340 C.ar    
   5 C5             2.3661     1.4067    -0.0286 C.ar    
   6 C6             1.1462     2.0875    -0.0231 C.ar    
   7 N7             3.5937    -0.6724    -0.0390 N.pl3   
   8 C8             4.7768    -0.0447    -0.0385 C.2     
   9 C9             4.8791     1.3315    -0.0335 C.2     
  10 C10            3.6463     2.1363    -0.0289 C.2     
  11 C11            6.1966     1.9828    -0.0327 C.2     
  12 O12            6.2834     3.3281    -0.0278 O.3     
  13 O13            7.2080     1.3084    -0.0366 O.2     
  14 O14            3.6831     3.3544    -0.0247 O.2     
  15 C15            3.5770    -2.1373    -0.0445 C.3     
  16 C16            3.4325    -2.6326    -1.4604 C.2     
  17 N17            2.3051    -2.9484    -2.0282 N.2     
  18 C18            2.5337    -3.3553    -3.3034 C.ar    
  19 C19            3.9199    -3.2756    -3.5164 C.ar    
  20 N20            4.4608    -2.8092    -2.3327 N.pl3   
  21 C21            1.7022    -3.7963    -4.3365 C.ar    
  22 C22            2.2504    -4.1483    -5.5533 C.ar    
  23 C23            3.6253    -4.0667    -5.7569 C.ar    
  24 C24            4.4554    -3.6334    -4.7461 C.ar    
  25 F25            1.1211     3.4382    -0.0178 F       
  26 C26            5.8795    -2.5606    -2.0646 C.3     
  27 O27            1.4428    -4.5780    -6.5593 O.3     
  28 C28            2.0733    -4.9269    -7.7933 C.3     
  29 H29           -0.9798     1.8909    -0.0232 H       
  30 H30           -0.9375    -0.5665    -0.0279 H       
  31 H31            1.1933    -1.7794    -0.0376 H       
  32 H32            5.6810    -0.6353    -0.0419 H       
  33 H33            7.1715     3.7107    -0.0275 H       
  34 H34            4.5087    -2.5128     0.3785 H       
  35 H35            2.7374    -2.4933     0.5524 H       
  36 H36            0.6351    -3.8616    -4.1833 H       
  37 H37            4.0438    -4.3450    -6.7128 H       
  38 H38            5.5211    -3.5723    -4.9103 H       
  39 H39            6.1451    -1.5617    -2.4107 H       
  40 H40            6.0652    -2.6352    -0.9931 H       
  41 H41            6.4836    -3.3000    -2.5904 H       
  42 H42            1.3175    -5.2522    -8.5082 H       
  43 H43            2.5995    -4.0589    -8.1906 H       
  44 H44            2.7837    -5.7357    -7.6224 H       
@<TRIPOS>BOND
   1    1    2 ar
   2    1    6 ar
   3    1   29 1
   4    2    3 ar
   5    2   30 1
   6    3    4 ar
   7    3   31 1
   8    4    5 ar
   9    4    7 1
  10    5    6 ar
  11    5   10 1
  12    6   25 1
  13    7    8 1
  14    7   15 1
  15    8    9 2
  16    8   32 1
  17    9   10 1
  18    9   11 1
  19   10   14 2
  20   11   12 1
  21   11   13 2
  22   12   33 1
  23   15   16 1
  24   15   34 1
  25   15   35 1
  26   16   17 2
  27   16   20 1
  28   17   18 1
  29   18   19 ar
  30   18   21 ar
  31   19   20 1
  32   19   24 ar
  33   20   26 1
  34   21   22 ar
  35   21   36 1
  36   22   23 ar
  37   22   27 1
  38   23   24 ar
  39   23   37 1
  40   24   38 1
  41   26   39 1
  42   26   40 1
  43   26   41 1
  44   27   28 1
  45   28   42 1
  46   28   43 1
  47   28   44 1

#	End of record

