#	Name: ASD00310286
#	Creating user name:	WinNT
#	Creation time:	15. 06. 2019 18:34

#	Modifying user name:	WinNT
#	Modification time:	15. 06. 2019 18:34

#	Program:	/corina/corina34_cracker 3.40 0067  02.08.2006

@<TRIPOS>MOLECULE
ASD00310286
  26   26    0    0    0
SMALL
NO_CHARGES


@<TRIPOS>ATOM
   1 C1            -0.0187     1.5258     0.0104 C.3     
   2 C2             0.0021    -0.0041     0.0020 C.3     
   3 C3             0.7421    -0.5109     1.2415 C.3     
   4 O4            -1.3386    -0.4987     0.0122 O.3     
   5 C5             0.7074    -0.4901    -1.2379 C.ar    
   6 C6             2.0291    -0.1358    -1.4686 C.ar    
   7 C7             2.6759    -0.5845    -2.6105 C.ar    
   8 C8             2.0025    -1.3833    -3.5160 C.ar    
   9 C9             0.6848    -1.7344    -3.2835 C.ar    
  10 C10            0.0404    -1.2930    -2.1425 C.ar    
  11 O11            2.6886     0.6498    -0.5771 O.3     
  12 C12            4.0470     0.9745    -0.8793 C.3     
  13 Br13           2.8830    -1.9957    -5.0734 Br      
  14 H14            1.0039     1.9031     0.0027 H       
  15 H15           -0.5459     1.8868    -0.8726 H       
  16 H16           -0.5289     1.8773     0.9072 H       
  17 H17            0.2319    -0.1594     2.1383 H       
  18 H18            0.7568    -1.6008     1.2356 H       
  19 H19            1.7647    -0.1336     1.2338 H       
  20 H20           -1.8531    -0.2245     0.7836 H       
  21 H21            3.7044    -0.3098    -2.7924 H       
  22 H22            0.1600    -2.3582    -3.9919 H       
  23 H23           -0.9868    -1.5724    -1.9608 H       
  24 H24            4.6324     0.0579    -0.9510 H       
  25 H25            4.0905     1.5085    -1.8286 H       
  26 H26            4.4544     1.6049    -0.0889 H       
@<TRIPOS>BOND
   1    1    2 1
   2    1   14 1
   3    1   15 1
   4    1   16 1
   5    2    3 1
   6    2    4 1
   7    2    5 1
   8    3   17 1
   9    3   18 1
  10    3   19 1
  11    4   20 1
  12    5    6 ar
  13    5   10 ar
  14    6    7 ar
  15    6   11 1
  16    7    8 ar
  17    7   21 1
  18    8    9 ar
  19    8   13 1
  20    9   10 ar
  21    9   22 1
  22   10   23 1
  23   11   12 1
  24   12   24 1
  25   12   25 1
  26   12   26 1

#	End of record

