#	Name: ASD01141056
#	Creating user name:	WinNT
#	Creation time:	15. 06. 2019 19:01

#	Modifying user name:	WinNT
#	Modification time:	15. 06. 2019 19:01

#	Program:	/corina/corina34_cracker 3.40 0067  02.08.2006

@<TRIPOS>MOLECULE
ASD01141056
  39   40    0    0    0
SMALL
NO_CHARGES


@<TRIPOS>ATOM
   1 C1             0.0263     1.1582    -0.0257 C.2     
   2 C2            -0.2122    -0.1461     0.3678 C.2     
   3 C3             1.4039     1.6435    -0.1601 C.2     
   4 C4            -1.0986     2.0546    -0.3145 C.2     
   5 N5            -1.4723    -0.5536     0.6241 N.pl3   
   6 O6             2.1222     1.2006    -1.0369 O.2     
   7 C7             1.9201     2.6711     0.7701 C.ar    
   8 O8            -2.2341     1.6199    -0.3292 O.2     
   9 O9            -0.8733     3.3605    -0.5637 O.3     
  10 C10           -1.7140    -1.8737     1.0170 C.ar    
  11 C11            3.2032     3.1930     0.5961 C.ar    
  12 C12            1.1244     3.1271     1.8219 C.ar    
  13 C13           -3.0112    -2.2944     1.2812 C.ar    
  14 C14           -0.6579    -2.7678     1.1380 C.ar    
  15 C15            3.6792     4.1510     1.4667 C.ar    
  16 C16            1.6125     4.0867     2.6867 C.ar    
  17 C17           -3.2475    -3.5987     1.6685 C.ar    
  18 C18           -0.8995    -4.0725     1.5206 C.ar    
  19 C19            2.8882     4.5956     2.5114 C.ar    
  20 C20           -2.1925    -4.4870     1.7936 C.ar    
  21 F21           -2.4266    -5.7639     2.1677 F       
  22 H22           -2.2108     0.0691     0.5359 H       
  23 C23           -2.0187     4.1650    -0.9498 C.3     
  24 C24           -1.5525     5.5782    -1.3058 C.3     
  25 Cl25           0.6250     4.6559     3.9961 Cl      
  26 H26            0.6105    -0.8383     0.4699 H       
  27 H27            3.8222     2.8469    -0.2185 H       
  28 H28            0.1291     2.7309     1.9590 H       
  29 H29           -3.8342    -1.6019     1.1840 H       
  30 H30            0.3514    -2.4430     0.9328 H       
  31 H31            4.6734     4.5520     1.3354 H       
  32 H32           -4.2559    -3.9261     1.8744 H       
  33 H33           -0.0787    -4.7682     1.6145 H       
  34 H34            3.2658     5.3459     3.1902 H       
  35 H35           -2.5045     3.7139    -1.8151 H       
  36 H36           -2.7248     4.2134    -0.1209 H       
  37 H37           -0.9902     5.9964    -0.4710 H       
  38 H38           -0.9157     5.5388    -2.1896 H       
  39 H39           -2.4197     6.2060    -1.5106 H       
@<TRIPOS>BOND
   1    1    2 2
   2    1    3 1
   3    1    4 1
   4    2    5 1
   5    2   26 1
   6    3    6 2
   7    3    7 1
   8    4    9 1
   9    4    8 2
  10    5   22 1
  11    5   10 1
  12    7   11 ar
  13    7   12 ar
  14    9   23 1
  15   10   13 ar
  16   10   14 ar
  17   11   15 ar
  18   11   27 1
  19   12   16 ar
  20   12   28 1
  21   13   17 ar
  22   13   29 1
  23   14   18 ar
  24   14   30 1
  25   15   19 ar
  26   15   31 1
  27   16   19 ar
  28   16   25 1
  29   17   20 ar
  30   17   32 1
  31   18   20 ar
  32   18   33 1
  33   19   34 1
  34   20   21 1
  35   23   24 1
  36   23   35 1
  37   23   36 1
  38   24   37 1
  39   24   38 1
  40   24   39 1

#	End of record

