#	Name: ASD00310017
#	Creating user name:	WinNT
#	Creation time:	15. 06. 2019 18:33

#	Modifying user name:	WinNT
#	Modification time:	15. 06. 2019 18:33

#	Program:	/corina/corina34_cracker 3.40 0067  02.08.2006

@<TRIPOS>MOLECULE
ASD00310017
  39   42    0    0    0
SMALL
NO_CHARGES


@<TRIPOS>ATOM
   1 N1            -0.0162     1.3428     0.0094 N.pl3   
   2 C2             0.0021    -0.0041     0.0020 C.2     
   3 C3             1.3063    -0.4496    -0.0128 C.2     
   4 C4             2.1540     0.7600    -0.0144 C.ar    
   5 C5             3.5273     0.9732    -0.0264 C.ar    
   6 C6             4.0205     2.2725    -0.0241 C.ar    
   7 C7             3.1346     3.3569    -0.0098 C.ar    
   8 C8             1.7737     3.1465     0.0025 C.ar    
   9 C9             1.2676     1.8490    -0.0001 C.ar    
  10 C10            1.7455    -1.7968    -0.0236 C.2     
  11 O11            0.9340    -2.6998    -0.0204 O.2     
  12 C12            8.2199     2.9559    -0.0586 C.ar    
  13 C13            7.3986     3.6148    -0.9732 C.ar    
  14 C14            6.0392     3.3935    -0.9621 C.ar    
  15 C15            5.4839     2.5104    -0.0363 C.ar    
  16 C16            6.3052     1.8515     0.8783 C.ar    
  17 C17            7.6646     2.0728     0.8673 C.ar    
  18 C18            9.6838     3.1895    -0.0744 C.ar    
  19 C19           10.3579     3.5049     1.1100 C.ar    
  20 C20           11.7260     3.7211     1.0859 C.ar    
  21 C21           12.4213     3.6257    -0.1051 C.ar    
  22 C22           11.7575     3.3139    -1.2782 C.ar    
  23 C23           10.3954     3.0903    -1.2679 C.ar    
  24 O24            9.6734     3.5993     2.2796 O.3     
  25 F25            3.6184     4.6184    -0.0077 F       
  26 H26           -0.8217     1.8831     0.0163 H       
  27 H27           -0.8721    -0.6383     0.0070 H       
  28 H28            4.2073     0.1341    -0.0370 H       
  29 H29            1.0979     3.9888     0.0138 H       
  30 H30            2.8020    -2.0203    -0.0345 H       
  31 H31            7.8285     4.2989    -1.6899 H       
  32 H32            5.4032     3.9037    -1.6704 H       
  33 H33            5.8751     1.1679     1.5954 H       
  34 H34            8.3006     1.5622     1.5753 H       
  35 H35           12.2498     3.9648     1.9983 H       
  36 H36           13.4878     3.7957    -0.1199 H       
  37 H37           12.3077     3.2412    -2.2047 H       
  38 H38            9.8812     2.8430    -2.1849 H       
  39 H39            9.6133     2.7671     2.7684 H       
@<TRIPOS>BOND
   1    1    2 1
   2    1    9 1
   3    1   26 1
   4    2    3 2
   5    2   27 1
   6    3    4 1
   7    3   10 1
   8    4    5 ar
   9    4    9 ar
  10    5    6 ar
  11    5   28 1
  12    6    7 ar
  13    6   15 1
  14    7    8 ar
  15    7   25 1
  16    8    9 ar
  17    8   29 1
  18   10   11 2
  19   10   30 1
  20   12   13 ar
  21   12   17 ar
  22   12   18 1
  23   13   14 ar
  24   13   31 1
  25   14   15 ar
  26   14   32 1
  27   15   16 ar
  28   16   17 ar
  29   16   33 1
  30   17   34 1
  31   18   19 ar
  32   18   23 ar
  33   19   20 ar
  34   19   24 1
  35   20   21 ar
  36   20   35 1
  37   21   22 ar
  38   21   36 1
  39   22   23 ar
  40   22   37 1
  41   23   38 1
  42   24   39 1

#	End of record

