#	Name: ASD01230130
#	Creating user name:	WinNT
#	Creation time:	15. 06. 2019 19:11

#	Modifying user name:	WinNT
#	Modification time:	15. 06. 2019 19:11

#	Program:	/corina/corina34_cracker 3.40 0067  02.08.2006

@<TRIPOS>MOLECULE
ASD01230130
  76   79    0    0    0
SMALL
NO_CHARGES


@<TRIPOS>ATOM
   1 P1             0.6157     1.8444    -0.0694 P.3     
   2 O2             0.8442     0.4258    -0.4242 O.2     
   3 O3             1.6405     2.2785     1.0939 O.3     
   4 O4             0.8544     2.7672    -1.3669 O.3     
   5 N5            -0.9652     2.0390     0.4743 N.3     
   6 O6            -3.3340     0.5539     2.3093 O.3     
   7 C7            -2.2992     0.2646     1.5075 C.2     
   8 C8            -1.1942     1.2786     1.7101 C.3     
   9 C9            -1.7136     2.2113     2.8269 C.3     
  10 C10           -2.8862     1.3935     3.4144 C.3     
  11 O11           -2.2551    -0.6665     0.7388 O.2     
  12 C12            1.7830     1.3530     2.0788 C.ar    
  13 C13            2.4305     0.1542     1.8174 C.ar    
  14 C14            2.5740    -0.7849     2.8203 C.ar    
  15 C15            2.0729    -0.5310     4.0837 C.ar    
  16 C16            1.4267     0.6628     4.3466 C.ar    
  17 C17            1.2861     1.6078     3.3488 C.ar    
  18 C18            0.2504     2.4997    -2.6341 C.3     
  19 O19            2.1013     3.4576    -3.9076 O.3     
  20 C20            0.6859     3.5655    -3.6417 C.3     
  21 C21            0.0080     3.3223    -5.0084 C.3     
  22 C22            1.0960     3.6976    -6.0392 C.3     
  23 C23            2.3025     4.1231    -5.1735 C.3     
  24 F24            1.4255     2.5909    -6.8291 F       
  25 F25            0.6670     4.7621    -6.8392 F       
  26 O26           -1.1354     4.1664    -5.1574 O.3     
  27 Si27          -2.3133     3.5296    -6.0887 Si      
  28 C28           -1.6455     3.2019    -7.7968 C.3     
  29 C29           -2.9043     1.9313    -5.3359 C.3     
  30 C30           -3.7354     4.7282    -6.1973 C.3     
  31 C31           -3.2500     6.0408    -6.8156 C.3     
  32 C32           -4.8403     4.1308    -7.0709 C.3     
  33 C33           -4.2838     4.9973    -4.7945 C.3     
  34 C34            3.7833     2.3643    -5.9685 C.2     
  35 N35            4.9127     1.9323    -6.5268 N.2     
  36 C36            5.8441     2.7903    -6.9223 C.2     
  37 C37            5.6354     4.1741    -6.7495 C.2     
  38 C38            4.4820     4.5975    -6.1803 C.2     
  39 N39            3.5548     3.6783    -5.7901 N.am    
  40 O40            2.9399     1.5557    -5.6178 O.2     
  41 N41            7.0069     2.3325    -7.4973 N.pl3   
  42 H42           -1.1853     3.0151     0.6042 H       
  43 H43           -0.2770     0.7820     2.0265 H       
  44 H44           -0.9437     2.3819     3.5794 H       
  45 H45           -2.0678     3.1547     2.4114 H       
  46 H46           -3.6885     2.0567     3.7379 H       
  47 H47           -2.5421     0.7775     4.2453 H       
  48 H48            2.8218    -0.0447     0.8306 H       
  49 H49            3.0777    -1.7185     2.6172 H       
  50 H50            2.1861    -1.2665     4.8664 H       
  51 H51            1.0356     0.8585     5.3341 H       
  52 H52            0.7856     2.5421     3.5559 H       
  53 H53            0.5645     1.5170    -2.9860 H       
  54 H54           -0.8345     2.5190    -2.5308 H       
  55 H55            0.4444     4.5613    -3.2702 H       
  56 H56           -0.2732     2.2745    -5.1142 H       
  57 H57            2.3090     5.2045    -5.0369 H       
  58 H58           -0.8134     2.5007    -7.7333 H       
  59 H59           -2.4326     2.7763    -8.4192 H       
  60 H60           -1.2997     4.1371    -8.2373 H       
  61 H61           -3.2950     2.1230    -4.3365 H       
  62 H62           -3.6915     1.5057    -5.9582 H       
  63 H63           -2.0723     1.2300    -5.2723 H       
  64 H64           -2.8593     5.8491    -7.8149 H       
  65 H65           -4.0820     6.7421    -6.8791 H       
  66 H66           -2.4628     6.4664    -6.1932 H       
  67 H67           -5.1861     3.1956    -6.6304 H       
  68 H68           -5.6723     4.8320    -7.1344 H       
  69 H69           -4.4496     3.9391    -8.0703 H       
  70 H70           -3.4966     5.4228    -4.1721 H       
  71 H71           -5.1158     5.6985    -4.8580 H       
  72 H72           -4.6296     4.0621    -4.3540 H       
  73 H73            6.3841     4.8852    -7.0658 H       
  74 H74            4.2991     5.6522    -6.0369 H       
  75 H75            7.1477     1.3800    -7.6145 H       
  76 H76            7.6861     2.9623    -7.7854 H       
@<TRIPOS>BOND
   1    1    2 2
   2    1    3 1
   3    1    4 1
   4    1    5 1
   5    3   12 1
   6    4   18 1
   7    5    8 1
   8    5   42 1
   9    6    7 1
  10    6   10 1
  11    7    8 1
  12    7   11 2
  13    8    9 1
  14    8   43 1
  15    9   10 1
  16    9   44 1
  17    9   45 1
  18   10   46 1
  19   10   47 1
  20   12   13 ar
  21   12   17 ar
  22   13   14 ar
  23   13   48 1
  24   14   15 ar
  25   14   49 1
  26   15   16 ar
  27   15   50 1
  28   16   17 ar
  29   16   51 1
  30   17   52 1
  31   18   20 1
  32   18   53 1
  33   18   54 1
  34   19   20 1
  35   19   23 1
  36   20   21 1
  37   20   55 1
  38   21   22 1
  39   21   26 1
  40   21   56 1
  41   22   23 1
  42   22   24 1
  43   22   25 1
  44   23   39 1
  45   23   57 1
  46   26   27 1
  47   27   28 1
  48   27   29 1
  49   27   30 1
  50   28   58 1
  51   28   59 1
  52   28   60 1
  53   29   61 1
  54   29   62 1
  55   29   63 1
  56   30   31 1
  57   30   33 1
  58   30   32 1
  59   31   64 1
  60   31   65 1
  61   31   66 1
  62   32   67 1
  63   32   68 1
  64   32   69 1
  65   33   70 1
  66   33   71 1
  67   33   72 1
  68   34   35 1
  69   34   39 am
  70   34   40 2
  71   35   36 2
  72   36   37 1
  73   36   41 1
  74   37   38 2
  75   37   73 1
  76   38   39 1
  77   38   74 1
  78   41   75 1
  79   41   76 1

#	End of record

