#	Name: ASD09116381
#	Creating user name:	WinNT
#	Creation time:	15. 06. 2019 21:21

#	Modifying user name:	WinNT
#	Modification time:	15. 06. 2019 21:21

#	Program:	/corina/corina34_cracker 3.40 0067  02.08.2006

@<TRIPOS>MOLECULE
ASD09116381
  77   83    0    0    0
SMALL
NO_CHARGES


@<TRIPOS>ATOM
   1 N1            -0.0684     1.5210    -0.4142 N.2     
   2 N2            -0.0950     0.2018    -0.8946 N.pl3   
   3 C3             1.1892     1.8925    -0.3852 C.2     
   4 N4             1.9523     0.8827    -0.8196 N.2     
   5 C5             1.1920    -0.1451    -1.1310 C.2     
   6 N6             1.6299    -1.3637    -1.6134 N.pl3   
   7 C7            -1.2251    -0.5945    -1.0894 C.ar    
   8 N8             1.6558     3.1394     0.0306 N.pl3   
   9 C9             3.0329     3.3819     0.1065 C.ar    
  10 C10            3.5258     4.6619    -0.1126 C.ar    
  11 C11            3.9052     2.3440     0.4065 C.ar    
  12 C12            5.2632     2.5833     0.4818 C.ar    
  13 C13            5.7563     3.8619     0.2580 C.ar    
  14 C14            4.8834     4.9011    -0.0373 C.ar    
  15 N15           -1.1950    -1.5827    -1.9710 N.ar    
  16 N16           -2.2102    -2.3387    -2.1952 N.ar    
  17 C17           -3.3552    -2.1711    -1.5530 C.ar    
  18 C18           -3.4734    -1.1663    -0.5885 C.ar    
  19 C19           -2.3859    -0.3528    -0.3504 C.ar    
  20 C20           -4.5430    -3.0056    -1.8479 C.ar    
  21 C21           -5.7676    -2.3777    -2.0807 C.ar    
  22 C22           -5.8379    -0.8752    -2.0815 C.3     
  23 C23           -5.8158    -0.3160    -0.6615 C.3     
  24 C24           -4.7542    -1.0190     0.1802 C.3     
  25 C25           -4.4530    -4.3925    -1.8908 C.ar    
  26 C26           -5.5842    -5.1435    -2.1458 C.ar    
  27 C27           -6.8001    -4.5182    -2.3548 C.ar    
  28 C28           -6.8921    -3.1375    -2.3218 C.ar    
  29 N29            7.1327     4.1045     0.3348 N.3     
  30 C30            7.8654     3.2944    -0.6466 C.3     
  31 C31            7.6331     3.8711     1.6955 C.3     
  32 C32            9.1044     4.2841     1.7772 C.3     
  33 C33            9.9156     3.4669     0.7678 C.3     
  34 C34            9.3437     3.6901    -0.6349 C.3     
  35 N35           11.3190     3.8999     0.8004 N.3     
  36 C36           11.9314     3.6091     2.1097 C.3     
  37 C37           13.1709     2.7276     1.8490 C.3     
  38 C38           13.5162     3.0391     0.3689 C.3     
  39 C39           12.1076     3.2206    -0.2495 C.3     
  40 C40            5.4186     6.2887    -0.2802 C.3     
  41 H41            2.5776    -1.5189    -1.7506 H       
  42 H42            0.9897    -2.0641    -1.8149 H       
  43 H43            1.0265     3.8386     0.2672 H       
  44 H44            2.8470     5.4700    -0.3422 H       
  45 H45            3.5216     1.3497     0.5813 H       
  46 H46            5.9416     1.7760     0.7151 H       
  47 H47           -2.4321     0.4462     0.3748 H       
  48 H48           -4.9862    -0.4787    -2.6342 H       
  49 H49           -6.7584    -0.5616    -2.5740 H       
  50 H50           -5.5953     0.7508    -0.6994 H       
  51 H51           -6.7934    -0.4635    -0.2025 H       
  52 H52           -5.1177    -2.0067     0.4637 H       
  53 H53           -4.5663    -0.4349     1.0811 H       
  54 H54           -3.5036    -4.8802    -1.7260 H       
  55 H55           -5.5189    -6.2209    -2.1823 H       
  56 H56           -7.6828    -5.1107    -2.5452 H       
  57 H57           -7.8448    -2.6556    -2.4847 H       
  58 H58            7.7699     2.2392    -0.3904 H       
  59 H59            7.4515     3.4656    -1.6404 H       
  60 H60            7.0505     4.4612     2.4029 H       
  61 H61            7.5386     2.8133     1.9408 H       
  62 H62            9.1980     5.3450     1.5455 H       
  63 H63            9.4798     4.0961     2.7831 H       
  64 H64            9.8539     2.4088     1.0223 H       
  65 H65            9.8900     3.0778    -1.3523 H       
  66 H66            9.4410     4.7417    -0.9045 H       
  67 H67           12.2325     4.5386     2.5929 H       
  68 H68           11.2217     3.0738     2.7404 H       
  69 H69           13.9927     3.0144     2.5051 H       
  70 H70           12.9267     1.6727     1.9740 H       
  71 H71           14.0990     3.9567     0.2887 H       
  72 H72           14.0411     2.2033    -0.0938 H       
  73 H73           11.6691     2.2510    -0.4858 H       
  74 H74           12.1629     3.8411    -1.1439 H       
  75 H75            5.5566     6.4427    -1.3504 H       
  76 H76            4.7113     7.0235     0.1044 H       
  77 H77            6.3751     6.4036     0.2297 H       
@<TRIPOS>BOND
   1    1    2 1
   2    1    3 2
   3    2    7 1
   4    2    5 1
   5    3    4 1
   6    3    8 1
   7    4    5 2
   8    5    6 1
   9    6   41 1
  10    6   42 1
  11    7   15 ar
  12    7   19 ar
  13    8    9 1
  14    8   43 1
  15    9   10 ar
  16    9   11 ar
  17   10   14 ar
  18   10   44 1
  19   11   12 ar
  20   11   45 1
  21   12   13 ar
  22   12   46 1
  23   13   14 ar
  24   13   29 1
  25   14   40 1
  26   15   16 ar
  27   16   17 ar
  28   17   18 ar
  29   17   20 1
  30   18   19 ar
  31   18   24 1
  32   19   47 1
  33   20   21 ar
  34   20   25 ar
  35   21   22 1
  36   21   28 ar
  37   22   23 1
  38   22   48 1
  39   22   49 1
  40   23   24 1
  41   23   50 1
  42   23   51 1
  43   24   52 1
  44   24   53 1
  45   25   26 ar
  46   25   54 1
  47   26   27 ar
  48   26   55 1
  49   27   28 ar
  50   27   56 1
  51   28   57 1
  52   29   31 1
  53   29   30 1
  54   30   34 1
  55   30   58 1
  56   30   59 1
  57   31   32 1
  58   31   60 1
  59   31   61 1
  60   32   33 1
  61   32   62 1
  62   32   63 1
  63   33   34 1
  64   33   35 1
  65   33   64 1
  66   34   65 1
  67   34   66 1
  68   35   36 1
  69   35   39 1
  70   36   37 1
  71   36   67 1
  72   36   68 1
  73   37   38 1
  74   37   69 1
  75   37   70 1
  76   38   39 1
  77   38   71 1
  78   38   72 1
  79   39   73 1
  80   39   74 1
  81   40   75 1
  82   40   76 1
  83   40   77 1

#	End of record

