#	Name: ASD09116372
#	Creating user name:	WinNT
#	Creation time:	15. 06. 2019 21:21

#	Modifying user name:	WinNT
#	Modification time:	15. 06. 2019 21:21

#	Program:	/corina/corina34_cracker 3.40 0067  02.08.2006

@<TRIPOS>MOLECULE
ASD09116372
  57   62    0    0    0
SMALL
NO_CHARGES


@<TRIPOS>ATOM
   1 N1            -0.0086     1.3942    -0.0866 N.2     
   2 N2            -0.0040     0.0002     0.0823 N.pl3   
   3 C3             1.2252     1.8046     0.0852 C.2     
   4 N4             2.0029     0.7488     0.3521 N.2     
   5 C5             1.2758    -0.3479     0.3539 C.2     
   6 N6             1.7369    -1.6286     0.5918 N.pl3   
   7 C7            -1.1020    -0.8571    -0.0106 C.ar    
   8 N8             1.6572     3.1284     0.0023 N.pl3   
   9 C9             3.0186     3.4258     0.0964 C.ar    
  10 C10            3.9734     2.5004    -0.3225 C.ar    
  11 C11            3.4376     4.6507     0.6037 C.ar    
  12 N12            4.7188     4.9393     0.6949 N.ar    
  13 C13            5.6556     4.0817     0.3109 C.ar    
  14 C14            5.3099     2.8369    -0.2116 C.ar    
  15 N15           -0.9223    -2.1324    -0.3201 N.ar    
  16 N16           -1.8994    -2.9608    -0.4277 N.ar    
  17 C17           -3.1531    -2.5836    -0.2347 C.ar    
  18 C18           -3.4373    -1.2609     0.1168 C.ar    
  19 C19           -2.3899    -0.3711     0.2286 C.ar    
  20 C20           -4.2850    -3.5227    -0.4110 C.ar    
  21 C21           -5.3709    -3.1308    -1.1955 C.ar    
  22 C22           -5.3392    -1.7939    -1.8841 C.3     
  23 C23           -5.6288    -0.6575    -0.9073 C.3     
  24 C24           -4.8548    -0.8521     0.3938 C.3     
  25 C25           -4.2794    -4.7750     0.1934 C.ar    
  26 C26           -5.3608    -5.6187     0.0284 C.ar    
  27 C27           -6.4440    -5.2182    -0.7327 C.ar    
  28 C28           -6.4497    -3.9759    -1.3431 C.ar    
  29 C29            7.0860     4.4542     0.4339 C.ar    
  30 C30            7.4406     5.6968     0.9497 C.ar    
  31 C31            8.0778     3.5571     0.0383 C.ar    
  32 C32            9.4109     3.9009     0.1526 C.ar    
  33 C33            9.7710     5.1335     0.6583 C.ar    
  34 C34            8.7872     6.0395     1.0627 C.ar    
  35 C35            9.1609     7.3184     1.5874 C.1     
  36 N36            9.4574     8.3330     2.0037 N.1     
  37 H37            2.6768    -1.7788     0.7787 H       
  38 H38            1.1207    -2.3775     0.5719 H       
  39 H39            1.0121     3.8423    -0.1206 H       
  40 H40            3.6760     1.5429    -0.7239 H       
  41 H41            2.7033     5.3740     0.9263 H       
  42 H42            6.0763     2.1425    -0.5228 H       
  43 H43           -2.5595     0.6646     0.4837 H       
  44 H44           -4.3537    -1.6430    -2.3246 H       
  45 H45           -6.0880    -1.7829    -2.6760 H       
  46 H46           -5.3355     0.2892    -1.3611 H       
  47 H47           -6.6966    -0.6347    -0.6896 H       
  48 H48           -5.3413    -1.6257     0.9880 H       
  49 H49           -4.8552     0.0827     0.9544 H       
  50 H50           -3.4341    -5.0863     0.7892 H       
  51 H51           -5.3602    -6.5930     0.4943 H       
  52 H52           -7.2902    -5.8787    -0.8515 H       
  53 H53           -7.2992    -3.6689    -1.9351 H       
  54 H54            6.6758     6.3931     1.2608 H       
  55 H55            7.8029     2.5909    -0.3583 H       
  56 H56           10.1747     3.2019    -0.1548 H       
  57 H57           10.8148     5.3965     0.7456 H       
@<TRIPOS>BOND
   1    1    2 1
   2    1    3 2
   3    2    7 1
   4    2    5 1
   5    3    4 1
   6    3    8 1
   7    4    5 2
   8    5    6 1
   9    6   37 1
  10    6   38 1
  11    7   15 ar
  12    7   19 ar
  13    8    9 1
  14    8   39 1
  15    9   10 ar
  16    9   11 ar
  17   10   14 ar
  18   10   40 1
  19   11   12 ar
  20   11   41 1
  21   12   13 ar
  22   13   14 ar
  23   13   29 1
  24   14   42 1
  25   15   16 ar
  26   16   17 ar
  27   17   18 ar
  28   17   20 1
  29   18   19 ar
  30   18   24 1
  31   19   43 1
  32   20   21 ar
  33   20   25 ar
  34   21   22 1
  35   21   28 ar
  36   22   23 1
  37   22   44 1
  38   22   45 1
  39   23   24 1
  40   23   46 1
  41   23   47 1
  42   24   48 1
  43   24   49 1
  44   25   26 ar
  45   25   50 1
  46   26   27 ar
  47   26   51 1
  48   27   28 ar
  49   27   52 1
  50   28   53 1
  51   29   30 ar
  52   29   31 ar
  53   30   34 ar
  54   30   54 1
  55   31   32 ar
  56   31   55 1
  57   32   33 ar
  58   32   56 1
  59   33   34 ar
  60   33   57 1
  61   34   35 1
  62   35   36 3

#	End of record

