#	Name: ASD01883319
#	Creating user name:	WinNT
#	Creation time:	15. 06. 2019 19:46

#	Modifying user name:	WinNT
#	Modification time:	15. 06. 2019 19:46

#	Program:	/corina/corina34_cracker 3.40 0067  02.08.2006

@<TRIPOS>MOLECULE
ASD01883319
  51   53    0    0    0
SMALL
NO_CHARGES


@<TRIPOS>ATOM
   1 N1             0.0038     1.3058     0.0348 N.am    
   2 C2            -0.8400     1.5171    -0.9925 C.2     
   3 C3            -2.0913     0.8553    -1.0252 C.2     
   4 C4            -2.4225    -0.0124     0.0251 C.2     
   5 C5            -1.5011    -0.1924     1.0696 C.2     
   6 C6            -0.3173     0.4608     1.0477 C.2     
   7 O7            -0.5274     2.2772    -1.8932 O.2     
   8 C8            -3.0014     1.0685    -2.1100 C.1     
   9 N9            -3.7233     1.2377    -2.9706 N.1     
  10 O10           -3.6076    -0.6636     0.0325 O.3     
  11 C11           -3.5664    -2.0870    -0.0870 C.3     
  12 C12            1.2956     1.9964     0.0573 C.3     
  13 C13            1.1459     3.3348     0.7833 C.3     
  14 C14            2.4951     4.0560     0.8068 C.3     
  15 C15            2.3453     5.3945     1.5327 C.3     
  16 C16           -4.9703    -2.6342    -0.0598 C.ar    
  17 C17           -5.6737    -2.7859    -1.2411 C.ar    
  18 C18           -6.9596    -3.2870    -1.2221 C.ar    
  19 C19           -7.5491    -3.6403    -0.0098 C.ar    
  20 C20           -6.8358    -3.4852     1.1773 C.ar    
  21 C21           -5.5486    -2.9881     1.1459 C.ar    
  22 C22           -8.9310    -4.1789     0.0170 C.ar    
  23 C23           -9.5123    -4.5294     1.2334 C.ar    
  24 C24          -10.8029    -5.0303     1.2426 C.ar    
  25 C25          -11.4700    -5.1642     0.0335 C.ar    
  26 C26          -10.8323    -4.7965    -1.1372 C.ar    
  27 N27           -9.6052    -4.3177    -1.1173 N.ar    
  28 C28          -11.5527    -4.9406    -2.4530 C.3     
  29 H29           -1.7364    -0.8560     1.8886 H       
  30 H30            0.3832     0.3140     1.8564 H       
  31 H31           -3.0887    -2.3589    -1.0282 H       
  32 H32           -2.9974    -2.5050     0.7434 H       
  33 H33            2.0280     1.3801     0.5789 H       
  34 H34            1.6311     2.1729    -0.9646 H       
  35 H35            0.4136     3.9511     0.2617 H       
  36 H36            0.8104     3.1584     1.8052 H       
  37 H37            3.2274     3.4398     1.3283 H       
  38 H38            2.8306     4.2325    -0.2152 H       
  39 H39            2.0098     5.2180     2.5547 H       
  40 H40            3.3065     5.9083     1.5494 H       
  41 H41            1.6130     6.0107     1.0112 H       
  42 H42           -5.2160    -2.5115    -2.1800 H       
  43 H43           -7.5080    -3.4047    -2.1451 H       
  44 H44           -7.2878    -3.7574     2.1196 H       
  45 H45           -4.9949    -2.8676     2.0653 H       
  46 H46           -8.9637    -4.4124     2.1563 H       
  47 H47          -11.2796    -5.3109     2.1702 H       
  48 H48          -12.4776    -5.5521     0.0068 H       
  49 H49          -12.0963    -4.0215    -2.6721 H       
  50 H50          -10.8285    -5.1320    -3.2448 H       
  51 H51          -12.2546    -5.7725    -2.3937 H       
@<TRIPOS>BOND
   1    1    2 am
   2    1   12 1
   3    1    6 1
   4    2    3 1
   5    2    7 2
   6    3    4 2
   7    3    8 1
   8    4    5 1
   9    4   10 1
  10    5    6 2
  11    5   29 1
  12    6   30 1
  13    8    9 3
  14   10   11 1
  15   11   16 1
  16   11   31 1
  17   11   32 1
  18   12   13 1
  19   12   33 1
  20   12   34 1
  21   13   14 1
  22   13   35 1
  23   13   36 1
  24   14   15 1
  25   14   37 1
  26   14   38 1
  27   15   39 1
  28   15   40 1
  29   15   41 1
  30   16   17 ar
  31   16   21 ar
  32   17   18 ar
  33   17   42 1
  34   18   19 ar
  35   18   43 1
  36   19   20 ar
  37   19   22 1
  38   20   21 ar
  39   20   44 1
  40   21   45 1
  41   22   23 ar
  42   22   27 ar
  43   23   24 ar
  44   23   46 1
  45   24   25 ar
  46   24   47 1
  47   25   26 ar
  48   25   48 1
  49   26   27 ar
  50   26   28 1
  51   28   49 1
  52   28   50 1
  53   28   51 1

#	End of record

