#	Name: ASD04570043
#	Creating user name:	WinNT
#	Creation time:	15. 06. 2019 20:49

#	Modifying user name:	WinNT
#	Modification time:	15. 06. 2019 20:49

#	Program:	/corina/corina34_cracker 3.40 0067  02.08.2006

@<TRIPOS>MOLECULE
ASD04570043
 343  346    0    0    0
SMALL
NO_CHARGES


@<TRIPOS>ATOM
   1 C1            -0.0187     1.5258     0.0104 C.3     
   2 C2             0.0021    -0.0041     0.0020 C.3     
   3 C3            -1.4333    -0.5336     0.0129 C.3     
   4 C4            -1.4126    -2.0635     0.0045 C.3     
   5 C5            -2.8479    -2.5931     0.0153 C.3     
   6 C6            -2.8272    -4.1229     0.0069 C.3     
   7 C7            -4.2626    -4.6525     0.0178 C.3     
   8 C8            -4.2418    -6.1823     0.0094 C.3     
   9 C9            -5.6772    -6.7119     0.0202 C.3     
  10 C10           -5.6565    -8.2417     0.0118 C.3     
  11 C11           -7.0918    -8.7713     0.0227 C.3     
  12 C12           -7.0711   -10.3012     0.0143 C.3     
  13 C13           -8.5065   -10.8307     0.0251 C.3     
  14 C14           -8.4857   -12.3606     0.0167 C.3     
  15 C15           -9.8995   -12.8822     0.0274 C.2     
  16 N16          -10.1278   -14.2105     0.0224 N.am    
  17 O17          -10.8319   -12.1067     0.0405 O.2     
  18 C18          -11.5022   -14.7176     0.0328 C.3     
  19 C19          -11.4818   -16.2244     0.0246 C.2     
  20 N20          -12.6397   -16.9141     0.0319 N.am    
  21 O21          -10.4234   -16.8164     0.0113 O.2     
  22 C22          -12.6198   -18.3789     0.0239 C.3     
  23 C23          -14.0336   -18.9006     0.0345 C.2     
  24 N24          -14.2619   -20.2288     0.0296 N.am    
  25 O25          -14.9660   -18.1251     0.0476 O.2     
  26 C26          -15.6363   -20.7359     0.0400 C.3     
  27 C27          -15.6677   -22.1146    -0.5676 C.2     
  28 O28          -14.6429   -22.6236    -0.9697 O.2     
  29 N29          -16.8345   -22.7821    -0.6641 N.am    
  30 C30          -16.1445   -20.8022     1.4816 C.3     
  31 C31          -16.2295   -19.4087     2.0489 C.ar    
  32 C32          -17.3963   -18.6790     1.9152 C.ar    
  33 C33          -16.8650   -24.1224    -1.2548 C.3     
  34 C34          -16.5289   -25.1603    -0.1821 C.3     
  35 C35          -18.2404   -24.3973    -1.8061 C.2     
  36 O36          -19.1095   -23.5563    -1.7147 O.2     
  37 N37          -18.5045   -25.5775    -2.4008 N.am    
  38 C38          -15.0873   -24.9583     0.2890 C.3     
  39 C39          -14.7562   -25.9805     1.3456 C.2     
  40 N40          -13.5323   -25.9942     1.9100 N.am    
  41 C41          -19.8415   -25.8447    -2.9368 C.3     
  42 C42          -19.9467   -25.2745    -4.3527 C.3     
  43 C43          -20.0793   -27.3323    -2.9754 C.2     
  44 O44          -19.2168   -28.0943    -2.5928 O.2     
  45 N45          -21.2503   -27.8159    -3.4350 N.am    
  46 C46          -21.4814   -29.2621    -3.4724 C.3     
  47 C47          -22.9850   -29.5399    -3.4170 C.3     
  48 C48          -20.9038   -29.8375    -4.7671 C.3     
  49 C49          -23.5399   -29.0761    -2.0688 C.3     
  50 C50          -25.0435   -29.3539    -2.0134 C.3     
  51 C51          -17.4766   -17.4013     2.4344 C.ar    
  52 C52          -16.3853   -16.8505     3.0903 C.ar    
  53 C53          -15.2157   -17.5846     3.2231 C.ar    
  54 C54          -15.1423   -18.8640     2.7071 C.ar    
  55 O55          -16.4617   -15.5936     3.6015 O.3     
  56 O56          -15.5910   -26.7909     1.6881 O.2     
  57 C57          -25.5985   -28.8901    -0.6651 C.3     
  58 N58          -27.0421   -29.1568    -0.6119 N.3     
  59 C59            1.4167     2.0553    -0.0004 C.3     
  60 H60           -9.3821   -14.8307     0.0120 H       
  61 C61          -19.8295   -23.7500    -4.2987 C.3     
  62 C62          -19.9346   -23.1799    -5.7146 C.3     
  63 C63          -19.8174   -21.6553    -5.6605 C.3     
  64 N64          -19.9183   -21.1079    -7.0200 N.3     
  65 H65           -0.5459     1.8868    -0.8726 H       
  66 H66           -0.5289     1.8773     0.9072 H       
  67 H67            0.5123    -0.3556    -0.8948 H       
  68 H68            0.5293    -0.3651     0.8851 H       
  69 H69           -1.9435    -0.1821     0.9097 H       
  70 H70           -1.9605    -0.1726    -0.8702 H       
  71 H71           -0.9024    -2.4150    -0.8923 H       
  72 H72           -0.8854    -2.4246     0.8875 H       
  73 H73           -3.3581    -2.2415     0.9121 H       
  74 H74           -3.3751    -2.2320    -0.8677 H       
  75 H75           -2.3170    -4.4744    -0.8899 H       
  76 H76           -2.3000    -4.4840     0.8900 H       
  77 H77           -4.7728    -4.3010     0.9146 H       
  78 H78           -4.7898    -4.2914    -0.8653 H       
  79 H79           -3.7316    -6.5338    -0.8874 H       
  80 H80           -3.7146    -6.5434     0.8924 H       
  81 H81           -6.1874    -6.3604     0.9170 H       
  82 H82           -6.2044    -6.3508    -0.8628 H       
  83 H83           -5.1463    -8.5933    -0.8850 H       
  84 H84           -5.1293    -8.6028     0.8949 H       
  85 H85           -7.6020    -8.4198     0.9195 H       
  86 H86           -7.6190    -8.4102    -0.8604 H       
  87 H87           -6.5609   -10.6527    -0.8825 H       
  88 H88           -6.5439   -10.6622     0.8973 H       
  89 H89           -9.0167   -10.4792     0.9219 H       
  90 H90           -9.0337   -10.4697    -0.8579 H       
  91 H91           -7.9755   -12.7121    -0.8801 H       
  92 H92           -7.9586   -12.7217     0.8998 H       
  93 H93          -12.0124   -14.3660     0.9296 H       
  94 H94          -12.0294   -14.3565    -0.8502 H       
  95 H95          -13.4862   -16.4406     0.0425 H       
  96 H96          -12.1096   -18.7305    -0.8729 H       
  97 H97          -12.0926   -18.7400     0.9069 H       
  98 H98          -13.5162   -20.8491     0.0191 H       
  99 H99          -16.2741   -20.0688    -0.5398 H       
 100 H100         -17.6542   -22.3751    -0.3425 H       
 101 H101         -17.1328   -21.2619     1.4977 H       
 102 H102         -15.4570   -21.3977     2.0822 H       
 103 H103         -18.2455   -19.1081     1.4042 H       
 104 H104         -16.1324   -24.1815    -2.0597 H       
 105 H105         -17.2072   -25.0422     0.6630 H       
 106 H106         -16.6381   -26.1617    -0.5985 H       
 107 H107         -17.8094   -26.2501    -2.4740 H       
 108 H108         -14.4090   -25.0764    -0.5560 H       
 109 H109         -14.9781   -23.9569     0.7054 H       
 110 H110         -12.8646   -25.3461     1.6360 H       
 111 H111         -13.3192   -26.6522     2.5901 H       
 112 H112         -20.5895   -25.3736    -2.2990 H       
 113 H113         -19.1430   -25.6791    -4.9679 H       
 114 H114         -20.9088   -25.5499    -4.7848 H       
 115 H115         -21.9401   -27.2064    -3.7409 H       
 116 H116         -20.9937   -29.7302    -2.6174 H       
 117 H117         -23.4842   -28.9990    -4.2209 H       
 118 H118         -23.1614   -30.6091    -3.5342 H       
 119 H119         -19.8327   -29.6396    -4.8066 H       
 120 H120         -21.0758   -30.9135    -4.7950 H       
 121 H121         -21.3916   -29.3693    -5.6221 H       
 122 H122         -23.0407   -29.6170    -1.2649 H       
 123 H123         -23.3635   -28.0069    -1.9516 H       
 124 H124         -25.5428   -28.8130    -2.8173 H       
 125 H125         -25.2200   -30.4231    -2.1305 H       
 126 H126         -18.3881   -16.8317     2.3294 H       
 127 H127         -14.3647   -17.1580     3.7332 H       
 128 H128         -14.2321   -19.4361     2.8105 H       
 129 H129         -16.7777   -15.5590     4.5147 H       
 130 H130         -25.0992   -29.4310     0.1388 H       
 131 H131         -25.4220   -27.8209    -0.5480 H       
 132 H132         -27.2361   -30.1322    -0.7824 H       
 133 H133         -27.4325   -28.8592     0.2696 H       
 134 H134           1.4019     3.1452     0.0056 H       
 135 H135           1.9439     1.6943     0.8826 H       
 136 H136           1.9269     1.7038    -0.8972 H       
 137 H137         -20.6332   -23.3454    -3.6835 H       
 138 H138         -18.8674   -23.4746    -3.8666 H       
 139 H139         -19.1309   -23.5845    -6.3298 H       
 140 H140         -20.8967   -23.4552    -6.1466 H       
 141 H141         -20.6211   -21.2507    -5.0453 H       
 142 H142         -18.8553   -21.3800    -5.2285 H       
 143 H143         -19.8438   -20.1017    -7.0111 H       
 144 H144         -19.2236   -21.5167    -7.6269 H       
 145 C145          21.8912    13.4512    23.1690 C.3     
 146 C146          23.2264    13.3371    22.4306 C.3     
 147 C147          23.7064    14.7127    22.0451 C.2     
 148 N148          24.2154    12.7021    23.3052 N.am    
 149 N149          22.9348    15.5041    21.2740 N.am    
 150 O150          24.7870    15.1074    22.4288 O.2     
 151 C151          23.4163    16.8275    20.8702 C.3     
 152 C152          22.2696    17.8052    20.8847 C.2     
 153 N153          22.4777    19.0930    20.5460 N.am    
 154 O154          21.1595    17.4333    21.2011 O.2     
 155 C155          21.3456    20.0182    20.4532 C.3     
 156 C156          20.6747    19.8583    19.1133 C.2     
 157 O157          21.1002    19.0510    18.3146 O.2     
 158 N158          19.6017    20.6124    18.8027 N.am    
 159 C159          18.9494    20.4569    17.5002 C.3     
 160 C160          19.6717    21.3181    16.4621 C.3     
 161 C161          17.5111    20.8948    17.6031 C.2     
 162 O162          17.0740    21.2972    18.6605 O.2     
 163 N163          16.7106    20.8394    16.5203 N.am    
 164 C164          15.3124    21.2651    16.6204 C.3     
 165 C165          14.4599    20.1006    17.1284 C.3     
 166 C166          14.8194    21.6936    15.2624 C.2     
 167 O167          15.5627    21.6479    14.3051 O.2     
 168 N168          13.5523    22.1276    15.1116 N.am    
 169 C169          13.0730    22.5442    13.7914 C.3     
 170 C170          12.5901    21.3182    13.0139 C.3     
 171 C171          11.9332    23.5165    13.9546 C.2     
 172 O172          11.5582    23.8305    15.0644 O.2     
 173 N173          11.3306    24.0371    12.8672 N.am    
 174 C174          13.7744    20.3891    12.7398 C.3     
 175 C175          13.2915    19.1630    11.9624 C.3     
 176 N176          14.4255    18.2734    11.7000 N.pl3   
 177 C177          14.2331    17.0996    11.0105 C.2     
 178 C178          24.0014    16.7485    19.4587 C.3     
 179 C179          25.1448    15.7321    19.4367 C.3     
 180 O180          22.9831    16.3399    18.5432 O.3     
 181 C181          21.8480    21.4556    20.6037 C.3     
 182 C182          22.4021    21.6513    21.9914 C.2     
 183 O183          22.8154    22.8666    22.3837 O.3     
 184 O184          22.4744    20.7143    22.7508 O.2     
 185 C185          21.0959    20.7942    16.2667 C.3     
 186 C186          21.8181    21.6554    15.2286 C.3     
 187 C187          23.2423    21.1315    15.0332 C.3     
 188 N188          23.9357    21.9584    14.0365 N.3     
 189 C189          14.8724    19.7525    18.5355 C.ar    
 190 C190          14.2567    20.3688    19.6087 C.ar    
 191 C191          15.8625    18.8127    18.7530 C.ar    
 192 C192          16.2409    18.4933    20.0436 C.ar    
 193 C193          15.6294    19.1141    21.1167 C.ar    
 194 C194          14.6350    20.0495    20.8994 C.ar    
 195 N195          15.2973    16.2647    10.7643 N.pl3   
 196 N196          13.0419    16.7782    10.5903 N.2     
 197 C197          10.2226    24.9823    13.0259 C.3     
 198 C198           8.9334    24.2209    13.1975 C.2     
 199 C199          10.1286    25.8710    11.7841 C.3     
 200 C200          11.3990    26.7151    11.6636 C.3     
 201 N201           7.7737    24.8876    13.3613 N.am    
 202 O202           8.9396    23.0081    13.1881 O.2     
 203 C203          11.3848    27.4711    10.3335 C.3     
 204 C204          11.4573    27.7166    12.8189 C.3     
 205 C205          25.0890    11.8098    22.7981 C.2     
 206 O206          25.0095    11.4772    21.6345 O.2     
 207 C207          26.1647    11.2255    23.6770 C.3     
 208 N208          27.0545    10.3710    22.8772 N.am    
 209 C209          27.0194     9.0044    23.4292 C.3     
 210 C210          25.6592     8.9085    24.1643 C.3     
 211 C211          25.5278    10.3336    24.7635 C.3     
 212 C212          27.7812    10.7706    21.8149 C.2     
 213 O213          28.5502     9.9992    21.2814 O.2     
 214 C214          27.6385    12.1760    21.2899 C.3     
 215 C215          28.2457    13.1592    22.2928 C.3     
 216 N216          28.3378    12.2918    20.0079 N.am    
 217 C217          27.7872    12.9991    19.0014 C.2     
 218 C218          28.0540    14.5895    21.7846 C.3     
 219 C219          28.6612    15.5727    22.7874 C.3     
 220 N220          28.4776    16.9423    22.3009 N.pl3   
 221 C221          28.9454    18.0029    23.0401 C.2     
 222 N222          29.5522    17.7898    24.1738 N.2     
 223 N223          28.7732    19.2882    22.5835 N.pl3   
 224 O224          26.7418    13.5887    19.1756 O.2     
 225 C225          28.4706    13.0574    17.6595 C.3     
 226 C226          28.3720    11.6916    16.9772 C.3     
 227 N227          27.8196    14.0691    16.8235 N.am    
 228 C228          26.5598    13.8731    16.3865 C.2     
 229 O229          25.9341    12.9019    16.7557 O.2     
 230 C230          25.9287    14.8606    15.4391 C.3     
 231 C231          29.1714    11.7142    15.6728 C.3     
 232 C232          30.6566    11.9029    15.9881 C.3     
 233 C233          28.9719    10.3919    14.9294 C.3     
 234 C234          21.3505    12.0720    23.4454 C.2     
 235 C235          20.5379    11.3587    22.6499 C.2     
 236 N236          20.2577    10.1520    23.2311 N.pl3   
 237 C237          20.8995    10.0571    24.4455 C.ar    
 238 C238          21.6172    11.2528    24.6301 C.ar    
 239 C239          20.9566     9.0699    25.4241 C.ar    
 240 C240          21.7069     9.2759    26.5608 C.ar    
 241 C241          22.4084    10.4603    26.7412 C.ar    
 242 C242          22.3723    11.4401    25.7896 C.ar    
 243 H243          22.0410    13.9783    24.1113 H       
 244 H244          21.1813    14.0031    22.5529 H       
 245 H245          23.0945    12.7335    21.5327 H       
 246 H246          24.2414    12.9238    24.2491 H       
 247 H247          22.0606    15.1975    20.9864 H       
 248 H248          24.1871    17.1612    21.5649 H       
 249 H249          23.3771    19.4073    20.3636 H       
 250 H250          20.6308    19.7983    21.2461 H       
 251 H251          19.2613    21.2581    19.4416 H       
 252 H252          18.9899    19.4110    17.1961 H       
 253 H253          19.1345    21.2722    15.5147 H       
 254 H254          19.7088    22.3507    16.8090 H       
 255 H255          17.0603    20.5175    15.6747 H       
 256 H256          15.2362    22.1015    17.3152 H       
 257 H257          13.4087    20.3886    17.1187 H       
 258 H258          14.6054    19.2348    16.4824 H       
 259 H259          12.9578    22.1642    15.8772 H       
 260 H260          13.8848    23.0244    13.2450 H       
 261 H261          11.8404    20.7877    13.6010 H       
 262 H262          12.1520    21.6371    12.0681 H       
 263 H263          11.6305    23.7859    11.9796 H       
 264 H264          14.5241    20.9195    12.1527 H       
 265 H265          14.2124    20.0702    13.6856 H       
 266 H266          12.5418    18.6326    12.5495 H       
 267 H267          12.8534    19.4819    11.0166 H       
 268 H268          15.3120    18.5125    12.0127 H       
 269 H269          24.3803    17.7281    19.1671 H       
 270 H270          25.5110    15.6193    18.4163 H       
 271 H271          25.9546    16.0824    20.0767 H       
 272 H272          24.7833    14.7707    19.8015 H       
 273 H273          23.2837    16.2683    17.6269 H       
 274 H274          22.6310    21.6455    19.8696 H       
 275 H275          21.0220    22.1480    20.4413 H       
 276 H276          23.1633    22.9430    23.2828 H       
 277 H277          21.6330    20.8401    17.2140 H       
 278 H278          21.0587    19.7616    15.9197 H       
 279 H279          21.2809    21.6095    14.2813 H       
 280 H280          21.8552    22.6880    15.5756 H       
 281 H281          23.7795    21.1774    15.9805 H       
 282 H282          23.2052    20.0989    14.6862 H       
 283 H283          24.8792    21.6323    13.8895 H       
 284 H284          23.4227    21.9842    13.1680 H       
 285 H285          13.4802    21.1001    19.4389 H       
 286 H286          16.3402    18.3277    17.9145 H       
 287 H287          17.0139    17.7586    20.2135 H       
 288 H288          15.9247    18.8644    22.1251 H       
 289 H289          14.1573    20.5345    21.7378 H       
 290 H290          16.1839    16.5038    11.0770 H       
 291 H291          15.1616    15.4365    10.2778 H       
 292 H292          12.9062    15.9501    10.1038 H       
 293 H293          10.3976    25.6031    13.9046 H       
 294 H294          10.0221    25.2462    10.8973 H       
 295 H295           9.2630    26.5277    11.8719 H       
 296 H296          12.2726    26.0644    11.7025 H       
 297 H297           7.7687    25.8576    13.3687 H       
 298 H298           6.9439    24.3975    13.4717 H       
 299 H299          12.3277    28.0034    10.2081 H       
 300 H300          11.2554    26.7633     9.5147 H       
 301 H301          10.5613    28.1851    10.3302 H       
 302 H302          11.4674    27.1780    13.7665 H       
 303 H303          12.3623    28.3179    12.7331 H       
 304 H304          10.5837    28.3673    12.7800 H       
 305 H305          26.7393    12.0267    24.1418 H       
 306 H306          27.0692     8.2694    22.6259 H       
 307 H307          27.8408     8.8574    24.1305 H       
 308 H308          24.8500     8.7031    23.4635 H       
 309 H309          25.6929     8.1553    24.9515 H       
 310 H310          26.0812    10.4111    25.6993 H       
 311 H311          24.4798    10.5947    24.9113 H       
 312 H312          26.5822    12.4059    21.1497 H       
 313 H313          27.7503    13.0468    23.2572 H       
 314 H314          29.3101    12.9530    22.4047 H       
 315 H315          29.1971    11.8595    19.8834 H       
 316 H316          28.5493    14.7019    20.8202 H       
 317 H317          26.9895    14.7957    21.6726 H       
 318 H318          28.1659    15.4603    23.7519 H       
 319 H319          29.7256    15.3665    22.8994 H       
 320 H320          28.0261    17.1008    21.4571 H       
 321 H321          29.8823    18.5381    24.6953 H       
 322 H322          28.3216    19.4467    21.7398 H       
 323 H323          29.1033    20.0365    23.1050 H       
 324 H324          29.5195    13.3200    17.7971 H       
 325 H325          28.7769    10.9252    17.6382 H       
 326 H326          27.3275    11.4688    16.7594 H       
 327 H327          28.2952    14.8800    16.5844 H       
 328 H328          26.1371    14.5625    14.4115 H       
 329 H329          24.8508    14.8806    15.6000 H       
 330 H330          26.3416    15.8529    15.6204 H       
 331 H331          28.8250    12.5379    15.0486 H       
 332 H332          31.0031    11.0792    16.6123 H       
 333 H333          31.2261    11.9190    15.0588 H       
 334 H334          30.7988    12.8449    16.5177 H       
 335 H335          27.9138    10.2575    14.7048 H       
 336 H336          29.5413    10.4081    14.0001 H       
 337 H337          29.3183     9.5683    15.5536 H       
 338 H338          20.1607    11.6886    21.6932 H       
 339 H339          19.6910     9.4659    22.8451 H       
 340 H340          20.4141     8.1452    25.2932 H       
 341 H341          21.7496     8.5085    27.3195 H       
 342 H342          22.9917    10.6061    27.6383 H       
 343 H343          22.9206    12.3589    25.9367 H       
@<TRIPOS>BOND
   1    1    2 1
   2    1   59 1
   3    1   65 1
   4    1   66 1
   5    2    3 1
   6    2   67 1
   7    2   68 1
   8    3    4 1
   9    3   69 1
  10    3   70 1
  11    4    5 1
  12    4   71 1
  13    4   72 1
  14    5    6 1
  15    5   73 1
  16    5   74 1
  17    6    7 1
  18    6   75 1
  19    6   76 1
  20    7    8 1
  21    7   77 1
  22    7   78 1
  23    8    9 1
  24    8   79 1
  25    8   80 1
  26    9   10 1
  27    9   81 1
  28    9   82 1
  29   10   11 1
  30   10   83 1
  31   10   84 1
  32   11   12 1
  33   11   85 1
  34   11   86 1
  35   12   13 1
  36   12   87 1
  37   12   88 1
  38   13   14 1
  39   13   89 1
  40   13   90 1
  41   14   15 1
  42   14   91 1
  43   14   92 1
  44   15   16 am
  45   15   17 2
  46   16   18 1
  47   16   60 1
  48   18   19 1
  49   18   93 1
  50   18   94 1
  51   19   20 am
  52   19   21 2
  53   20   22 1
  54   20   95 1
  55   22   23 1
  56   22   96 1
  57   22   97 1
  58   23   24 am
  59   23   25 2
  60   24   26 1
  61   24   98 1
  62   26   27 1
  63   26   30 1
  64   26   99 1
  65   27   28 2
  66   27   29 am
  67   29   33 1
  68   29  100 1
  69   30   31 1
  70   30  101 1
  71   30  102 1
  72   31   32 ar
  73   31   54 ar
  74   32   51 ar
  75   32  103 1
  76   33   34 1
  77   33   35 1
  78   33  104 1
  79   34   38 1
  80   34  105 1
  81   34  106 1
  82   35   36 2
  83   35   37 am
  84   37   41 1
  85   37  107 1
  86   38   39 1
  87   38  108 1
  88   38  109 1
  89   39   40 am
  90   39   56 2
  91   40  110 1
  92   40  111 1
  93   41   42 1
  94   41   43 1
  95   41  112 1
  96   42   61 1
  97   42  113 1
  98   42  114 1
  99   43   44 2
 100   43   45 am
 101   45   46 1
 102   45  115 1
 103   46   47 1
 104   46   48 1
 105   46  116 1
 106   47   49 1
 107   47  117 1
 108   47  118 1
 109   48  119 1
 110   48  120 1
 111   48  121 1
 112   49   50 1
 113   49  122 1
 114   49  123 1
 115   50   57 1
 116   50  124 1
 117   50  125 1
 118   51   52 ar
 119   51  126 1
 120   52   53 ar
 121   52   55 1
 122   53   54 ar
 123   53  127 1
 124   54  128 1
 125   55  129 1
 126   57   58 1
 127   57  130 1
 128   57  131 1
 129   58  132 1
 130   58  133 1
 131   59  134 1
 132   59  135 1
 133   59  136 1
 134   61   62 1
 135   61  137 1
 136   61  138 1
 137   62   63 1
 138   62  139 1
 139   62  140 1
 140   63   64 1
 141   63  141 1
 142   63  142 1
 143   64  143 1
 144   64  144 1
 145  145  234 1
 146  145  146 1
 147  145  243 1
 148  145  244 1
 149  146  147 1
 150  146  148 1
 151  146  245 1
 152  147  149 am
 153  147  150 2
 154  148  205 am
 155  148  246 1
 156  149  151 1
 157  149  247 1
 158  151  152 1
 159  151  178 1
 160  151  248 1
 161  152  153 am
 162  152  154 2
 163  153  155 1
 164  153  249 1
 165  155  156 1
 166  155  181 1
 167  155  250 1
 168  156  157 2
 169  156  158 am
 170  158  159 1
 171  158  251 1
 172  159  160 1
 173  159  161 1
 174  159  252 1
 175  160  185 1
 176  160  253 1
 177  160  254 1
 178  161  162 2
 179  161  163 am
 180  163  164 1
 181  163  255 1
 182  164  165 1
 183  164  166 1
 184  164  256 1
 185  165  189 1
 186  165  257 1
 187  165  258 1
 188  166  167 2
 189  166  168 am
 190  168  169 1
 191  168  259 1
 192  169  170 1
 193  169  171 1
 194  169  260 1
 195  170  174 1
 196  170  261 1
 197  170  262 1
 198  171  172 2
 199  171  173 am
 200  173  197 1
 201  173  263 1
 202  174  175 1
 203  174  264 1
 204  174  265 1
 205  175  176 1
 206  175  266 1
 207  175  267 1
 208  176  177 1
 209  176  268 1
 210  177  195 1
 211  177  196 2
 212  178  179 1
 213  178  180 1
 214  178  269 1
 215  179  270 1
 216  179  271 1
 217  179  272 1
 218  180  273 1
 219  181  182 1
 220  181  274 1
 221  181  275 1
 222  182  183 1
 223  182  184 2
 224  183  276 1
 225  185  186 1
 226  185  277 1
 227  185  278 1
 228  186  187 1
 229  186  279 1
 230  186  280 1
 231  187  188 1
 232  187  281 1
 233  187  282 1
 234  188  283 1
 235  188  284 1
 236  189  190 ar
 237  189  191 ar
 238  190  194 ar
 239  190  285 1
 240  191  192 ar
 241  191  286 1
 242  192  193 ar
 243  192  287 1
 244  193  194 ar
 245  193  288 1
 246  194  289 1
 247  195  290 1
 248  195  291 1
 249  196  292 1
 250  197  198 1
 251  197  199 1
 252  197  293 1
 253  198  201 am
 254  198  202 2
 255  199  200 1
 256  199  294 1
 257  199  295 1
 258  200  203 1
 259  200  204 1
 260  200  296 1
 261  201  297 1
 262  201  298 1
 263  203  299 1
 264  203  300 1
 265  203  301 1
 266  204  302 1
 267  204  303 1
 268  204  304 1
 269  205  206 2
 270  205  207 1
 271  207  208 1
 272  207  211 1
 273  207  305 1
 274  208  209 1
 275  208  212 am
 276  209  210 1
 277  209  306 1
 278  209  307 1
 279  210  211 1
 280  210  308 1
 281  210  309 1
 282  211  310 1
 283  211  311 1
 284  212  213 2
 285  212  214 1
 286  214  215 1
 287  214  216 1
 288  214  312 1
 289  215  218 1
 290  215  313 1
 291  215  314 1
 292  216  217 am
 293  216  315 1
 294  217  224 2
 295  217  225 1
 296  218  219 1
 297  218  316 1
 298  218  317 1
 299  219  220 1
 300  219  318 1
 301  219  319 1
 302  220  221 1
 303  220  320 1
 304  221  222 2
 305  221  223 1
 306  222  321 1
 307  223  322 1
 308  223  323 1
 309  225  226 1
 310  225  227 1
 311  225  324 1
 312  226  231 1
 313  226  325 1
 314  226  326 1
 315  227  228 am
 316  227  327 1
 317  228  229 2
 318  228  230 1
 319  230  328 1
 320  230  329 1
 321  230  330 1
 322  231  232 1
 323  231  233 1
 324  231  331 1
 325  232  332 1
 326  232  333 1
 327  232  334 1
 328  233  335 1
 329  233  336 1
 330  233  337 1
 331  234  235 2
 332  234  238 1
 333  235  236 1
 334  235  338 1
 335  236  237 1
 336  236  339 1
 337  237  238 ar
 338  237  239 ar
 339  238  242 ar
 340  239  240 ar
 341  239  340 1
 342  240  241 ar
 343  240  341 1
 344  241  242 ar
 345  241  342 1
 346  242  343 1

#	End of record

