#	Name: ASD01150281
#	Creating user name:	WinNT
#	Creation time:	15. 06. 2019 19:03

#	Modifying user name:	WinNT
#	Modification time:	15. 06. 2019 19:03

#	Program:	/corina/corina34_cracker 3.40 0067  02.08.2006

@<TRIPOS>MOLECULE
ASD01150281
  56   58    0    0    0
SMALL
NO_CHARGES


@<TRIPOS>ATOM
   1 C1            -0.0158     1.3123     0.0093 C.2     
   2 N2             0.0021    -0.0041     0.0020 N.2     
   3 C3            -1.2465    -0.4792     0.0119 C.2     
   4 C4            -2.1134     0.6064     0.0263 C.2     
   5 N5            -1.3045     1.7451     0.0298 N.pl3   
   6 N6             1.0958     2.1231     0.0030 N.3     
   7 C7             2.3292     1.3253    -0.0137 C.3     
   8 C8             1.0586     3.0586    -1.1289 C.3     
   9 C9            -1.7378     3.0772     0.0440 C.ar    
  10 N10           -1.6126    -1.8197     0.0083 N.am    
  11 C11           -3.5222     0.5668     0.0394 C.2     
  12 O12           -4.2300     1.7168     0.0522 O.3     
  13 O13           -4.1012    -0.5046     0.0391 O.2     
  14 C14           -5.6543     1.6019     0.0650 C.3     
  15 C15           -6.0929     0.8353     1.3143 C.3     
  16 C16           -6.2786     2.9987     0.0783 C.3     
  17 C17           -6.1164     0.8486    -1.1840 C.3     
  18 C18           -1.4621     3.8869     1.1378 C.ar    
  19 C19           -1.8903     5.2000     1.1485 C.ar    
  20 C20           -2.5928     5.7085     0.0715 C.ar    
  21 C21           -2.8693     4.9045    -1.0191 C.ar    
  22 C22           -2.4389     3.5923    -1.0383 C.ar    
  23 C23           -0.6643    -2.7773    -0.0057 C.2     
  24 C24           -1.0535    -4.2019    -0.0095 C.ar    
  25 O25            0.5114    -2.4683    -0.0153 O.2     
  26 C26           -0.0729    -5.1959    -0.0241 C.ar    
  27 C27           -0.4406    -6.5248    -0.0276 C.ar    
  28 C28           -1.7810    -6.8761    -0.0172 C.ar    
  29 C29           -2.7614    -5.8925    -0.0027 C.ar    
  30 C30           -2.4037    -4.5596     0.0072 C.ar    
  31 F31           -4.0666    -6.2409     0.0070 F       
  32 F32           -2.1353    -8.1798    -0.0216 F       
  33 H33            2.3464     0.7016    -0.9074 H       
  34 H34            3.1923     1.9909    -0.0183 H       
  35 H35            2.3639     0.6915     0.8724 H       
  36 H36            0.1696     3.6849    -1.0537 H       
  37 H37            1.9487     3.6875    -1.1100 H       
  38 H38            1.0299     2.4977    -2.0631 H       
  39 H39           -2.5507    -2.0662     0.0159 H       
  40 H40           -5.7637     1.3719     2.2041 H       
  41 H41           -7.1793     0.7476     1.3241 H       
  42 H42           -5.6482    -0.1598     1.3048 H       
  43 H43           -5.9661     3.5448    -0.8118 H       
  44 H44           -7.3650     2.9110     0.0880 H       
  45 H45           -5.9494     3.5353     0.9681 H       
  46 H46           -5.6717    -0.1465    -1.1935 H       
  47 H47           -7.2029     0.7610    -1.1743 H       
  48 H48           -5.8040     1.3948    -2.0741 H       
  49 H49           -0.9138     3.4903     1.9795 H       
  50 H50           -1.6765     5.8302     1.9992 H       
  51 H51           -2.9266     6.7356     0.0822 H       
  52 H52           -3.4188     5.3044    -1.8585 H       
  53 H53           -2.6548     2.9650    -1.8905 H       
  54 H54            0.9723    -4.9241    -0.0329 H       
  55 H55            0.3178    -7.2936    -0.0389 H       
  56 H56           -3.1661    -3.7947     0.0188 H       
@<TRIPOS>BOND
   1    1    2 2
   2    1    6 1
   3    1    5 1
   4    2    3 1
   5    3    4 2
   6    3   10 1
   7    4    5 1
   8    4   11 1
   9    5    9 1
  10    6    7 1
  11    6    8 1
  12    7   33 1
  13    7   34 1
  14    7   35 1
  15    8   36 1
  16    8   37 1
  17    8   38 1
  18    9   18 ar
  19    9   22 ar
  20   10   23 am
  21   10   39 1
  22   11   12 1
  23   11   13 2
  24   12   14 1
  25   14   15 1
  26   14   16 1
  27   14   17 1
  28   15   40 1
  29   15   41 1
  30   15   42 1
  31   16   43 1
  32   16   44 1
  33   16   45 1
  34   17   46 1
  35   17   47 1
  36   17   48 1
  37   18   19 ar
  38   18   49 1
  39   19   20 ar
  40   19   50 1
  41   20   21 ar
  42   20   51 1
  43   21   22 ar
  44   21   52 1
  45   22   53 1
  46   23   24 1
  47   23   25 2
  48   24   26 ar
  49   24   30 ar
  50   26   27 ar
  51   26   54 1
  52   27   28 ar
  53   27   55 1
  54   28   29 ar
  55   28   32 1
  56   29   30 ar
  57   29   31 1
  58   30   56 1

#	End of record

