#	Name: ASD05490044
#	Creating user name:	WinNT
#	Creation time:	15. 06. 2019 21:01

#	Modifying user name:	WinNT
#	Modification time:	15. 06. 2019 21:01

#	Program:	/corina/corina34_cracker 3.40 0067  02.08.2006

@<TRIPOS>MOLECULE
ASD05490044
  63   67    0    0    0
SMALL
NO_CHARGES


@<TRIPOS>ATOM
   1 O1            -0.0173     1.4248     0.0099 O.3     
   2 N2             2.7162     5.3699     0.0053 N.am    
   3 N3             2.2880     1.3303    -0.0126 N.ar    
   4 C4             3.4867     1.9104    -0.0211 C.ar    
   5 C5             1.1817     2.0564     0.0018 C.ar    
   6 N6             1.2086     3.3789     0.0091 N.ar    
   7 C7             2.3660     4.0319     0.0015 C.ar    
   8 C8             3.5555     3.3024    -0.0142 C.ar    
   9 N9             4.6434     1.1447    -0.0366 N.pl3   
  10 C10            4.0594     5.4635    -0.0126 C.2     
  11 N11            4.5983     4.2283    -0.0196 N.am    
  12 O12            4.6902     6.5042    -0.0150 O.2     
  13 C13            1.7812     6.4976     0.0199 C.3     
  14 C14            1.4739     6.8769     1.4457 C.ar    
  15 C15            0.4131     6.2802     2.1037 C.ar    
  16 C16            0.0021    -0.0041     0.0020 C.3     
  17 C17           -1.4333    -0.5336     0.0129 C.3     
  18 C18           -1.4126    -2.0635     0.0045 C.3     
  19 C19           -2.8479    -2.5931     0.0153 C.3     
  20 C20            2.2571     7.8160     2.0927 C.ar    
  21 C21            1.9813     8.1673     3.3981 C.ar    
  22 C22            0.9094     7.5734     4.0657 C.ar    
  23 C23            0.1265     6.6230     3.4090 C.ar    
  24 C24            0.6084     7.9448     5.4650 C.2     
  25 N25           -0.3621     7.4580     6.1840 N.2     
  26 C26           -0.4783     7.9070     7.4124 C.2     
  27 C27            0.4227     8.8216     7.7865 C.2     
  28 S28            1.5097     9.1113     6.4296 S.3     
  29 N29           -2.7874     8.1959     8.1120 N.3     
  30 C30           -3.9303     7.5999     8.8279 C.3     
  31 C31           -4.5137     8.6928     9.7480 C.3     
  32 C32           -4.0258    10.0067     9.0828 C.3     
  33 C33           -2.6255     9.5939     8.5649 C.3     
  34 C34           -1.5602     7.4222     8.3427 C.3     
  35 H35            4.5841     0.1765    -0.0414 H       
  36 H36            5.5114     1.5775    -0.0427 H       
  37 H37            5.5456     4.0197    -0.0267 H       
  38 H38            2.2297     7.3481    -0.4936 H       
  39 H39            0.8594     6.2120    -0.4868 H       
  40 H40           -0.1920     5.5448     1.5944 H       
  41 H41            0.5123    -0.3556    -0.8948 H       
  42 H42            0.5293    -0.3651     0.8851 H       
  43 H43           -1.9435    -0.1821     0.9097 H       
  44 H44           -1.9605    -0.1726    -0.8702 H       
  45 H45           -0.9024    -2.4150    -0.8923 H       
  46 H46           -0.8854    -2.4246     0.8875 H       
  47 H47           -2.8332    -3.6829     0.0093 H       
  48 H48           -3.3581    -2.2415     0.9121 H       
  49 H49           -3.3751    -2.2320    -0.8677 H       
  50 H50            3.0864     8.2749     1.5750 H       
  51 H51            2.5939     8.9000     3.9024 H       
  52 H52           -0.7047     6.1600     3.9201 H       
  53 H53            0.4777     9.2972     8.7545 H       
  54 H54           -4.6863     7.2741     8.1135 H       
  55 H55           -3.5927     6.7532     9.4257 H       
  56 H56           -5.6027     8.6472     9.7580 H       
  57 H57           -4.1138     8.6004    10.7577 H       
  58 H58           -4.6785    10.2926     8.2581 H       
  59 H59           -3.9499    10.8103     9.8153 H       
  60 H60           -1.8918     9.6497     9.3690 H       
  61 H61           -2.3261    10.2303     7.7321 H       
  62 H62           -1.7553     6.3665     8.1542 H       
  63 H63           -1.2369     7.5532     9.3754 H       
@<TRIPOS>BOND
   1    1   16 1
   2    1    5 1
   3    2   13 1
   4    2    7 1
   5    2   10 am
   6    3    4 ar
   7    3    5 ar
   8    4    9 1
   9    4    8 ar
  10    5    6 ar
  11    6    7 ar
  12    7    8 ar
  13    8   11 1
  14    9   35 1
  15    9   36 1
  16   10   11 am
  17   10   12 2
  18   11   37 1
  19   13   14 1
  20   13   38 1
  21   13   39 1
  22   14   20 ar
  23   14   15 ar
  24   15   23 ar
  25   15   40 1
  26   16   17 1
  27   16   41 1
  28   16   42 1
  29   17   18 1
  30   17   43 1
  31   17   44 1
  32   18   19 1
  33   18   45 1
  34   18   46 1
  35   19   47 1
  36   19   48 1
  37   19   49 1
  38   20   21 ar
  39   20   50 1
  40   21   22 ar
  41   21   51 1
  42   22   23 ar
  43   22   24 1
  44   23   52 1
  45   24   25 2
  46   24   28 1
  47   25   26 1
  48   26   27 2
  49   26   34 1
  50   27   28 1
  51   27   53 1
  52   29   30 1
  53   29   33 1
  54   29   34 1
  55   30   31 1
  56   30   54 1
  57   30   55 1
  58   31   32 1
  59   31   56 1
  60   31   57 1
  61   32   33 1
  62   32   58 1
  63   32   59 1
  64   33   60 1
  65   33   61 1
  66   34   62 1
  67   34   63 1

#	End of record

