#	Name: ASD01208979
#	Creating user name:	WinNT
#	Creation time:	15. 06. 2019 19:10

#	Modifying user name:	WinNT
#	Modification time:	15. 06. 2019 19:10

#	Program:	/corina/corina34_cracker 3.40 0067  02.08.2006

@<TRIPOS>MOLECULE
ASD01208979
  55   59    0    0    0
SMALL
NO_CHARGES


@<TRIPOS>ATOM
   1 C1            -0.0187     1.5275     0.0104 C.3     
   2 C2             0.0021    -0.0041     0.0020 C.3     
   3 C3            -1.4312    -0.5350    -0.0664 C.3     
   4 C4            -1.4162    -2.0604     0.0508 C.3     
   5 C5            -2.8132    -2.5927    -0.1394 C.2     
   6 N6            -3.4713    -2.3612    -1.2925 N.am    
   7 C7            -4.7603    -2.8523    -1.4680 C.2     
   8 N8            -0.9239    -2.4435     1.3763 N.pl3   
   9 C9             0.1873    -3.2073     1.6216 C.ar    
  10 C10            0.2935    -3.3308     3.0207 C.ar    
  11 C11           -0.8296    -2.5886     3.5841 C.2     
  12 N12           -1.5091    -2.0834     2.5946 N.2     
  13 O13           -3.3452    -3.2293     0.7453 O.2     
  14 S14           -5.7079    -2.6342    -2.8741 S.3     
  15 C15           -7.0237    -3.5492    -2.1426 C.2     
  16 C16           -6.6349    -3.9302    -0.9231 C.2     
  17 N17           -5.4155    -3.5464    -0.5916 N.2     
  18 Cl18          -8.5579    -3.8944    -2.8779 Cl      
  19 C19            0.7862    -0.4864    -1.2223 C.3     
  20 C20            2.1942     0.1136    -1.1856 C.3     
  21 O21            2.1023     1.5392    -1.1479 O.3     
  22 C22            1.4204     2.0497    -0.0005 C.3     
  23 C23            1.1348    -3.8215     0.8069 C.ar    
  24 C24            2.1549    -4.5356     1.3693 C.ar    
  25 C25            2.2614    -4.6585     2.7490 C.ar    
  26 C26            1.3479    -4.0664     3.5725 C.ar    
  27 C27            4.9172    -4.3727     3.6739 C.3     
  28 C28            6.2717    -4.8917     4.1604 C.3     
  29 C29            6.1044    -4.4323     2.7106 C.3     
  30 S30            3.5891    -5.5864     3.4425 S.o2    
  31 O31            3.0908    -6.0259     4.6986 O.2     
  32 O32            3.9352    -6.5166     2.4256 O.2     
  33 H33           -0.5443     1.8896    -0.8732 H       
  34 H34           -0.5273     1.8800     0.9078 H       
  35 H35            0.4824    -0.3672     0.9106 H       
  36 H36           -2.0143    -0.1134     0.7523 H       
  37 H37           -1.8799    -0.2481    -1.0175 H       
  38 H38           -0.7613    -2.4772    -0.7145 H       
  39 H39           -3.0458    -1.8520    -2.0000 H       
  40 H40           -1.0545    -2.4748     4.6343 H       
  41 H41           -7.2647    -4.5086    -0.2634 H       
  42 H42            0.8533    -1.5742    -1.2065 H       
  43 H43            0.2769    -0.1650    -2.1308 H       
  44 H44            2.7172    -0.2406    -0.2973 H       
  45 H45            2.7428    -0.1919    -2.0766 H       
  46 H46            1.4115     3.1390    -0.0377 H       
  47 H47            1.9333     1.7209     0.9033 H       
  48 H48            1.0634    -3.7340    -0.2672 H       
  49 H49            2.8873    -5.0106     0.7334 H       
  50 H50            1.4375    -4.1668     4.6441 H       
  51 H51            4.6002    -3.3897     4.0223 H       
  52 H52            6.8461    -4.2501     4.8286 H       
  53 H53            6.3648    -5.9626     4.3414 H       
  54 H54            6.0874    -5.2008     1.9379 H       
  55 H55            6.5687    -3.4884     2.4251 H       
@<TRIPOS>BOND
   1    1    2 1
   2    1   22 1
   3    1   33 1
   4    1   34 1
   5    2    3 1
   6    2   19 1
   7    2   35 1
   8    3    4 1
   9    3   36 1
  10    3   37 1
  11    4    5 1
  12    4    8 1
  13    4   38 1
  14    5    6 am
  15    5   13 2
  16    6    7 1
  17    6   39 1
  18    7   14 1
  19    7   17 2
  20    8    9 1
  21    8   12 1
  22    9   10 ar
  23    9   23 ar
  24   10   11 1
  25   10   26 ar
  26   11   12 2
  27   11   40 1
  28   14   15 1
  29   15   16 2
  30   15   18 1
  31   16   17 1
  32   16   41 1
  33   19   20 1
  34   19   42 1
  35   19   43 1
  36   20   21 1
  37   20   44 1
  38   20   45 1
  39   21   22 1
  40   22   46 1
  41   22   47 1
  42   23   24 ar
  43   23   48 1
  44   24   25 ar
  45   24   49 1
  46   25   26 ar
  47   25   30 1
  48   26   50 1
  49   27   28 1
  50   27   30 1
  51   27   29 1
  52   27   51 1
  53   28   29 1
  54   28   52 1
  55   28   53 1
  56   29   54 1
  57   29   55 1
  58   30   31 2
  59   30   32 2

#	End of record

