#	Name: ASD02408401
#	Creating user name:	WinNT
#	Creation time:	15. 06. 2019 20:21

#	Modifying user name:	WinNT
#	Modification time:	15. 06. 2019 20:21

#	Program:	/corina/corina34_cracker 3.40 0067  02.08.2006

@<TRIPOS>MOLECULE
ASD02408401
  24   25    0    0    0
SMALL
NO_CHARGES


@<TRIPOS>ATOM
   1 C1            -0.0171     1.4111     0.0098 C.2     
   2 C2             0.0021    -0.0041     0.0020 C.2     
   3 C3             1.3093     1.8361    -0.0006 C.2     
   4 N4             2.0815     0.7259    -0.0139 N.pl3   
   5 N5             1.2448    -0.3954    -0.0119 N.2     
   6 C6             3.4785     0.7026    -0.0278 C.ar    
   7 C7             4.1533    -0.4051     0.4699 C.ar    
   8 C8             5.5375    -0.4155     0.4499 C.ar    
   9 C9             6.2003     0.6874    -0.0697 C.ar    
  10 C10            5.4648     1.7548    -0.5477 C.ar    
  11 N11            4.1464     1.7338    -0.5200 N.ar    
  12 N12            1.7517     3.1425     0.0018 N.pl3   
  13 C13           -1.2085     2.2681     0.0203 C.2     
  14 N14           -2.4371     1.7141     0.0239 N.am    
  15 O15           -1.0870     3.4789     0.0259 O.2     
  16 H16           -0.8644    -0.6488     0.0074 H       
  17 H17            3.6054    -1.2466     0.8675 H       
  18 H18            6.0890    -1.2626     0.8302 H       
  19 H19            7.2796     0.7114    -0.0997 H       
  20 H20            5.9759     2.6156    -0.9527 H       
  21 H21            1.1116     3.8713     0.0119 H       
  22 H22            2.7029     3.3324    -0.0066 H       
  23 H23           -2.5340     0.7490     0.0195 H       
  24 H24           -3.2245     2.2806     0.0308 H       
@<TRIPOS>BOND
   1    1    2 1
   2    1    3 2
   3    1   13 1
   4    2    5 2
   5    2   16 1
   6    3    4 1
   7    3   12 1
   8    4    5 1
   9    4    6 1
  10    6    7 ar
  11    6   11 ar
  12    7    8 ar
  13    7   17 1
  14    8    9 ar
  15    8   18 1
  16    9   10 ar
  17    9   19 1
  18   10   11 ar
  19   10   20 1
  20   12   21 1
  21   12   22 1
  22   13   14 am
  23   13   15 2
  24   14   23 1
  25   14   24 1

#	End of record

