#	Name: ASD04880065
#	Creating user name:	WinNT
#	Creation time:	15. 06. 2019 20:52

#	Modifying user name:	WinNT
#	Modification time:	15. 06. 2019 20:52

#	Program:	/corina/corina34_cracker 3.40 0067  02.08.2006

@<TRIPOS>MOLECULE
ASD04880065
  49   51    0    0    0
SMALL
NO_CHARGES


@<TRIPOS>ATOM
   1 C1            -0.0144     1.2121     0.0087 C.2     
   2 O2             0.0263    -0.0033     0.0299 O.2     
   3 N3             1.1287     1.9238    -0.0469 N.am    
   4 N4             1.2161     3.3074    -0.1874 N.2     
   5 C5             2.4227     3.7586    -0.2146 C.2     
   6 C6             3.3951     2.6084    -0.0812 C.3     
   7 C7             2.4884     1.3674     0.0372 C.3     
   8 C8             2.7974     5.1774    -0.3546 C.ar    
   9 C9             1.8060     6.1557    -0.4705 C.ar    
  10 C10            2.1628     7.4843    -0.6016 C.ar    
  11 C11            3.5085     7.8461    -0.6179 C.ar    
  12 C12            4.4927     6.8756    -0.5034 C.ar    
  13 C13            4.1442     5.5481    -0.3660 C.ar    
  14 O14            3.8575     9.1536    -0.7470 O.3     
  15 C15            5.2544     9.4544    -0.7562 C.3     
  16 O16            1.2007     8.4387    -0.7151 O.3     
  17 C17           -0.1579     7.9964    -0.6912 C.3     
  18 C18           -1.3151     1.9070     0.0378 C.ar    
  19 C19           -2.5070     1.1745    -0.0465 C.ar    
  20 C20           -3.7253     1.8351    -0.0180 C.ar    
  21 C21           -3.7658     3.2110     0.0931 C.ar    
  22 C22           -2.5882     3.9432     0.1766 C.ar    
  23 C23           -1.3653     3.2981     0.1553 C.ar    
  24 O24           -2.6384     5.2978     0.2853 O.3     
  25 C25           -3.9344     5.8993     0.3074 C.3     
  26 O26           -2.4684    -0.1779    -0.1561 O.3     
  27 C27           -3.7225    -0.8582    -0.2374 C.3     
  28 H28            4.0294     2.5396    -0.9650 H       
  29 H29            4.0012     2.7224     0.8175 H       
  30 H30            2.6404     0.8692     0.9948 H       
  31 H31            2.6730     0.6793    -0.7878 H       
  32 H32            0.7634     5.8740    -0.4581 H       
  33 H33            5.5343     7.1605    -0.5172 H       
  34 H34            4.9125     4.7950    -0.2717 H       
  35 H35            5.7038     9.1223     0.1797 H       
  36 H36            5.7312     8.9403    -1.5907 H       
  37 H37            5.3938    10.5300    -0.8646 H       
  38 H38           -0.3583     7.4893     0.2526 H       
  39 H39           -0.8215     8.8554    -0.7901 H       
  40 H40           -0.3302     7.3071    -1.5177 H       
  41 H41           -4.6449     1.2726    -0.0831 H       
  42 H42           -4.7179     3.7204     0.1148 H       
  43 H43           -0.4510     3.8688     0.2248 H       
  44 H44           -4.4619     5.6598    -0.6159 H       
  45 H45           -4.4983     5.5162     1.1579 H       
  46 H46           -3.8316     6.9807     0.3971 H       
  47 H47           -3.5491    -1.9310    -0.3215 H       
  48 H48           -4.3057    -0.6536     0.6605 H       
  49 H49           -4.2693    -0.5088    -1.1132 H       
@<TRIPOS>BOND
   1    1    2 2
   2    1    3 am
   3    1   18 1
   4    3    4 1
   5    3    7 1
   6    4    5 2
   7    5    6 1
   8    5    8 1
   9    6    7 1
  10    6   28 1
  11    6   29 1
  12    7   30 1
  13    7   31 1
  14    8    9 ar
  15    8   13 ar
  16    9   10 ar
  17    9   32 1
  18   10   11 ar
  19   10   16 1
  20   11   12 ar
  21   11   14 1
  22   12   13 ar
  23   12   33 1
  24   13   34 1
  25   14   15 1
  26   15   35 1
  27   15   36 1
  28   15   37 1
  29   16   17 1
  30   17   38 1
  31   17   39 1
  32   17   40 1
  33   18   19 ar
  34   18   23 ar
  35   19   20 ar
  36   19   26 1
  37   20   21 ar
  38   20   41 1
  39   21   22 ar
  40   21   42 1
  41   22   23 ar
  42   22   24 1
  43   23   43 1
  44   24   25 1
  45   25   44 1
  46   25   45 1
  47   25   46 1
  48   26   27 1
  49   27   47 1
  50   27   48 1
  51   27   49 1

#	End of record

