#	Name: ASD01912246
#	Creating user name:	WinNT
#	Creation time:	15. 06. 2019 19:59

#	Modifying user name:	WinNT
#	Modification time:	15. 06. 2019 19:59

#	Program:	/corina/corina34_cracker 3.40 0067  02.08.2006

@<TRIPOS>MOLECULE
ASD01912246
  41   43    0    0    0
SMALL
NO_CHARGES


@<TRIPOS>ATOM
   1 C1            -0.3046     2.1103    -1.8231 C.ar    
   2 C2            -0.3632     0.7191    -1.7094 C.ar    
   3 C3             0.7983     0.0129    -1.4709 C.ar    
   4 C4             2.0002     0.7272    -1.3514 C.ar    
   5 C5             1.9781     2.1224    -1.4777 C.ar    
   6 N6             0.8511     2.7566    -1.7047 N.ar    
   7 C7            -1.5046     2.8495    -2.0765 C.1     
   8 N8            -2.4566     3.4359    -2.2775 N.1     
   9 C9             3.2318     0.0400    -1.1034 C.1     
  10 C10            4.2415    -0.5234    -0.9002 C.1     
  11 C11            5.4731    -1.2107    -0.6522 C.2     
  12 N12            9.0054     0.7658    -1.2147 N.3     
  13 C13            8.9569    -0.7001    -1.2845 C.3     
  14 C14            7.9257    -1.2239    -0.2783 C.3     
  15 C15            6.6092    -0.5229    -0.5404 C.2     
  16 C16            6.6268     0.9857    -0.6717 C.3     
  17 C17            7.7405     1.3690    -1.6529 C.3     
  18 C18           10.0756     1.2642    -1.9485 C.ar    
  19 C19           10.7677     2.3797    -1.4874 C.ar    
  20 C20           11.8307     2.8648    -2.2273 C.ar    
  21 C21           12.1674     2.2158    -3.4080 C.ar    
  22 C22           11.4373     1.1141    -3.8059 C.ar    
  23 N23           10.4306     0.6701    -3.0772 N.ar    
  24 N24           10.4049     2.9828    -0.3295 N.pl3   
  25 O25           10.9470     4.0181     0.0137 O.2     
  26 O26            9.5368     2.4896     0.3680 O.2     
  27 H27           -1.3066     0.2023    -1.8066 H       
  28 H28            0.7825    -1.0630    -1.3781 H       
  29 H29            2.8974     2.6819    -1.3875 H       
  30 H30            5.4814    -2.2863    -0.5558 H       
  31 H31            8.6715    -1.0069    -2.2907 H       
  32 H32            9.9388    -1.1081    -1.0445 H       
  33 H33            7.8013    -2.2992    -0.4056 H       
  34 H34            8.2606    -1.0096     0.7366 H       
  35 H35            5.6661     1.3327    -1.0522 H       
  36 H36            6.8223     1.4371     0.3010 H       
  37 H37            7.8448     2.4537    -1.6787 H       
  38 H38            7.4893     1.0039    -2.6487 H       
  39 H39           12.3863     3.7291    -1.8945 H       
  40 H40           12.9920     2.5697    -4.0090 H       
  41 H41           11.6955     0.6067    -4.7236 H       
@<TRIPOS>BOND
   1    1    2 ar
   2    1    6 ar
   3    1    7 1
   4    2    3 ar
   5    2   27 1
   6    3    4 ar
   7    3   28 1
   8    4    5 ar
   9    4    9 1
  10    5    6 ar
  11    5   29 1
  12    7    8 3
  13    9   10 3
  14   10   11 1
  15   11   15 2
  16   11   30 1
  17   12   13 1
  18   12   17 1
  19   12   18 1
  20   13   14 1
  21   13   31 1
  22   13   32 1
  23   14   15 1
  24   14   33 1
  25   14   34 1
  26   15   16 1
  27   16   17 1
  28   16   35 1
  29   16   36 1
  30   17   37 1
  31   17   38 1
  32   18   19 ar
  33   18   23 ar
  34   19   20 ar
  35   19   24 1
  36   20   21 ar
  37   20   39 1
  38   21   22 ar
  39   21   40 1
  40   22   23 ar
  41   22   41 1
  42   24   25 2
  43   24   26 2

#	End of record

