#	Name: ASD01410994
#	Creating user name:	WinNT
#	Creation time:	15. 06. 2019 19:19

#	Modifying user name:	WinNT
#	Modification time:	15. 06. 2019 19:19

#	Program:	/corina/corina34_cracker 3.40 0067  02.08.2006

@<TRIPOS>MOLECULE
ASD01410994
  85   88    0    0    0
SMALL
NO_CHARGES


@<TRIPOS>ATOM
   1 C1            -0.5828     2.3349    -0.5254 C.ar    
   2 C2            -0.4670     1.0043    -0.9095 C.ar    
   3 C3            -1.5347     0.1415    -0.7668 C.ar    
   4 C4            -2.7336     0.5980    -0.2371 C.ar    
   5 C5            -2.8569     1.9403     0.1531 C.ar    
   6 C6            -1.7688     2.8044     0.0090 C.ar    
   7 O7             0.4752     3.1765    -0.6703 O.3     
   8 C8             0.8445     3.5247    -1.9285 C.ar    
   9 N9            -3.8119    -0.2739    -0.0936 N.am    
  10 C10           -4.0365    -0.8788     1.0896 C.2     
  11 C11           -3.1952    -0.5247     2.2887 C.3     
  12 O12           -4.9158    -1.7082     1.1894 O.2     
  13 C13           -3.9698    -0.8464     3.5682 C.3     
  14 C14           -1.0444    -0.9769     3.4770 C.3     
  15 C15           -1.8191    -1.2987     4.7566 C.3     
  16 C16           -3.1156    -0.4869     4.7856 C.3     
  17 C17           -0.9649    -0.9392     5.9739 C.3     
  18 N18            0.1127     3.1321    -2.9584 N.ar    
  19 C19           -4.7008    -0.5326    -1.2290 C.3     
  20 C20           -4.5884     0.6136    -2.2362 C.3     
  21 C21            1.9840     4.2948    -2.1227 C.ar    
  22 C22            2.3495     4.6437    -3.4113 C.ar    
  23 C23            1.5582     4.2075    -4.4648 C.ar    
  24 C24            0.4356     3.4488    -4.1977 C.ar    
  25 C25           -4.2979    -1.8455    -1.9034 C.3     
  26 O26           -4.4915    -2.9285    -0.9914 O.3     
  27 C27           -4.1431    -4.2073    -1.5254 C.3     
  28 C28           -1.8986    -1.3365     2.2596 C.3     
  29 C29            1.9168     4.5632    -5.8847 C.3     
  30 C30            2.8188     3.4999    -6.4564 C.2     
  31 N31            3.9484     3.1346    -5.8767 N.2     
  32 C32            4.6372     2.2079    -6.4672 C.2     
  33 S33            3.8424     1.7044    -7.8947 S.3     
  34 C34            2.5385     2.8478    -7.5850 C.2     
  35 O35           -5.0917     1.8151    -1.6487 O.3     
  36 C36           -5.0322     2.9530    -2.5110 C.3     
  37 N37            5.8422     1.6997    -6.0079 N.pl3   
  38 C38            6.5302     0.6501    -6.7637 C.3     
  39 C39            7.8267     0.2707    -6.0452 C.3     
  40 C40           -4.1262     2.4346     0.7162 C.2     
  41 O41           -5.0964     1.7044     0.7606 O.2     
  42 O42           -4.2106     3.6964     1.1817 O.3     
  43 C43            2.8110     4.7450    -0.9461 C.3     
  44 F44            3.8966     5.5010    -1.4011 F       
  45 F45            2.0231     5.5263    -0.0939 F       
  46 F46            3.2810     3.6257    -0.2508 F       
  47 H47            0.4635     0.6435    -1.3223 H       
  48 H48           -1.4373    -0.8910    -1.0682 H       
  49 H49           -1.8559     3.8387     0.3073 H       
  50 H50           -2.9584     0.5391     2.2650 H       
  51 H51           -4.8935    -0.2681     3.5889 H       
  52 H52           -4.2066    -1.9101     3.5919 H       
  53 H53           -0.8077     0.0868     3.4534 H       
  54 H54           -0.1207    -1.5553     3.4563 H       
  55 H55           -2.0558    -2.3624     4.7802 H       
  56 H56           -2.8789     0.5768     4.7620 H       
  57 H57           -3.6675    -0.7161     5.6972 H       
  58 H58           -0.7281     0.1246     5.9503 H       
  59 H59           -1.5167    -1.1684     6.8855 H       
  60 H60           -0.0412    -1.5175     5.9532 H       
  61 H61           -5.7294    -0.6063    -0.8757 H       
  62 H62           -3.5432     0.7540    -2.5117 H       
  63 H63           -5.1697     0.3733    -3.1264 H       
  64 H64            3.2301     5.2419    -3.5928 H       
  65 H65           -0.1833     3.1066    -5.0139 H       
  66 H66           -4.9128    -2.0024    -2.7896 H       
  67 H67           -3.2482    -1.7978    -2.1933 H       
  68 H68           -4.7548    -4.4132    -2.4038 H       
  69 H69           -3.0902    -4.2087    -1.8074 H       
  70 H70           -4.3185    -4.9755    -0.7723 H       
  71 H71           -2.1354    -2.4002     2.2833 H       
  72 H72           -1.3468    -1.1072     1.3481 H       
  73 H73            1.0082     4.6292    -6.4832 H       
  74 H74            2.4323     5.5234    -5.8996 H       
  75 H75            1.6665     2.9980    -8.2043 H       
  76 H76           -5.6226     2.7613    -3.4069 H       
  77 H77           -5.4323     3.8238    -1.9916 H       
  78 H78           -3.9961     3.1420    -2.7922 H       
  79 H79            6.2299     2.0389    -5.1860 H       
  80 H80            5.8860    -0.2260    -6.8378 H       
  81 H81            6.7628     1.0157    -7.7639 H       
  82 H82            8.4708     1.1468    -5.9712 H       
  83 H83            7.5941    -0.0949    -5.0450 H       
  84 H84            8.3386    -0.5102    -6.6076 H       
  85 H85           -5.0637     3.9753     1.5416 H       
@<TRIPOS>BOND
   1    1    2 ar
   2    1    7 1
   3    1    6 ar
   4    2    3 ar
   5    2   47 1
   6    3    4 ar
   7    3   48 1
   8    4    5 ar
   9    4    9 1
  10    5    6 ar
  11    5   40 1
  12    6   49 1
  13    7    8 1
  14    8   21 ar
  15    8   18 ar
  16    9   10 am
  17    9   19 1
  18   10   12 2
  19   10   11 1
  20   11   13 1
  21   11   28 1
  22   11   50 1
  23   13   16 1
  24   13   51 1
  25   13   52 1
  26   14   15 1
  27   14   28 1
  28   14   53 1
  29   14   54 1
  30   15   16 1
  31   15   17 1
  32   15   55 1
  33   16   56 1
  34   16   57 1
  35   17   58 1
  36   17   59 1
  37   17   60 1
  38   18   24 ar
  39   19   20 1
  40   19   25 1
  41   19   61 1
  42   20   35 1
  43   20   62 1
  44   20   63 1
  45   21   22 ar
  46   21   43 1
  47   22   23 ar
  48   22   64 1
  49   23   24 ar
  50   23   29 1
  51   24   65 1
  52   25   26 1
  53   25   66 1
  54   25   67 1
  55   26   27 1
  56   27   68 1
  57   27   69 1
  58   27   70 1
  59   28   71 1
  60   28   72 1
  61   29   30 1
  62   29   73 1
  63   29   74 1
  64   30   31 1
  65   30   34 2
  66   31   32 2
  67   32   33 1
  68   32   37 1
  69   33   34 1
  70   34   75 1
  71   35   36 1
  72   36   76 1
  73   36   77 1
  74   36   78 1
  75   37   38 1
  76   37   79 1
  77   38   39 1
  78   38   80 1
  79   38   81 1
  80   39   82 1
  81   39   83 1
  82   39   84 1
  83   40   41 2
  84   40   42 1
  85   42   85 1
  86   43   44 1
  87   43   45 1
  88   43   46 1

#	End of record

