#	Name: ASD01150711
#	Creating user name:	WinNT
#	Creation time:	15. 06. 2019 19:04

#	Modifying user name:	WinNT
#	Modification time:	15. 06. 2019 19:04

#	Program:	/corina/corina34_cracker 3.40 0067  02.08.2006

@<TRIPOS>MOLECULE
ASD01150711
  37   40    0    0    0
SMALL
NO_CHARGES


@<TRIPOS>ATOM
   1 C1             0.0103     1.5250     0.4554 C.2     
   2 C2            -0.8917     1.1689    -0.6981 C.3     
   3 S3             5.0276     4.6064    -0.5338 S.3     
   4 C4             3.6376     3.5689    -0.2444 C.ar    
   5 N5             3.5870     2.2342    -0.1260 N.ar    
   6 C6             2.4733     1.5820     0.0911 C.ar    
   7 C7             1.2542     2.2610     0.2128 C.ar    
   8 C8             1.2470     3.6659     0.0970 C.ar    
   9 C9             2.4764     4.3281    -0.1378 C.ar    
  10 C10            2.7197     5.7684    -0.2932 C.ar    
  11 C11            1.7998     6.8368    -0.2481 C.ar    
  12 C12            2.2556     8.1213    -0.4219 C.ar    
  13 N13            3.5370     8.3674    -0.6301 N.ar    
  14 C14            4.4320     7.4064    -0.6806 C.ar    
  15 C15            4.0589     6.0691    -0.5139 C.ar    
  16 C16           -0.0143     4.4297     0.2174 C.ar    
  17 C17           -0.7107     4.4464     1.4267 C.ar    
  18 C18           -1.8863     5.1606     1.5323 C.ar    
  19 C19           -2.3751     5.8593     0.4427 C.ar    
  20 C20           -1.6895     5.8468    -0.7590 C.ar    
  21 C21           -0.5097     5.1412    -0.8762 C.ar    
  22 C22            2.5029     0.0801     0.2111 C.3     
  23 O23           -0.2958     1.2068     1.5855 O.2     
  24 H24           -0.3230     0.6183    -1.4475 H       
  25 H25           -1.7139     0.5500    -0.3388 H       
  26 H26           -1.2906     2.0808    -1.1424 H       
  27 H27            0.7500     6.6474    -0.0793 H       
  28 H28            1.5553     8.9428    -0.3883 H       
  29 H29            5.4693     7.6527    -0.8531 H       
  30 H30           -0.3304     3.9012     2.2778 H       
  31 H31           -2.4265     5.1741     2.4674 H       
  32 H32           -3.2961     6.4165     0.5304 H       
  33 H33           -2.0765     6.3939    -1.6060 H       
  34 H34            0.0269     5.1359    -1.8134 H       
  35 H35            2.5641    -0.1992     1.2630 H       
  36 H36            1.5943    -0.3371    -0.2232 H       
  37 H37            3.3715    -0.3098    -0.3195 H       
@<TRIPOS>BOND
   1    1    2 1
   2    1    7 1
   3    1   23 2
   4    2   24 1
   5    2   25 1
   6    2   26 1
   7    3    4 1
   8    3   15 1
   9    4    5 ar
  10    4    9 ar
  11    5    6 ar
  12    6    7 ar
  13    6   22 1
  14    7    8 ar
  15    8    9 ar
  16    8   16 1
  17    9   10 1
  18   10   11 ar
  19   10   15 ar
  20   11   12 ar
  21   11   27 1
  22   12   13 ar
  23   12   28 1
  24   13   14 ar
  25   14   15 ar
  26   14   29 1
  27   16   17 ar
  28   16   21 ar
  29   17   18 ar
  30   17   30 1
  31   18   19 ar
  32   18   31 1
  33   19   20 ar
  34   19   32 1
  35   20   21 ar
  36   20   33 1
  37   21   34 1
  38   22   35 1
  39   22   36 1
  40   22   37 1

#	End of record

