#	Name: ASD01208048
#	Creating user name:	WinNT
#	Creation time:	15. 06. 2019 19:09

#	Modifying user name:	WinNT
#	Modification time:	15. 06. 2019 19:09

#	Program:	/corina/corina34_cracker 3.40 0067  02.08.2006

@<TRIPOS>MOLECULE
ASD01208048
  66   70    0    0    0
SMALL
NO_CHARGES


@<TRIPOS>ATOM
   1 C1             0.3125     1.2858    -0.2815 C.ar    
   2 C2             0.2201    -0.0981    -0.2537 C.ar    
   3 C3            -1.0166    -0.7124    -0.1124 C.ar    
   4 C4            -2.1641     0.0546     0.0012 C.ar    
   5 C5            -2.0755     1.4474    -0.0263 C.ar    
   6 C6            -0.8294     2.0608    -0.1625 C.ar    
   7 C7            -3.2970     2.2700     0.0944 C.2     
   8 C8            -3.3455     3.6343     0.0815 C.2     
   9 N9            -4.5744     1.7929     0.2324 N.pl3   
  10 C10           -5.4327     2.8623     0.3130 C.2     
  11 C11           -4.6830     4.0146     0.2207 C.2     
  12 O12            1.5258     1.8822    -0.4202 O.3     
  13 C13            1.5364     3.3024    -0.5777 C.3     
  14 C14            2.8090     3.7243    -1.3148 C.3     
  15 O15            3.9490     3.4250    -0.5067 O.3     
  16 C16            1.5000     3.9686     0.7992 C.3     
  17 O17           -1.1015    -2.0684    -0.0857 O.3     
  18 C18           -1.6211    -2.6958    -1.1715 C.ar    
  19 C19           -1.8498    -4.0688    -1.1369 C.ar    
  20 C20           -1.9286    -1.9656    -2.3126 C.ar    
  21 C21           -2.4561    -2.5983    -3.4168 C.ar    
  22 C22           -2.6822    -3.9765    -3.3893 C.ar    
  23 C23           -2.3774    -4.7085    -2.2382 C.ar    
  24 C24           -3.2477    -4.6571    -4.5707 C.2     
  25 N25           -4.1159    -4.0077    -5.3712 N.am    
  26 O26           -2.9302    -5.8037    -4.8216 O.2     
  27 C27           -6.8936     2.7901     0.4659 C.2     
  28 C28            5.1961     3.7818    -1.1062 C.3     
  29 N29           -7.6990     3.8144     0.5413 N.2     
  30 C30           -8.9794     3.5564     0.6766 C.2     
  31 C31           -9.3123     2.2622     0.7218 C.2     
  32 S32           -7.8390     1.3071     0.5692 S.3     
  33 F33           -1.5541    -4.7745    -0.0236 F       
  34 C34           -4.6007    -4.6207    -6.6181 C.3     
  35 C35           -6.1308    -4.5303    -6.6382 C.3     
  36 O36           -6.5256    -3.1770    -6.4007 O.3     
  37 C37           -6.1373    -2.6699    -5.1217 C.3     
  38 C38           -4.6119    -2.6672    -5.0211 C.3     
  39 H39            1.1129    -0.6992    -0.3427 H       
  40 H40           -3.1260    -0.4241     0.1104 H       
  41 H41           -0.7564     3.1381    -0.1842 H       
  42 H42           -2.5012     4.3005    -0.0180 H       
  43 H43           -4.8295     0.8576     0.2671 H       
  44 H44           -5.0599     5.0263     0.2504 H       
  45 H45            0.6638     3.6106    -1.1536 H       
  46 H46            2.8795     3.1819    -2.2577 H       
  47 H47            2.7756     4.7955    -1.5135 H       
  48 H48            2.3726     3.6603     1.3751 H       
  49 H49            1.5081     5.0519     0.6790 H       
  50 H50            0.5933     3.6680     1.3244 H       
  51 H51           -1.7542    -0.9000    -2.3339 H       
  52 H52           -2.6950    -2.0291    -4.3030 H       
  53 H53           -2.5508    -5.7742    -2.2131 H       
  54 H54            6.0113     3.5227    -0.4305 H       
  55 H55            5.3162     3.2406    -2.0447 H       
  56 H56            5.2123     4.8542    -1.3005 H       
  57 H57           -9.7180     4.3411     0.7474 H       
  58 H58          -10.3127     1.8696     0.8290 H       
  59 H59           -4.1900    -4.0853    -7.4741 H       
  60 H60           -4.2941    -5.6659    -6.6566 H       
  61 H61           -6.5018    -4.8525    -7.6112 H       
  62 H62           -6.5436    -5.1719    -5.8597 H       
  63 H63           -6.5130    -1.6535    -5.0037 H       
  64 H64           -6.5502    -3.3047    -4.3377 H       
  65 H65           -4.3115    -2.4172    -4.0036 H       
  66 H66           -4.1994    -1.9361    -5.7163 H       
@<TRIPOS>BOND
   1    1    2 ar
   2    1   12 1
   3    1    6 ar
   4    2    3 ar
   5    2   39 1
   6    3    4 ar
   7    3   17 1
   8    4    5 ar
   9    4   40 1
  10    5    6 ar
  11    5    7 1
  12    6   41 1
  13    7    8 2
  14    7    9 1
  15    8   11 1
  16    8   42 1
  17    9   10 1
  18    9   43 1
  19   10   11 2
  20   10   27 1
  21   11   44 1
  22   12   13 1
  23   13   14 1
  24   13   16 1
  25   13   45 1
  26   14   15 1
  27   14   46 1
  28   14   47 1
  29   15   28 1
  30   16   48 1
  31   16   49 1
  32   16   50 1
  33   17   18 1
  34   18   19 ar
  35   18   20 ar
  36   19   33 1
  37   19   23 ar
  38   20   21 ar
  39   20   51 1
  40   21   22 ar
  41   21   52 1
  42   22   23 ar
  43   22   24 1
  44   23   53 1
  45   24   25 am
  46   24   26 2
  47   25   34 1
  48   25   38 1
  49   27   29 2
  50   27   32 1
  51   28   54 1
  52   28   55 1
  53   28   56 1
  54   29   30 1
  55   30   31 2
  56   30   57 1
  57   31   32 1
  58   31   58 1
  59   34   35 1
  60   34   59 1
  61   34   60 1
  62   35   36 1
  63   35   61 1
  64   35   62 1
  65   36   37 1
  66   37   38 1
  67   37   63 1
  68   37   64 1
  69   38   65 1
  70   38   66 1

#	End of record

