#	Name: ASD01010012
#	Creating user name:	WinNT
#	Creation time:	15. 06. 2019 18:56

#	Modifying user name:	WinNT
#	Modification time:	15. 06. 2019 18:56

#	Program:	/corina/corina34_cracker 3.40 0067  02.08.2006

@<TRIPOS>MOLECULE
ASD01010012
  17   17    0    0    0
SMALL
NO_CHARGES


@<TRIPOS>ATOM
   1 C1            -0.0184     1.5028     0.0103 C.3     
   2 C2             0.0021    -0.0041     0.0020 C.ar    
   3 C3            -1.1896    -0.7147     0.0096 C.ar    
   4 C4            -1.1675    -2.1016     0.0020 C.ar    
   5 C5             0.0406    -2.7720    -0.0131 C.ar    
   6 C6             1.2266    -2.0616    -0.0202 C.ar    
   7 C7             1.2071    -0.6789    -0.0188 C.ar    
   8 O8            -2.3766    -0.0530     0.0249 O.3     
   9 O9             1.3223     1.9974     0.0002 O.3     
  10 H10           -0.5455     1.8639    -0.8728 H       
  11 H11           -0.5286     1.8543     0.9071 H       
  12 H12           -2.0937    -2.6570     0.0082 H       
  13 H13            0.0584    -3.8518    -0.0191 H       
  14 H14            2.1698    -2.5875    -0.0312 H       
  15 H15            2.1349    -0.1262    -0.0292 H       
  16 H16           -2.7287     0.1435    -0.8540 H       
  17 H17            1.3855     2.9623     0.0047 H       
@<TRIPOS>BOND
   1    1    2 1
   2    1    9 1
   3    1   10 1
   4    1   11 1
   5    2    3 ar
   6    2    7 ar
   7    3    4 ar
   8    3    8 1
   9    4    5 ar
  10    4   12 1
  11    5    6 ar
  12    5   13 1
  13    6    7 ar
  14    6   14 1
  15    7   15 1
  16    8   16 1
  17    9   17 1

#	End of record

