#	Name: ASD01811336
#	Creating user name:	WinNT
#	Creation time:	15. 06. 2019 19:26

#	Modifying user name:	WinNT
#	Modification time:	15. 06. 2019 19:26

#	Program:	/corina/corina34_cracker 3.40 0067  02.08.2006

@<TRIPOS>MOLECULE
ASD01811336
  57   60    0    0    0
SMALL
NO_CHARGES


@<TRIPOS>ATOM
   1 N1             0.2489     1.8186     1.4550 N.am    
   2 C2             0.3713     1.1521     2.6200 C.2     
   3 O3             1.4737     0.8507     3.0350 O.2     
   4 N4            -0.7282     0.8196     3.3249 N.am    
   5 O5            -1.1513     0.5969     6.8739 O.3     
   6 C6            -0.3810     1.0749     5.7649 C.3     
   7 C7            -0.5952     0.0951     4.5913 C.3     
   8 C8            -1.9325    -0.5939     4.9770 C.3     
   9 C9            -1.8101    -0.6298     6.5212 C.3     
  10 C10            1.3925     2.2501     0.7716 C.ar    
  11 C11            1.3265     3.3615    -0.0626 C.ar    
  12 C12            2.4538     3.7913    -0.7396 C.ar    
  13 C13            3.6505     3.1208    -0.5914 C.ar    
  14 C14            3.7266     2.0048     0.2439 C.ar    
  15 C15            2.5907     1.5739     0.9307 C.ar    
  16 C16            5.0073     1.2847     0.4039 C.2     
  17 O17            5.0104     0.0819     0.5799 O.2     
  18 N18            6.1718     1.9615     0.3547 N.am    
  19 C19            6.1820     3.4278     0.2611 C.3     
  20 C20            7.0515     3.9879     1.3911 C.3     
  21 C21            8.4386     3.3445     1.3289 C.3     
  22 C22            8.3103     1.8318     1.5227 C.3     
  23 C23            7.4551     1.2476     0.3998 C.3     
  24 F24            9.0188     3.6072     0.0833 F       
  25 C25            9.3076     3.9182     2.4183 C.ar    
  26 C26           10.6778     3.7311     2.3764 C.ar    
  27 C27           11.4792     4.2536     3.3703 C.ar    
  28 C28           10.9045     4.9731     4.4200 C.ar    
  29 C29            9.5210     5.1585     4.4557 C.ar    
  30 C30            8.7320     4.6346     3.4527 C.ar    
  31 C31           11.7301     5.5179     5.4554 C.1     
  32 N32           12.3851     5.9501     6.2768 N.1     
  33 Cl33          -0.1750     4.2111    -0.2551 Cl      
  34 H34           -0.6313     1.9959     1.0878 H       
  35 H35           -1.6077     1.0600     2.9938 H       
  36 H36           -0.7199     2.0713     5.4814 H       
  37 H37            0.6750     1.1048     6.0337 H       
  38 H38            0.2171    -0.6298     4.5380 H       
  39 H39           -2.7876     0.0054     4.6646 H       
  40 H40           -1.9890    -1.6010     4.5639 H       
  41 H41           -1.2102    -1.4847     6.8334 H       
  42 H42           -2.7987    -0.6733     6.9782 H       
  43 H43            2.3968     4.6543    -1.3865 H       
  44 H44            4.5284     3.4591    -1.1218 H       
  45 H45            2.6449     0.7134     1.5811 H       
  46 H46            6.5948     3.7296    -0.7015 H       
  47 H47            5.1650     3.8073     0.3601 H       
  48 H48            7.1459     5.0678     1.2764 H       
  49 H49            6.5887     3.7627     2.3520 H       
  50 H50            9.3007     1.3770     1.5016 H       
  51 H51            7.8357     1.6269     2.4823 H       
  52 H52            7.2779     0.1891     0.5902 H       
  53 H53            7.9738     1.3680    -0.5513 H       
  54 H54           11.1210     3.1745     1.5640 H       
  55 H55           12.5486     4.1062     3.3369 H       
  56 H56            9.0700     5.7139     5.2647 H       
  57 H57            7.6622     4.7807     3.4769 H       
@<TRIPOS>BOND
   1    1    2 am
   2    1   10 1
   3    1   34 1
   4    2    3 2
   5    2    4 am
   6    4    7 1
   7    4   35 1
   8    5    6 1
   9    5    9 1
  10    6    7 1
  11    6   36 1
  12    6   37 1
  13    7    8 1
  14    7   38 1
  15    8    9 1
  16    8   39 1
  17    8   40 1
  18    9   41 1
  19    9   42 1
  20   10   11 ar
  21   10   15 ar
  22   11   12 ar
  23   11   33 1
  24   12   13 ar
  25   12   43 1
  26   13   14 ar
  27   13   44 1
  28   14   15 ar
  29   14   16 1
  30   15   45 1
  31   16   17 2
  32   16   18 am
  33   18   19 1
  34   18   23 1
  35   19   20 1
  36   19   46 1
  37   19   47 1
  38   20   21 1
  39   20   48 1
  40   20   49 1
  41   21   22 1
  42   21   24 1
  43   21   25 1
  44   22   23 1
  45   22   50 1
  46   22   51 1
  47   23   52 1
  48   23   53 1
  49   25   26 ar
  50   25   30 ar
  51   26   27 ar
  52   26   54 1
  53   27   28 ar
  54   27   55 1
  55   28   29 ar
  56   28   31 1
  57   29   30 ar
  58   29   56 1
  59   30   57 1
  60   31   32 3

#	End of record

