#	Name: ASD01320016
#	Creating user name:	WinNT
#	Creation time:	15. 06. 2019 19:15

#	Modifying user name:	WinNT
#	Modification time:	15. 06. 2019 19:15

#	Program:	/corina/corina34_cracker 3.40 0067  02.08.2006

@<TRIPOS>MOLECULE
ASD01320016
  45   47    0    0    0
SMALL
NO_CHARGES


@<TRIPOS>ATOM
   1 C1             0.8490     1.3489     0.5142 C.ar    
   2 C2             0.6093    -0.0118     0.4692 C.ar    
   3 C3             1.6400    -0.8881     0.1696 C.ar    
   4 C4             2.9178    -0.3952    -0.0862 C.ar    
   5 C5             3.1527     0.9714    -0.0396 C.ar    
   6 C6             2.1186     1.8405     0.2603 C.ar    
   7 O7             1.4048    -2.2267     0.1256 O.3     
   8 C8             0.1373    -2.6584     0.3449 C.ar    
   9 C9            -0.7997    -2.6018    -0.6795 C.ar    
  10 C10           -2.0985    -3.0440    -0.4566 C.ar    
  11 C11           -2.4557    -3.5475     0.8101 C.ar    
  12 C12           -1.5038    -3.5976     1.8274 C.ar    
  13 C13           -0.2168    -3.1605     1.5918 C.ar    
  14 N14            3.9625    -1.2768    -0.3889 N.am    
  15 C15            5.2318    -0.9510    -0.0742 C.2     
  16 C16            6.3194    -1.9304    -0.2818 C.ar    
  17 O17            5.4824     0.1483     0.3804 O.2     
  18 C18            7.6350    -1.5962     0.0430 C.ar    
  19 C19            8.6454    -2.5150    -0.1533 C.ar    
  20 C20            8.3569    -3.7650    -0.6709 C.ar    
  21 C21            7.0546    -4.1028    -0.9951 C.ar    
  22 C22            6.0343    -3.1957    -0.7984 C.ar    
  23 F23            2.3478     3.1712     0.3055 F       
  24 N24           10.0412    -2.1622     0.1901 N.pl3   
  25 O25           10.2968    -1.0618     0.6455 O.2     
  26 O26           10.9342    -2.9722     0.0173 O.2     
  27 C27           -3.8317    -4.0195     1.0588 C.2     
  28 O28           -4.7746    -3.2854     0.8396 O.2     
  29 O29           -4.0422    -5.2645     1.5290 O.3     
  30 C30           -3.1001    -2.9859    -1.5428 C.2     
  31 O31           -4.1993    -3.4769    -1.3821 O.2     
  32 O32           -2.7935    -2.3884    -2.7105 O.3     
  33 H33            0.0433     2.0305     0.7436 H       
  34 H34           -0.3818    -0.3920     0.6681 H       
  35 H35            4.1422     1.3566    -0.2370 H       
  36 H36           -0.5193    -2.2144    -1.6479 H       
  37 H37           -1.7733    -3.9824     2.7999 H       
  38 H38            0.5175    -3.2014     2.3826 H       
  39 H39            3.7726    -2.1222    -0.8251 H       
  40 H40            7.8616    -0.6205     0.4468 H       
  41 H41            9.1515    -4.4804    -0.8230 H       
  42 H42            6.8361    -5.0802    -1.3991 H       
  43 H43            5.0183    -3.4606    -1.0514 H       
  44 H44           -4.9607    -5.5287     1.6763 H       
  45 H45           -3.4808    -2.3753    -3.3906 H       
@<TRIPOS>BOND
   1    1    2 ar
   2    1    6 ar
   3    1   33 1
   4    2    3 ar
   5    2   34 1
   6    3    4 ar
   7    3    7 1
   8    4    5 ar
   9    4   14 1
  10    5    6 ar
  11    5   35 1
  12    6   23 1
  13    7    8 1
  14    8    9 ar
  15    8   13 ar
  16    9   10 ar
  17    9   36 1
  18   10   11 ar
  19   10   30 1
  20   11   12 ar
  21   11   27 1
  22   12   13 ar
  23   12   37 1
  24   13   38 1
  25   14   15 am
  26   14   39 1
  27   15   16 1
  28   15   17 2
  29   16   18 ar
  30   16   22 ar
  31   18   19 ar
  32   18   40 1
  33   19   20 ar
  34   19   24 1
  35   20   21 ar
  36   20   41 1
  37   21   22 ar
  38   21   42 1
  39   22   43 1
  40   24   25 2
  41   24   26 2
  42   27   28 2
  43   27   29 1
  44   29   44 1
  45   30   31 2
  46   30   32 1
  47   32   45 1

#	End of record

