#	Name: ASD01208969
#	Creating user name:	WinNT
#	Creation time:	15. 06. 2019 19:10

#	Modifying user name:	WinNT
#	Modification time:	15. 06. 2019 19:10

#	Program:	/corina/corina34_cracker 3.40 0067  02.08.2006

@<TRIPOS>MOLECULE
ASD01208969
  55   58    0    0    0
SMALL
NO_CHARGES


@<TRIPOS>ATOM
   1 C1            -0.0187     1.5275     0.0104 C.3     
   2 C2             0.0021    -0.0041     0.0020 C.3     
   3 C3            -1.4312    -0.5350    -0.0664 C.3     
   4 C4            -1.4162    -2.0604     0.0508 C.3     
   5 C5            -2.8132    -2.5927    -0.1394 C.2     
   6 N6            -3.4713    -2.3612    -1.2925 N.am    
   7 C7            -4.7608    -2.8525    -1.4680 C.2     
   8 N8            -0.9239    -2.4435     1.3763 N.pl3   
   9 C9            -1.6638    -2.5399     2.5007 C.2     
  10 C10           -0.8404    -2.9196     3.5051 C.2     
  11 C11            0.4469    -3.0601     2.9764 C.2     
  12 N12            0.3970    -2.7803     1.6992 N.2     
  13 O13           -3.3452    -3.2293     0.7453 O.2     
  14 S14           -5.7488    -2.6359    -2.9103 S.3     
  15 C15           -7.0486    -3.5544    -2.1536 C.2     
  16 C16           -6.6439    -3.9267    -0.9373 C.2     
  17 N17           -5.4258    -3.5482    -0.5976 N.2     
  18 F18           -8.2483    -3.8333    -2.7087 F       
  19 C19           -1.7606    -4.9446     5.2495 C.3     
  20 C20           -2.3128    -5.2936     6.6427 C.3     
  21 C21           -3.7596    -5.7861     6.4326 C.3     
  22 C22           -3.7845    -6.2762     4.9635 C.3     
  23 C23           -2.8911    -5.2372     4.2414 C.3     
  24 C24            0.7862    -0.4864    -1.2223 C.3     
  25 C25            2.1942     0.1136    -1.1856 C.3     
  26 O26            2.1023     1.5392    -1.1479 O.3     
  27 C27            1.4204     2.0497    -0.0005 C.3     
  28 S28           -1.3073    -3.1895     5.1825 S.o2    
  29 O29           -0.1158    -2.9537     5.9202 O.2     
  30 O30           -2.4547    -2.3708     5.3629 O.2     
  31 H31           -0.5443     1.8896    -0.8732 H       
  32 H32           -0.5273     1.8800     0.9078 H       
  33 H33            0.4824    -0.3672     0.9106 H       
  34 H34           -2.0143    -0.1134     0.7523 H       
  35 H35           -1.8799    -0.2481    -1.0175 H       
  36 H36           -0.7613    -2.4772    -0.7145 H       
  37 H37           -3.0458    -1.8520    -2.0000 H       
  38 H38           -2.7234    -2.3480     2.5841 H       
  39 H39            1.3289    -3.3533     3.5264 H       
  40 H40           -7.2715    -4.5045    -0.2749 H       
  41 H41           -0.8913    -5.5633     5.0267 H       
  42 H42           -1.7120    -6.0822     7.0957 H       
  43 H43           -2.3084    -4.4083     7.2786 H       
  44 H44           -3.9855    -6.6074     7.1127 H       
  45 H45           -4.4655    -4.9676     6.5737 H       
  46 H46           -3.3572    -7.2757     4.8825 H       
  47 H47           -4.7994    -6.2554     4.5665 H       
  48 H48           -3.4567    -4.3301     4.0286 H       
  49 H49           -2.4832    -5.6580     3.3223 H       
  50 H50            0.8533    -1.5742    -1.2065 H       
  51 H51            0.2769    -0.1650    -2.1308 H       
  52 H52            2.7172    -0.2406    -0.2973 H       
  53 H53            2.7428    -0.1919    -2.0766 H       
  54 H54            1.4115     3.1390    -0.0377 H       
  55 H55            1.9333     1.7209     0.9033 H       
@<TRIPOS>BOND
   1    1    2 1
   2    1   27 1
   3    1   31 1
   4    1   32 1
   5    2    3 1
   6    2   24 1
   7    2   33 1
   8    3    4 1
   9    3   34 1
  10    3   35 1
  11    4    5 1
  12    4    8 1
  13    4   36 1
  14    5    6 am
  15    5   13 2
  16    6    7 1
  17    6   37 1
  18    7   14 1
  19    7   17 2
  20    8    9 1
  21    8   12 1
  22    9   10 2
  23    9   38 1
  24   10   11 1
  25   10   28 1
  26   11   12 2
  27   11   39 1
  28   14   15 1
  29   15   16 2
  30   15   18 1
  31   16   17 1
  32   16   40 1
  33   19   20 1
  34   19   28 1
  35   19   23 1
  36   19   41 1
  37   20   21 1
  38   20   42 1
  39   20   43 1
  40   21   22 1
  41   21   44 1
  42   21   45 1
  43   22   23 1
  44   22   46 1
  45   22   47 1
  46   23   48 1
  47   23   49 1
  48   24   25 1
  49   24   50 1
  50   24   51 1
  51   25   26 1
  52   25   52 1
  53   25   53 1
  54   26   27 1
  55   27   54 1
  56   27   55 1
  57   28   29 2
  58   28   30 2

#	End of record

