#	Name: ASD05720303
#	Creating user name:	WinNT
#	Creation time:	15. 06. 2019 21:02

#	Modifying user name:	WinNT
#	Modification time:	15. 06. 2019 21:02

#	Program:	/corina/corina34_cracker 3.40 0067  02.08.2006

@<TRIPOS>MOLECULE
ASD05720303
  61   64    0    0    0
SMALL
NO_CHARGES


@<TRIPOS>ATOM
   1 N1            -0.0458     1.5292    -0.6508 N.am    
   2 C2            -0.0979     0.2082    -1.2821 C.3     
   3 C3             1.1033     2.2335    -0.6556 C.2     
   4 O4             2.0966     1.7726    -1.1839 O.2     
   5 N5             1.1513     3.4487    -0.0747 N.am    
   6 C6             2.3678     4.1271     0.0257 C.ar    
   7 C7             2.3999     5.5134    -0.0784 C.ar    
   8 C8             3.5986     6.1853     0.0198 C.ar    
   9 C9             4.7816     5.4731     0.2245 C.ar    
  10 C10            4.7462     4.0815     0.3291 C.ar    
  11 C11            3.5439     3.4155     0.2353 C.ar    
  12 C12            7.4541     7.9357    -0.2997 C.ar    
  13 N13            6.3005     7.2859    -0.3895 N.ar    
  14 C14            6.0706     6.1918     0.3300 C.ar    
  15 C15            7.0844     5.7325     1.1965 C.ar    
  16 C16            8.2926     6.4568     1.2572 C.ar    
  17 N17            8.4314     7.5412     0.4988 N.ar    
  18 N18            9.0880     5.8099     2.1567 N.pl3   
  19 N19            8.3847     4.7021     2.6463 N.2     
  20 C20            7.2083     4.6471     2.0898 C.2     
  21 C21           10.4443     6.2057     2.5441 C.3     
  22 C22           10.3759     7.1560     3.7412 C.3     
  23 C23           11.7807     7.6671     4.0674 C.3     
  24 C24            9.4686     8.3401     3.4012 C.3     
  25 O25            9.8476     6.4603     4.8721 O.3     
  26 N26            7.6435     9.0663    -1.0756 N.3     
  27 C27            9.0726     9.2936    -1.3354 C.3     
  28 C28            9.2325    10.5156    -2.2436 C.3     
  29 O29            8.6076    11.6455    -1.6286 O.3     
  30 C30            7.2150    11.4588    -1.3620 C.3     
  31 C31            7.0346    10.2463    -0.4448 C.3     
  32 C32            9.6686     8.0640    -2.0236 C.3     
  33 H33           -0.8393     1.8986    -0.2328 H       
  34 H34            0.1497     0.3009    -2.3396 H       
  35 H35            0.6192    -0.4545    -0.7978 H       
  36 H36           -1.1015    -0.2045    -1.1788 H       
  37 H37            0.3408     3.8521     0.2736 H       
  38 H38            1.4843     6.0638    -0.2367 H       
  39 H39            3.6230     7.2619    -0.0618 H       
  40 H40            5.6600     3.5279     0.4871 H       
  41 H41            3.5154     2.3392     0.3201 H       
  42 H42            6.4548     3.8971     2.2797 H       
  43 H43           11.0177     5.3194     2.8160 H       
  44 H44           10.9287     6.7093     1.7075 H       
  45 H45           12.1836     8.1978     3.2048 H       
  46 H46           11.7320     8.3442     4.9202 H       
  47 H47           12.4271     6.8236     4.3096 H       
  48 H48            8.4678     7.9759     3.1688 H       
  49 H49            9.4199     9.0171     4.2541 H       
  50 H50            9.8716     8.8707     2.5386 H       
  51 H51            9.7758     7.0029     5.6693 H       
  52 H52            9.5902     9.4705    -0.3926 H       
  53 H53           10.2924    10.7222    -2.3925 H       
  54 H54            8.7609    10.3180    -3.2062 H       
  55 H55            6.8157    12.3475    -0.8732 H       
  56 H56            6.6846    11.2886    -2.2989 H       
  57 H57            5.9716    10.0658    -0.2850 H       
  58 H58            7.5196    10.4385     0.5122 H       
  59 H59            9.2120     7.9402    -3.0056 H       
  60 H60           10.7445     8.1971    -2.1374 H       
  61 H61            9.4741     7.1787    -1.4182 H       
@<TRIPOS>BOND
   1    1    2 1
   2    1    3 am
   3    1   33 1
   4    2   34 1
   5    2   35 1
   6    2   36 1
   7    3    4 2
   8    3    5 am
   9    5    6 1
  10    5   37 1
  11    6    7 ar
  12    6   11 ar
  13    7    8 ar
  14    7   38 1
  15    8    9 ar
  16    8   39 1
  17    9   10 ar
  18    9   14 1
  19   10   11 ar
  20   10   40 1
  21   11   41 1
  22   12   13 ar
  23   12   17 ar
  24   12   26 1
  25   13   14 ar
  26   14   15 ar
  27   15   16 ar
  28   15   20 1
  29   16   17 ar
  30   16   18 1
  31   18   19 1
  32   18   21 1
  33   19   20 2
  34   20   42 1
  35   21   22 1
  36   21   43 1
  37   21   44 1
  38   22   23 1
  39   22   24 1
  40   22   25 1
  41   23   45 1
  42   23   46 1
  43   23   47 1
  44   24   48 1
  45   24   49 1
  46   24   50 1
  47   25   51 1
  48   26   27 1
  49   26   31 1
  50   27   28 1
  51   27   32 1
  52   27   52 1
  53   28   29 1
  54   28   53 1
  55   28   54 1
  56   29   30 1
  57   30   31 1
  58   30   55 1
  59   30   56 1
  60   31   57 1
  61   31   58 1
  62   32   59 1
  63   32   60 1
  64   32   61 1

#	End of record

