#	Name: ASD01915007
#	Creating user name:	WinNT
#	Creation time:	15. 06. 2019 20:04

#	Modifying user name:	WinNT
#	Modification time:	15. 06. 2019 20:04

#	Program:	/corina/corina34_cracker 3.40 0067  02.08.2006

@<TRIPOS>MOLECULE
ASD01915007
  50   53    0    0    0
SMALL
NO_CHARGES


@<TRIPOS>ATOM
   1 N1            -0.0158     1.3157     0.0093 N.ar    
   2 C2             0.0021    -0.0041     0.0020 C.ar    
   3 C3             1.1932    -0.7078    -0.0122 C.ar    
   4 C4             2.3907    -0.0109    -0.0190 C.ar    
   5 C5             2.3358     1.3830    -0.0115 C.ar    
   6 C6             3.5653     2.2019    -0.0170 C.2     
   7 N7             3.4903     3.4982     0.3477 N.am    
   8 C8             2.2308     4.0814     0.8022 C.3     
   9 C9             1.0507     3.5288     0.0069 C.3     
  10 C10            1.0944     2.0227     0.0025 C.ar    
  11 O11            4.6293     1.7144    -0.3452 O.2     
  12 C12            4.6916     4.3346     0.2874 C.3     
  13 C13            4.7870     4.9795    -1.0713 C.ar    
  14 C14            4.1991     6.2110    -1.2935 C.ar    
  15 C15            4.2851     6.8043    -2.5381 C.ar    
  16 C16            4.9623     6.1634    -3.5654 C.ar    
  17 C17            5.5514     4.9278    -3.3399 C.ar    
  18 C18            5.4673     4.3413    -2.0919 C.ar    
  19 O19            5.0480     6.7447    -4.7908 O.3     
  20 C20            5.7604     6.0275    -5.8008 C.3     
  21 C21           -1.3017    -0.7599     0.0099 C.3     
  22 O22           -1.0381    -2.1643    -0.0001 O.3     
  23 C23           -2.1143    -2.9941     0.0053 C.ar    
  24 C24           -1.9312    -4.3690    -0.0038 C.ar    
  25 C25           -3.0286    -5.2114     0.0022 C.ar    
  26 C26           -4.3084    -4.6816     0.0167 C.ar    
  27 C27           -4.4911    -3.3117     0.0253 C.ar    
  28 C28           -3.3975    -2.4672     0.0256 C.ar    
  29 F29           -2.8521    -6.5508    -0.0066 F       
  30 H30            1.1896    -1.7878    -0.0176 H       
  31 H31            3.3374    -0.5307    -0.0294 H       
  32 H32            2.0901     3.8503     1.8581 H       
  33 H33            2.2717     5.1634     0.6763 H       
  34 H34            0.1187     3.8624     0.4633 H       
  35 H35            1.1016     3.8957    -1.0182 H       
  36 H36            4.6347     5.1079     1.0535 H       
  37 H37            5.5732     3.7171     0.4593 H       
  38 H38            3.6718     6.7094    -0.4935 H       
  39 H39            3.8254     7.7661    -2.7113 H       
  40 H40            6.0790     4.4268    -4.1380 H       
  41 H41            5.9298     3.3816    -1.9145 H       
  42 H42            5.7532     6.6014    -6.7274 H       
  43 H43            6.7897     5.8715    -5.4780 H       
  44 H44            5.2816     5.0625    -5.9673 H       
  45 H45           -1.8655    -0.5024     0.9064 H       
  46 H46           -1.8818    -0.4928    -0.8734 H       
  47 H47           -0.9332    -4.7815    -0.0159 H       
  48 H48           -5.1646    -5.3399     0.0210 H       
  49 H49           -5.4899    -2.9008     0.0363 H       
  50 H50           -3.5416    -1.3969     0.0369 H       
@<TRIPOS>BOND
   1    1    2 ar
   2    1   10 ar
   3    2    3 ar
   4    2   21 1
   5    3    4 ar
   6    3   30 1
   7    4    5 ar
   8    4   31 1
   9    5    6 1
  10    5   10 ar
  11    6    7 am
  12    6   11 2
  13    7    8 1
  14    7   12 1
  15    8    9 1
  16    8   32 1
  17    8   33 1
  18    9   10 1
  19    9   34 1
  20    9   35 1
  21   12   13 1
  22   12   36 1
  23   12   37 1
  24   13   14 ar
  25   13   18 ar
  26   14   15 ar
  27   14   38 1
  28   15   16 ar
  29   15   39 1
  30   16   17 ar
  31   16   19 1
  32   17   18 ar
  33   17   40 1
  34   18   41 1
  35   19   20 1
  36   20   42 1
  37   20   43 1
  38   20   44 1
  39   21   22 1
  40   21   45 1
  41   21   46 1
  42   22   23 1
  43   23   24 ar
  44   23   28 ar
  45   24   25 ar
  46   24   47 1
  47   25   26 ar
  48   25   29 1
  49   26   27 ar
  50   26   48 1
  51   27   28 ar
  52   27   49 1
  53   28   50 1

#	End of record

