#	Name: ASD08070069
#	Creating user name:	WinNT
#	Creation time:	15. 06. 2019 21:14

#	Modifying user name:	WinNT
#	Modification time:	15. 06. 2019 21:14

#	Program:	/corina/corina34_cracker 3.40 0067  02.08.2006

@<TRIPOS>MOLECULE
ASD08070069
  44   46    0    0    0
SMALL
NO_CHARGES


@<TRIPOS>ATOM
   1 C1            -0.0166     1.3763     0.0096 C.ar    
   2 C2             0.0021    -0.0041     0.0020 C.ar    
   3 N3             1.1034     2.0724     0.0027 N.ar    
   4 C4             2.2868     1.4955    -0.0117 C.ar    
   5 C5             2.4029     0.1110    -0.0207 C.ar    
   6 C6             1.2335    -0.6670    -0.0133 C.ar    
   7 C7             1.3024    -2.1442    -0.0218 C.2     
   8 O8             2.3821    -2.7022    -0.0355 O.2     
   9 C9             0.2360    -4.3351    -0.0229 C.3     
  10 N10            0.1678    -2.8717    -0.0145 N.am    
  11 C11           -1.1598    -4.9031    -0.0122 C.ar    
  12 C12           -1.7091    -5.3620     1.1695 C.ar    
  13 C13           -2.9889    -5.8834     1.1826 C.ar    
  14 N14            3.6606    -0.4966    -0.0369 N.pl3   
  15 C15            4.6800    -0.1960    -0.8959 C.2     
  16 C16            5.7279    -0.9909    -0.6001 C.2     
  17 C17            5.3448    -1.8126     0.4796 C.2     
  18 C18            4.0785    -1.4864     0.8075 C.2     
  19 C19           -1.8945    -4.9595    -1.1883 C.ar    
  20 C20           -3.1784    -5.4820    -1.1777 C.ar    
  21 C21           -3.7252    -5.9476     0.0083 C.ar    
  22 O22           -4.9834    -6.4608     0.0218 O.3     
  23 C23           -5.4827    -6.9217     1.2790 C.3     
  24 O24           -1.3559    -4.5024    -2.3492 O.3     
  25 C25           -2.1690    -4.5915    -3.5210 C.3     
  26 H26           -0.9641     1.8946     0.0169 H       
  27 H27           -0.9213    -0.5642     0.0082 H       
  28 H28            3.1778     2.1057    -0.0170 H       
  29 H29            0.7574    -4.6693    -0.9199 H       
  30 H30            0.7750    -4.6788     0.8599 H       
  31 H31           -0.6938    -2.4264    -0.0036 H       
  32 H32           -1.1373    -5.3135     2.0844 H       
  33 H33           -3.4161    -6.2415     2.1076 H       
  34 H34            4.6510     0.5493    -1.6769 H       
  35 H35            6.6855    -0.9974    -1.0994 H       
  36 H36            5.9553    -2.5638     0.9586 H       
  37 H37            3.4933    -1.9344     1.5969 H       
  38 H38           -3.7518    -5.5265    -2.0919 H       
  39 H39           -4.8384    -7.7156     1.6567 H       
  40 H40           -5.4958    -6.0954     1.9897 H       
  41 H41           -6.4945    -7.3056     1.1494 H       
  42 H42           -2.4245    -5.6346    -3.7074 H       
  43 H43           -3.0819    -4.0143    -3.3745 H       
  44 H44           -1.6206    -4.1936    -4.3749 H       
@<TRIPOS>BOND
   1    1    2 ar
   2    1    3 ar
   3    1   26 1
   4    2    6 ar
   5    2   27 1
   6    3    4 ar
   7    4    5 ar
   8    4   28 1
   9    5    6 ar
  10    5   14 1
  11    6    7 1
  12    7    8 2
  13    7   10 am
  14    9   11 1
  15    9   10 1
  16    9   29 1
  17    9   30 1
  18   10   31 1
  19   11   12 ar
  20   11   19 ar
  21   12   13 ar
  22   12   32 1
  23   13   21 ar
  24   13   33 1
  25   14   15 1
  26   14   18 1
  27   15   16 2
  28   15   34 1
  29   16   17 1
  30   16   35 1
  31   17   18 2
  32   17   36 1
  33   18   37 1
  34   19   20 ar
  35   19   24 1
  36   20   21 ar
  37   20   38 1
  38   21   22 1
  39   22   23 1
  40   23   39 1
  41   23   40 1
  42   23   41 1
  43   24   25 1
  44   25   42 1
  45   25   43 1
  46   25   44 1

#	End of record

