#	Name: ASD03082063
#	Creating user name:	WinNT
#	Creation time:	15. 06. 2019 20:27

#	Modifying user name:	WinNT
#	Modification time:	15. 06. 2019 20:27

#	Program:	/corina/corina34_cracker 3.40 0067  02.08.2006

@<TRIPOS>MOLECULE
ASD03082063
  67   70    0    0    0
SMALL
NO_CHARGES


@<TRIPOS>ATOM
   1 C1            -0.0176     1.4478     0.0100 C.3     
   2 O2             0.0021    -0.0041     0.0020 O.3     
   3 C3            -1.1901    -0.6321     0.0100 C.2     
   4 C4            -1.2473    -2.1054     0.0027 C.ar    
   5 O5            -2.2179     0.0157     0.0233 O.2     
   6 C6            -0.0682    -2.8542    -0.0126 C.ar    
   7 C7            -0.1286    -4.2314    -0.0190 C.ar    
   8 C8            -1.3536    -4.8776    -0.0103 C.ar    
   9 C9            -2.5275    -4.1501     0.0044 C.ar    
  10 C10           -2.4861    -2.7636     0.0168 C.ar    
  11 N11           -3.6720    -2.0264     0.0316 N.am    
  12 C12           -4.2797    -1.6543     1.1650 C.2     
  13 C13           -5.5313    -0.8745     0.8260 C.3     
  14 C14           -5.5418    -0.8604    -0.7162 C.3     
  15 C15           -4.2919    -1.6288    -1.0864 C.2     
  16 O16           -3.8892    -1.9029     2.2854 O.2     
  17 O17           -3.9154    -1.8548    -2.2163 O.2     
  18 C18            1.4178     1.9774    -0.0009 C.3     
  19 C19            2.0960     1.5891    -1.3176 C.3     
  20 C20            3.5108     2.1738    -1.3457 C.3     
  21 C21            3.4332     3.6929    -1.1776 C.3     
  22 N22            2.7773     4.0127     0.0968 N.3     
  23 C23            1.4008     3.5022     0.1283 C.3     
  24 C24            2.8087     5.4582     0.3568 C.3     
  25 C25            1.9534     6.1825    -0.6846 C.3     
  26 O26            0.5856     5.7997    -0.5273 O.3     
  27 C27           -0.3137     6.3575    -1.3812 C.ar    
  28 C28           -1.6579     6.0298    -1.2839 C.ar    
  29 C29           -2.5714     6.5964    -2.1514 C.ar    
  30 C30           -2.1446     7.4932    -3.1194 C.ar    
  31 C31           -0.8005     7.8216    -3.2161 C.ar    
  32 C32            0.1124     7.2584    -2.3458 C.ar    
  33 O33           -3.0438     8.0503    -3.9740 O.3     
  34 C34           -2.5342     8.9656    -4.9459 C.3     
  35 C35           -6.7727    -1.5872     1.3664 C.3     
  36 H36           -0.5448     1.8089    -0.8731 H       
  37 H37           -0.5278     1.7993     0.9068 H       
  38 H38            0.8894    -2.3549    -0.0198 H       
  39 H39            0.7837    -4.8092    -0.0311 H       
  40 H40           -1.3911    -5.9569    -0.0153 H       
  41 H41           -3.4788    -4.6614     0.0104 H       
  42 H42           -5.4691     0.1405     1.2185 H       
  43 H43           -6.4313    -1.3611    -1.0984 H       
  44 H44           -5.4847     0.1616    -1.0909 H       
  45 H45            1.9708     1.5470     0.8341 H       
  46 H46            2.1491     0.5030    -1.3936 H       
  47 H47            1.5211     1.9860    -2.1543 H       
  48 H48            4.0972     1.7471    -0.5319 H       
  49 H49            3.9837     1.9368    -2.2988 H       
  50 H50            4.4399     4.1108    -1.1828 H       
  51 H51            2.8584     4.1203    -1.9992 H       
  52 H52            0.8355     3.9305    -0.6994 H       
  53 H53            0.9313     3.7816     1.0715 H       
  54 H54            2.4137     5.6568     1.3531 H       
  55 H55            3.8365     5.8161     0.2955 H       
  56 H56            2.0474     7.2596    -0.5465 H       
  57 H57            2.2932     5.9133    -1.6847 H       
  58 H58           -1.9903     5.3315    -0.5301 H       
  59 H59           -3.6180     6.3407    -2.0761 H       
  60 H60           -0.4681     8.5200    -3.9699 H       
  61 H61            1.1590     7.5141    -2.4211 H       
  62 H62           -2.0537     9.8029    -4.4396 H       
  63 H63           -1.8061     8.4568    -5.5776 H       
  64 H64           -3.3540     9.3354    -5.5617 H       
  65 H65           -6.7084    -1.6557     2.4523 H       
  66 H66           -7.6641    -1.0241     1.0899 H       
  67 H67           -6.8299    -2.5895     0.9418 H       
@<TRIPOS>BOND
   1    1    2 1
   2    1   18 1
   3    1   36 1
   4    1   37 1
   5    2    3 1
   6    3    4 1
   7    3    5 2
   8    4    6 ar
   9    4   10 ar
  10    6    7 ar
  11    6   38 1
  12    7    8 ar
  13    7   39 1
  14    8    9 ar
  15    8   40 1
  16    9   10 ar
  17    9   41 1
  18   10   11 1
  19   11   12 am
  20   11   15 am
  21   12   13 1
  22   12   16 2
  23   13   14 1
  24   13   35 1
  25   13   42 1
  26   14   15 1
  27   14   43 1
  28   14   44 1
  29   15   17 2
  30   18   19 1
  31   18   23 1
  32   18   45 1
  33   19   20 1
  34   19   46 1
  35   19   47 1
  36   20   21 1
  37   20   48 1
  38   20   49 1
  39   21   22 1
  40   21   50 1
  41   21   51 1
  42   22   23 1
  43   22   24 1
  44   23   52 1
  45   23   53 1
  46   24   25 1
  47   24   54 1
  48   24   55 1
  49   25   26 1
  50   25   56 1
  51   25   57 1
  52   26   27 1
  53   27   28 ar
  54   27   32 ar
  55   28   29 ar
  56   28   58 1
  57   29   30 ar
  58   29   59 1
  59   30   31 ar
  60   30   33 1
  61   31   32 ar
  62   31   60 1
  63   32   61 1
  64   33   34 1
  65   34   62 1
  66   34   63 1
  67   34   64 1
  68   35   65 1
  69   35   66 1
  70   35   67 1

#	End of record

