#	Name: ASD01910415
#	Creating user name:	WinNT
#	Creation time:	15. 06. 2019 19:55

#	Modifying user name:	WinNT
#	Modification time:	15. 06. 2019 19:55

#	Program:	/corina/corina34_cracker 3.40 0067  02.08.2006

@<TRIPOS>MOLECULE
ASD01910415
  44   46    0    0    0
SMALL
NO_CHARGES


@<TRIPOS>ATOM
   1 C1            -0.2424     1.6441    -0.8716 C.ar    
   2 C2            -0.0919     0.3219    -1.2475 C.ar    
   3 C3             1.1083    -0.3266    -1.0317 C.ar    
   4 C4             2.1646     0.3508    -0.4370 C.ar    
   5 C5             2.0105     1.6787    -0.0611 C.ar    
   6 C6             0.8076     2.3214    -0.2792 C.ar    
   7 N7             3.3819    -0.3036    -0.2165 N.am    
   8 C8             4.5406     0.3782    -0.3126 C.2     
   9 O9             5.7035    -0.2229     0.0026 O.3     
  10 O10            4.5357     1.5352    -0.6836 O.2     
  11 C11            7.4819     0.4136    -1.5376 C.3     
  12 C12            6.9120     0.5719    -0.1245 C.3     
  13 C13            7.9477     0.0933     0.8955 C.3     
  14 C14            9.2098     0.9518     0.7847 C.3     
  15 C15            9.8057     0.7979    -0.6181 C.3     
  16 N16            8.7697     1.1173    -1.6097 N.am    
  17 C17            8.9961     2.0386    -2.5670 C.2     
  18 O18            8.1611     2.2389    -3.4276 O.2     
  19 C19           10.2590     2.8050    -2.5706 C.ar    
  20 C20           11.4771     2.1493    -2.3796 C.ar    
  21 C21           12.6525     2.8692    -2.3838 C.ar    
  22 C22           12.6269     4.2420    -2.5773 C.ar    
  23 C23           11.4202     4.8981    -2.7669 C.ar    
  24 C24           10.2395     4.1869    -2.7707 C.ar    
  25 F25           13.7819     4.9429    -2.5805 F       
  26 H26           -1.1806     2.1502    -1.0452 H       
  27 H27           -0.9139    -0.2043    -1.7099 H       
  28 H28            1.2250    -1.3594    -1.3248 H       
  29 H29            2.8300     2.2081     0.4020 H       
  30 H30            0.6871     3.3542     0.0126 H       
  31 H31            3.3918    -1.2478     0.0055 H       
  32 H32            7.6307    -0.6440    -1.7553 H       
  33 H33            6.7894     0.8438    -2.2612 H       
  34 H34            6.6790     1.6209     0.0584 H       
  35 H35            7.5354     0.1819     1.9006 H       
  36 H36            8.1987    -0.9486     0.6967 H       
  37 H37            8.9551     1.9972     0.9591 H       
  38 H38            9.9381     0.6256     1.5272 H       
  39 H39           10.6466     1.4816    -0.7350 H       
  40 H40           10.1440    -0.2284    -0.7608 H       
  41 H41           11.4982     1.0801    -2.2285 H       
  42 H42           13.5951     2.3632    -2.2358 H       
  43 H43           11.4058     5.9675    -2.9168 H       
  44 H44            9.3001     4.6988    -2.9189 H       
@<TRIPOS>BOND
   1    1    2 ar
   2    1    6 ar
   3    1   26 1
   4    2    3 ar
   5    2   27 1
   6    3    4 ar
   7    3   28 1
   8    4    5 ar
   9    4    7 1
  10    5    6 ar
  11    5   29 1
  12    6   30 1
  13    7    8 am
  14    7   31 1
  15    8    9 1
  16    8   10 2
  17    9   12 1
  18   11   12 1
  19   11   16 1
  20   11   32 1
  21   11   33 1
  22   12   13 1
  23   12   34 1
  24   13   14 1
  25   13   35 1
  26   13   36 1
  27   14   15 1
  28   14   37 1
  29   14   38 1
  30   15   16 1
  31   15   39 1
  32   15   40 1
  33   16   17 am
  34   17   18 2
  35   17   19 1
  36   19   20 ar
  37   19   24 ar
  38   20   21 ar
  39   20   41 1
  40   21   22 ar
  41   21   42 1
  42   22   23 ar
  43   22   25 1
  44   23   24 ar
  45   23   43 1
  46   24   44 1

#	End of record

