#	Name: ASD08150564
#	Creating user name:	WinNT
#	Creation time:	15. 06. 2019 21:16

#	Modifying user name:	WinNT
#	Modification time:	15. 06. 2019 21:16

#	Program:	/corina/corina34_cracker 3.40 0067  02.08.2006

@<TRIPOS>MOLECULE
ASD08150564
  71   77    0    0    0
SMALL
NO_CHARGES


@<TRIPOS>ATOM
   1 N1             0.5247     2.3032    -1.4238 N.am    
   2 C2             0.7972     1.4101    -2.3949 C.2     
   3 C3             2.0112     0.6934    -2.3991 C.2     
   4 C4             2.9273     0.8958    -1.4183 C.2     
   5 C5             2.6442     1.8351    -0.3952 C.ar    
   6 C6             3.5601     2.0831     0.6449 C.ar    
   7 N7             3.2965     2.9500     1.5874 N.ar    
   8 C8             2.1512     3.6480     1.6204 C.ar    
   9 C9             1.1718     3.4632     0.6136 C.ar    
  10 C10            1.4261     2.5316    -0.4201 C.ar    
  11 C11           -0.2281     5.0959     1.6893 C.ar    
  12 C12            0.7462     5.2741     2.6815 C.ar    
  13 C13            1.9090     4.5695     2.6525 C.ar    
  14 O14           -0.0172     1.2188    -3.2818 O.2     
  15 C15           -0.6856     3.0061    -1.4450 C.ar    
  16 C16           -0.7197     4.3195    -1.8947 C.ar    
  17 C17           -1.9156     5.0104    -1.9143 C.ar    
  18 C18           -3.0779     4.3958    -1.4863 C.ar    
  19 C19           -3.0472     3.0879    -1.0374 C.ar    
  20 C20           -1.8560     2.3896    -1.0216 C.ar    
  21 C21           -0.0189     4.1949     0.6577 C.ar    
  22 C22           -1.4882     5.8762     1.7436 C.ar    
  23 C23           -2.6474     5.3920     1.1167 C.ar    
  24 C24           -4.3808     5.1527    -1.5086 C.3     
  25 N25           -3.7730     6.0591     1.1483 N.ar    
  26 C26           -3.8754     7.2341     1.7786 C.ar    
  27 C27           -2.7488     7.7897     2.4359 C.ar    
  28 C28           -1.5316     7.0872     2.4192 C.ar    
  29 C29           -1.9535     6.4357    -2.4022 C.3     
  30 C30           -5.0930     7.9363     1.8011 C.ar    
  31 C31           -5.1731     9.1307     2.4487 C.ar    
  32 C32           -4.0644     9.6752     3.0939 C.ar    
  33 C33           -2.8682     9.0255     3.0942 C.ar    
  34 N34           -4.9152     5.1674    -2.8769 N.3     
  35 C35           -6.2902     5.6856    -2.8997 C.3     
  36 C36           -6.7808     5.7593    -4.3475 C.3     
  37 N37           -6.7149     4.4219    -4.9531 N.3     
  38 C38           -5.3399     3.9038    -4.9303 C.3     
  39 C39           -4.8493     3.8300    -3.4824 C.3     
  40 C40           -7.2493     4.4366    -6.3213 C.3     
  41 H41            2.2127    -0.0194    -3.1851 H       
  42 H42            3.8585     0.3488    -1.4172 H       
  43 H43            4.4975     1.5471     0.6648 H       
  44 H44            0.5711     5.9805     3.4795 H       
  45 H45            2.6482     4.7185     3.4256 H       
  46 H46            0.1880     4.8003    -2.2284 H       
  47 H47           -3.9567     2.6108    -0.7035 H       
  48 H48           -1.8327     1.3683    -0.6709 H       
  49 H49           -0.7696     4.0592    -0.1068 H       
  50 H50           -2.6092     4.4467     0.5956 H       
  51 H51           -5.0952     4.6659    -0.8447 H       
  52 H52           -4.2122     6.1761    -1.1734 H       
  53 H53           -0.6545     7.4821     2.9103 H       
  54 H54           -2.1389     6.4473    -3.4762 H       
  55 H55           -2.7511     6.9739    -1.8900 H       
  56 H56           -0.9981     6.9168    -2.1931 H       
  57 H57           -5.9622     7.5294     1.3058 H       
  58 H58           -6.1114     9.6654     2.4625 H       
  59 H59           -4.1553    10.6251     3.5998 H       
  60 H60           -2.0158     9.4573     3.5976 H       
  61 H61           -6.9389     5.0207    -2.3293 H       
  62 H62           -6.3108     6.6817    -2.4575 H       
  63 H63           -7.8106     6.1160    -4.3648 H       
  64 H64           -6.1485     6.4453    -4.9113 H       
  65 H65           -5.3193     2.9077    -5.3724 H       
  66 H66           -4.6912     4.5686    -5.5006 H       
  67 H67           -3.8195     3.4733    -3.4651 H       
  68 H68           -5.4816     3.1441    -2.9187 H       
  69 H69           -6.6659     5.1258    -6.9319 H       
  70 H70           -7.1887     3.4346    -6.7459 H       
  71 H71           -8.2899     4.7605    -6.3015 H       
@<TRIPOS>BOND
   1    1    2 am
   2    1   10 1
   3    1   15 1
   4    2    3 1
   5    2   14 2
   6    3    4 2
   7    3   41 1
   8    4    5 1
   9    4   42 1
  10    5    6 ar
  11    5   10 ar
  12    6    7 ar
  13    6   43 1
  14    7    8 ar
  15    8    9 ar
  16    8   13 ar
  17    9   10 ar
  18    9   21 ar
  19   11   12 ar
  20   11   22 1
  21   11   21 ar
  22   12   13 ar
  23   12   44 1
  24   13   45 1
  25   15   16 ar
  26   15   20 ar
  27   16   17 ar
  28   16   46 1
  29   17   18 ar
  30   17   29 1
  31   18   19 ar
  32   18   24 1
  33   19   20 ar
  34   19   47 1
  35   20   48 1
  36   21   49 1
  37   22   23 ar
  38   22   28 ar
  39   23   25 ar
  40   23   50 1
  41   24   34 1
  42   24   51 1
  43   24   52 1
  44   25   26 ar
  45   26   27 ar
  46   26   30 ar
  47   27   28 ar
  48   27   33 ar
  49   28   53 1
  50   29   54 1
  51   29   55 1
  52   29   56 1
  53   30   31 ar
  54   30   57 1
  55   31   32 ar
  56   31   58 1
  57   32   33 ar
  58   32   59 1
  59   33   60 1
  60   34   35 1
  61   34   39 1
  62   35   36 1
  63   35   61 1
  64   35   62 1
  65   36   37 1
  66   36   63 1
  67   36   64 1
  68   37   38 1
  69   37   40 1
  70   38   39 1
  71   38   65 1
  72   38   66 1
  73   39   67 1
  74   39   68 1
  75   40   69 1
  76   40   70 1
  77   40   71 1

#	End of record

