#	Name: ASD01811967
#	Creating user name:	WinNT
#	Creation time:	15. 06. 2019 19:27

#	Modifying user name:	WinNT
#	Modification time:	15. 06. 2019 19:27

#	Program:	/corina/corina34_cracker 3.40 0067  02.08.2006

@<TRIPOS>MOLECULE
ASD01811967
  31   33    0    0    0
SMALL
NO_CHARGES


@<TRIPOS>ATOM
   1 C1            -0.0167     1.3808     0.0096 C.ar    
   2 C2             0.0021    -0.0041     0.0020 C.ar    
   3 C3             1.2054    -0.6750    -0.0137 C.ar    
   4 C4             2.4159     0.0313    -0.0217 C.ar    
   5 C5             2.3949     1.4228    -0.0127 C.ar    
   6 C6             1.1663     2.0871     0.0021 C.ar    
   7 C7             3.6616    -0.7587    -0.0419 C.2     
   8 C8             4.7317    -0.4490    -0.7543 C.2     
   9 C9             4.7716     0.7823    -1.6191 C.3     
  10 C10            4.6329     1.9933    -0.7360 C.2     
  11 N11            3.5366     2.2103    -0.0151 N.am    
  12 S12            5.8345     3.0457    -0.6625 S.2     
  13 C13            3.7176    -1.9825     0.7936 C.ar    
  14 C14            4.4474    -1.9864     1.9806 C.ar    
  15 C15            4.4958    -3.1282     2.7547 C.ar    
  16 C16            3.8224    -4.2683     2.3550 C.ar    
  17 C17            3.0962    -4.2728     1.1779 C.ar    
  18 C18            3.0347    -3.1339     0.3970 C.ar    
  19 Cl19          -1.4888    -0.8934     0.0128 Cl      
  20 F20            2.3252    -3.1384    -0.7527 F       
  21 H21           -0.9595     1.9075     0.0170 H       
  22 H22            1.2159    -1.7550    -0.0195 H       
  23 H23            1.1433     3.1668     0.0075 H       
  24 H24            5.5969    -1.0942    -0.7145 H       
  25 H25            5.7216     0.8248    -2.1518 H       
  26 H26            3.9491     0.7544    -2.3338 H       
  27 H27            3.5354     2.9901     0.5618 H       
  28 H28            4.9746    -1.0976     2.2943 H       
  29 H29            5.0614    -3.1314     3.6747 H       
  30 H30            3.8640    -5.1590     2.9644 H       
  31 H31            2.5729    -5.1662     0.8706 H       
@<TRIPOS>BOND
   1    1    2 ar
   2    1    6 ar
   3    1   21 1
   4    2    3 ar
   5    2   19 1
   6    3    4 ar
   7    3   22 1
   8    4    5 ar
   9    4    7 1
  10    5    6 ar
  11    5   11 1
  12    6   23 1
  13    7    8 2
  14    7   13 1
  15    8    9 1
  16    8   24 1
  17    9   10 1
  18    9   25 1
  19    9   26 1
  20   10   11 am
  21   10   12 2
  22   11   27 1
  23   13   14 ar
  24   13   18 ar
  25   14   15 ar
  26   14   28 1
  27   15   16 ar
  28   15   29 1
  29   16   17 ar
  30   16   30 1
  31   17   18 ar
  32   17   31 1
  33   18   20 1

#	End of record

