#	Name: ASD01810507
#	Creating user name:	WinNT
#	Creation time:	15. 06. 2019 19:24

#	Modifying user name:	WinNT
#	Modification time:	15. 06. 2019 19:24

#	Program:	/corina/corina34_cracker 3.40 0067  02.08.2006

@<TRIPOS>MOLECULE
ASD01810507
  82   84    0    0    0
SMALL
NO_CHARGES


@<TRIPOS>ATOM
   1 C1            -0.1198     1.0819     0.6529 C.ar    
   2 C2             0.0062    -0.2997     0.6044 C.ar    
   3 C3             1.2346    -0.8880     0.3824 C.ar    
   4 C4             2.3681    -0.0987     0.2035 C.ar    
   5 C5             2.2347     1.2997     0.2418 C.ar    
   6 C6             0.9856     1.8832     0.4729 C.ar    
   7 N7             3.5907    -0.7116     0.0042 N.3     
   8 C8             4.5554     0.1115    -0.7263 C.3     
   9 C9             4.7622     1.4411     0.0135 C.3     
  10 C10            3.4185     2.1480     0.0279 C.2     
  11 C11            3.4241    -2.0223    -0.6379 C.3     
  12 C12            4.7788    -2.6105    -0.9378 C.ar    
  13 C13            5.4089    -3.4079    -0.0008 C.ar    
  14 C14            6.6515    -3.9475    -0.2759 C.ar    
  15 C15            7.2638    -3.6900    -1.4882 C.ar    
  16 C16            6.6333    -2.8934    -2.4256 C.ar    
  17 C17            5.3887    -2.3574    -2.1522 C.ar    
  18 Cl18          -1.3966    -1.2981     0.8259 Cl      
  19 O19            3.3255     3.3474    -0.1290 O.2     
  20 C20            5.2218     1.1794     1.4247 C.2     
  21 N21            5.4651     2.2116     2.2565 N.am    
  22 O22            5.3727     0.0400     1.8119 O.2     
  23 C23            8.0940     6.4445    10.7431 C.3     
  24 C24            8.5429     6.1889    12.1215 C.1     
  25 C25            8.9009     5.9850    13.2208 C.1     
  26 C26            9.3499     5.7295    14.5992 C.3     
  27 O27            9.5387     6.9732    15.2770 O.3     
  28 C28            9.9533     6.9149    16.5629 C.2     
  29 N29           10.1908     5.8475    17.2232 N.2     
  30 C30           10.2213     8.1060    17.4631 C.3     
  31 C31           10.2664     7.4596    18.8686 C.3     
  32 O32           10.6182     6.0968    18.5476 O.3     
  33 N33            7.8998     5.1659    10.0464 N.4     
  34 C34            9.1684     4.4256    10.0189 C.3     
  35 C35            6.8851     4.3725    10.7527 C.3     
  36 C36            5.9119     1.9572     3.6283 C.3     
  37 C37            6.1141     3.2889     4.3540 C.3     
  38 C38            6.5807     3.0232     5.7867 C.3     
  39 C39            6.7830     4.3549     6.5124 C.3     
  40 C40            7.2496     4.0893     7.9451 C.3     
  41 C41            7.4518     5.4209     8.6708 C.3     
  42 H42           -1.0871     1.5293     0.8277 H       
  43 H43            1.3174    -1.9643     0.3476 H       
  44 H44            0.8879     2.9581     0.5104 H       
  45 H45            5.5059    -0.4177    -0.7945 H       
  46 H46            4.1776     0.3092    -1.7295 H       
  47 H47            5.4979     2.0497    -0.5123 H       
  48 H48            2.8790    -2.6880     0.0312 H       
  49 H49            2.8659    -1.9036    -1.5665 H       
  50 H50            4.9305    -3.6090     0.9464 H       
  51 H51            7.1441    -4.5699     0.4565 H       
  52 H52            8.2349    -4.1110    -1.7028 H       
  53 H53            7.1118    -2.6920    -3.3726 H       
  54 H54            4.8961    -1.7350    -2.8846 H       
  55 H55            5.3444     3.1229     1.9468 H       
  56 H56            7.1527     6.9937    10.7635 H       
  57 H57            8.8469     7.0332    10.2191 H       
  58 H58            8.5969     5.1408    15.1233 H       
  59 H59           10.2911     5.1802    14.5788 H       
  60 H60           11.1776     8.5685    17.2188 H       
  61 H61            9.4107     8.8317    17.3965 H       
  62 H62           11.0339     7.9239    19.4878 H       
  63 H63            9.2916     7.5104    19.3536 H       
  64 H64            9.9213     5.0143     9.4948 H       
  65 H65            9.5008     4.2364    11.0396 H       
  66 H66            9.0243     3.4769     9.5019 H       
  67 H67            6.7410     3.4238    10.2357 H       
  68 H68            7.2175     4.1832    11.7733 H       
  69 H69            5.9438     4.9218    10.7730 H       
  70 H70            5.1590     1.3685     4.1524 H       
  71 H71            6.8532     1.4079     3.6079 H       
  72 H72            6.8671     3.8776     3.8299 H       
  73 H73            5.1729     3.8382     4.3744 H       
  74 H74            5.8278     2.4346     6.3108 H       
  75 H75            7.5220     2.4740     5.7663 H       
  76 H76            7.5359     4.9436     5.9883 H       
  77 H77            5.8417     4.9042     6.5328 H       
  78 H78            6.4967     3.5006     8.4692 H       
  79 H79            8.1908     3.5400     7.9247 H       
  80 H80            6.5106     5.9702     8.6912 H       
  81 H81            8.2047     6.0096     8.1467 H       
  82 Br82          16.1776    13.8317    24.4878 Br      
@<TRIPOS>BOND
   1    1    2 ar
   2    1    6 ar
   3    1   42 1
   4    2    3 ar
   5    2   18 1
   6    3    4 ar
   7    3   43 1
   8    4    5 ar
   9    4    7 1
  10    5    6 ar
  11    5   10 1
  12    6   44 1
  13    7    8 1
  14    7   11 1
  15    8    9 1
  16    8   45 1
  17    8   46 1
  18    9   10 1
  19    9   20 1
  20    9   47 1
  21   10   19 2
  22   11   12 1
  23   11   48 1
  24   11   49 1
  25   12   13 ar
  26   12   17 ar
  27   13   14 ar
  28   13   50 1
  29   14   15 ar
  30   14   51 1
  31   15   16 ar
  32   15   52 1
  33   16   17 ar
  34   16   53 1
  35   17   54 1
  36   20   21 am
  37   20   22 2
  38   21   36 1
  39   21   55 1
  40   23   24 1
  41   23   33 1
  42   23   56 1
  43   23   57 1
  44   24   25 3
  45   25   26 1
  46   26   27 1
  47   26   58 1
  48   26   59 1
  49   27   28 1
  50   28   29 2
  51   28   30 1
  52   29   32 1
  53   30   31 1
  54   30   60 1
  55   30   61 1
  56   31   32 1
  57   31   62 1
  58   31   63 1
  59   33   41 1
  60   33   34 1
  61   33   35 1
  62   34   64 1
  63   34   65 1
  64   34   66 1
  65   35   67 1
  66   35   68 1
  67   35   69 1
  68   36   37 1
  69   36   70 1
  70   36   71 1
  71   37   38 1
  72   37   72 1
  73   37   73 1
  74   38   39 1
  75   38   74 1
  76   38   75 1
  77   39   40 1
  78   39   76 1
  79   39   77 1
  80   40   41 1
  81   40   78 1
  82   40   79 1
  83   41   80 1
  84   41   81 1

#	End of record

