#	Name: ASD01881146
#	Creating user name:	WinNT
#	Creation time:	15. 06. 2019 19:42

#	Modifying user name:	WinNT
#	Modification time:	15. 06. 2019 19:42

#	Program:	/corina/corina34_cracker 3.40 0067  02.08.2006

@<TRIPOS>MOLECULE
ASD01881146
  43   45    0    0    0
SMALL
NO_CHARGES


@<TRIPOS>ATOM
   1 N1            -0.0158     1.3133     0.0093 N.ar    
   2 C2             0.0021    -0.0041     0.0020 C.ar    
   3 N3             1.1310    -0.6839    -0.0124 N.ar    
   4 C4             2.3020    -0.0629    -0.0203 C.ar    
   5 C5             2.3325     1.3179    -0.0131 C.ar    
   6 C6             1.1186     2.0075     0.0022 C.ar    
   7 C7             3.6432     2.0616    -0.0217 C.3     
   8 O8             4.0446     2.3039    -1.3715 O.3     
   9 C9             5.2131     2.9688    -1.5570 C.ar    
  10 C10            5.6627     3.2377    -2.8465 C.ar    
  11 C11            6.8441     3.9105    -3.0338 C.ar    
  12 C12            7.6023     4.3294    -1.9351 C.ar    
  13 C13            7.1465     4.0568    -0.6409 C.ar    
  14 C14            5.9560     3.3851    -0.4595 C.ar    
  15 C15            7.5976     4.3520    -4.2638 C.3     
  16 N16            8.8049     5.0327    -3.7820 N.am    
  17 C17            8.8032     5.0171    -2.4380 C.2     
  18 O18            9.6701     5.5024    -1.7370 O.2     
  19 C19           -1.3048    -0.7544     0.0110 C.3     
  20 C20            3.5846    -0.8540    -0.0363 C.3     
  21 Cl21           8.0746     4.5686     0.7340 Cl      
  22 N22            1.0960     3.3927     0.0094 N.pl3   
  23 C23            9.4895     7.0936    -4.9068 C.3     
  24 C24            9.8413     5.6312    -4.6268 C.3     
  25 H25            3.5250     3.0122     0.4984 H       
  26 H26            4.4033     1.4641     0.4817 H       
  27 H27            5.0824     2.9169    -3.6990 H       
  28 H28            5.6037     3.1748     0.5396 H       
  29 H29            7.8709     3.4860    -4.8667 H       
  30 H30            6.9881     5.0399    -4.8498 H       
  31 H31           -1.6301    -0.9299    -1.0145 H       
  32 H32           -1.1717    -1.7099     0.5184 H       
  33 H33           -2.0579    -0.1663     0.5355 H       
  34 H34            3.8842    -1.0395    -1.0677 H       
  35 H35            4.3658    -0.2898     0.4731 H       
  36 H36            3.4315    -1.8048     0.4743 H       
  37 H37            1.9280     3.8913     0.0038 H       
  38 H38            0.2482     3.8639     0.0200 H       
  39 H39           10.2606     7.5390    -5.5354 H       
  40 H40            8.5288     7.1445    -5.4193 H       
  41 H41            9.4283     7.6393    -3.9652 H       
  42 H42           10.8020     5.5804    -4.1143 H       
  43 H43            9.9025     5.0855    -5.5684 H       
@<TRIPOS>BOND
   1    1    2 ar
   2    1    6 ar
   3    2    3 ar
   4    2   19 1
   5    3    4 ar
   6    4    5 ar
   7    4   20 1
   8    5    6 ar
   9    5    7 1
  10    6   22 1
  11    7    8 1
  12    7   25 1
  13    7   26 1
  14    8    9 1
  15    9   10 ar
  16    9   14 ar
  17   10   11 ar
  18   10   27 1
  19   11   12 ar
  20   11   15 1
  21   12   13 ar
  22   12   17 1
  23   13   14 ar
  24   13   21 1
  25   14   28 1
  26   15   16 1
  27   15   29 1
  28   15   30 1
  29   16   17 am
  30   16   24 1
  31   17   18 2
  32   19   31 1
  33   19   32 1
  34   19   33 1
  35   20   34 1
  36   20   35 1
  37   20   36 1
  38   22   37 1
  39   22   38 1
  40   23   24 1
  41   23   39 1
  42   23   40 1
  43   23   41 1
  44   24   42 1
  45   24   43 1

#	End of record

