#	Name: ASD05720219
#	Creating user name:	WinNT
#	Creation time:	15. 06. 2019 21:02

#	Modifying user name:	WinNT
#	Modification time:	15. 06. 2019 21:02

#	Program:	/corina/corina34_cracker 3.40 0067  02.08.2006

@<TRIPOS>MOLECULE
ASD05720219
  54   57    0    0    0
SMALL
NO_CHARGES


@<TRIPOS>ATOM
   1 C1            -0.9409     4.1655    -1.6224 C.2     
   2 N2            -1.6316     5.1309    -2.2372 N.2     
   3 C3            -1.0112     6.1445    -2.8088 C.2     
   4 C4             0.3949     6.2199    -2.7767 C.2     
   5 C5             1.0978     5.2451    -2.1556 C.2     
   6 N6             0.4270     4.2069    -1.5720 N.pl3   
   7 N7             0.8668     3.0772    -0.8729 N.2     
   8 C8            -0.1697     2.3655    -0.5044 C.2     
   9 C9            -1.3360     3.0046    -0.9437 C.2     
  10 O10           -1.7270     7.1138    -3.4279 O.3     
  11 C11           -2.7248     2.5403    -0.7325 C.ar    
  12 C12           -3.0754     1.2239    -1.0403 C.ar    
  13 C13           -4.3671     0.7920    -0.8443 C.ar    
  14 C14           -5.3279     1.6703    -0.3370 C.ar    
  15 C15           -4.9769     2.9870    -0.0287 C.ar    
  16 C16           -3.6837     3.4170    -0.2200 C.ar    
  17 C17           -6.7151     1.2069    -0.1269 C.2     
  18 N18           -7.6184     1.7963     0.6257 N.2     
  19 C19           -8.7579     1.0963     0.5775 C.2     
  20 C20           -8.5703     0.0325    -0.2293 C.2     
  21 N21           -7.2802     0.0972    -0.6853 N.pl3   
  22 C22           -6.6296    -0.8473    -1.5968 C.3     
  23 O23           -7.5904    -1.7956    -2.0655 O.3     
  24 C24           -7.0560    -2.7678    -2.9662 C.3     
  25 C25           -8.1671    -3.7257    -3.4007 C.3     
  26 Si26          -7.4704    -4.9931    -4.5750 Si      
  27 C27           -6.1206    -5.9536    -3.7227 C.3     
  28 C28           -8.8233    -6.1594    -5.1041 C.3     
  29 C29           -6.7704    -4.1338    -6.0724 C.3     
  30 H30            0.9072     7.0480    -3.2438 H       
  31 H31            2.1764     5.2865    -2.1215 H       
  32 H32           -0.1313     1.4397     0.0503 H       
  33 H33           -2.6836     6.9760    -3.3984 H       
  34 H34           -2.3326     0.5450    -1.4324 H       
  35 H35           -4.6383    -0.2258    -1.0830 H       
  36 H36           -5.7194     3.6662     0.3634 H       
  37 H37           -3.4114     4.4336     0.0221 H       
  38 H38           -9.6723     1.3415     1.0973 H       
  39 H39           -9.3005    -0.7248    -0.4735 H       
  40 H40           -6.2113    -0.3047    -2.4445 H       
  41 H41           -5.8311    -1.3694    -1.0697 H       
  42 H42           -6.6465    -2.2650    -3.8423 H       
  43 H43           -6.2663    -3.3297    -2.4675 H       
  44 H44           -8.5766    -4.2285    -2.5246 H       
  45 H45           -8.9568    -3.1637    -3.8994 H       
  46 H46           -6.5301    -6.4563    -2.8465 H       
  47 H47           -5.7129    -6.6951    -4.4097 H       
  48 H48           -5.3290    -5.2712    -3.4131 H       
  49 H49           -9.6130    -5.5975    -5.6028 H       
  50 H50           -8.4156    -6.9010    -5.7911 H       
  51 H51           -9.2328    -6.6622    -4.2280 H       
  52 H52           -5.9788    -3.4514    -5.7629 H       
  53 H53           -6.3628    -4.8753    -6.7595 H       
  54 H54           -7.5601    -3.5718    -6.5711 H       
@<TRIPOS>BOND
   1    1    2 1
   2    1    6 1
   3    1    9 2
   4    2    3 2
   5    3    4 1
   6    3   10 1
   7    4    5 2
   8    4   30 1
   9    5    6 1
  10    5   31 1
  11    6    7 1
  12    7    8 2
  13    8    9 1
  14    8   32 1
  15    9   11 1
  16   10   33 1
  17   11   12 ar
  18   11   16 ar
  19   12   13 ar
  20   12   34 1
  21   13   14 ar
  22   13   35 1
  23   14   15 ar
  24   14   17 1
  25   15   16 ar
  26   15   36 1
  27   16   37 1
  28   17   18 2
  29   17   21 1
  30   18   19 1
  31   19   20 2
  32   19   38 1
  33   20   21 1
  34   20   39 1
  35   21   22 1
  36   22   23 1
  37   22   40 1
  38   22   41 1
  39   23   24 1
  40   24   25 1
  41   24   42 1
  42   24   43 1
  43   25   26 1
  44   25   44 1
  45   25   45 1
  46   26   27 1
  47   26   28 1
  48   26   29 1
  49   27   46 1
  50   27   47 1
  51   27   48 1
  52   28   49 1
  53   28   50 1
  54   28   51 1
  55   29   52 1
  56   29   53 1
  57   29   54 1

#	End of record

