#	Name: ASD01903047
#	Creating user name:	WinNT
#	Creation time:	15. 06. 2019 19:54

#	Modifying user name:	WinNT
#	Modification time:	15. 06. 2019 19:54

#	Program:	/corina/corina34_cracker 3.40 0067  02.08.2006

@<TRIPOS>MOLECULE
ASD01903047
  29   31    0    0    0
SMALL
NO_CHARGES


@<TRIPOS>ATOM
   1 C1             0.0400     1.2967    -0.3036 C.2     
   2 N2             0.0277    -0.0103    -0.1613 N.2     
   3 C3            -1.0757    -0.6375    -0.5231 C.2     
   4 N4            -2.0591     0.0893    -0.9903 N.2     
   5 S5            -1.5071     1.6958    -0.9474 S.3     
   6 C6            -1.1970    -2.1122    -0.4051 C.2     
   7 N7             1.0721     2.1658     0.0035 N.pl3   
   8 C8            -2.2847    -2.8618    -0.7471 C.2     
   9 N9            -1.9894    -4.1512    -0.4872 N.pl3   
  10 N10           -0.6888    -4.2071     0.0281 N.2     
  11 C11           -0.2079    -2.9930     0.0745 C.2     
  12 C12           -3.5813    -2.3423    -1.3127 C.3     
  13 C13            0.8751     3.5470    -0.0928 C.ar    
  14 C14            1.8755     4.3586    -0.6148 C.ar    
  15 C15            1.6771     5.7232    -0.7082 C.ar    
  16 C16            0.4852     6.2805    -0.2831 C.ar    
  17 C17           -0.5117     5.4754     0.2370 C.ar    
  18 C18           -0.3227     4.1103     0.3277 C.ar    
  19 Cl19           3.3723     3.6593    -1.1480 Cl      
  20 H20            1.9321     1.8171     0.2855 H       
  21 H21           -2.5768    -4.9094    -0.6320 H       
  22 H22            0.7743    -2.7130     0.4255 H       
  23 H23           -3.5214    -2.3236    -2.4009 H       
  24 H24           -4.3990    -2.9942    -1.0051 H       
  25 H25           -3.7615    -1.3335    -0.9413 H       
  26 H26            2.4539     6.3548    -1.1133 H       
  27 H27            0.3326     7.3471    -0.3572 H       
  28 H28           -1.4411     5.9143     0.5687 H       
  29 H29           -1.1019     3.4825     0.7341 H       
@<TRIPOS>BOND
   1    1    2 2
   2    1    7 1
   3    1    5 1
   4    2    3 1
   5    3    4 2
   6    3    6 1
   7    4    5 1
   8    6    8 2
   9    6   11 1
  10    7   13 1
  11    7   20 1
  12    8    9 1
  13    8   12 1
  14    9   10 1
  15    9   21 1
  16   10   11 2
  17   11   22 1
  18   12   23 1
  19   12   24 1
  20   12   25 1
  21   13   14 ar
  22   13   18 ar
  23   14   15 ar
  24   14   19 1
  25   15   16 ar
  26   15   26 1
  27   16   17 ar
  28   16   27 1
  29   17   18 ar
  30   17   28 1
  31   18   29 1

#	End of record

