#	Name: ASD03331733
#	Creating user name:	WinNT
#	Creation time:	15. 06. 2019 20:39

#	Modifying user name:	WinNT
#	Modification time:	15. 06. 2019 20:39

#	Program:	/corina/corina34_cracker 3.40 0067  02.08.2006

@<TRIPOS>MOLECULE
ASD03331733
  45   48    0    0    0
SMALL
NO_CHARGES


@<TRIPOS>ATOM
   1 C1            -0.0173     1.3856     0.0693 C.ar    
   2 C2            -0.0001     0.0045     0.1266 C.ar    
   3 C3             1.2054    -0.6719     0.1359 C.ar    
   4 C4             2.3937     0.0327     0.0875 C.ar    
   5 C5             2.3765     1.4138     0.0294 C.ar    
   6 C6             1.1710     2.0902     0.0215 C.ar    
   7 C7             3.6720     2.1819    -0.0228 C.3     
   8 C8             3.9565     2.5909    -1.4451 C.2     
   9 C9             3.2335     3.5960    -2.2225 C.ar    
  10 N10            4.8805     2.7189    -3.4727 N.pl3   
  11 C11            4.9357     2.1007    -2.2451 C.2     
  12 C12            2.1478     4.4329    -1.9482 C.ar    
  13 C13            1.6881     5.2953    -2.9232 C.ar    
  14 C14            2.3009     5.3327    -4.1729 C.ar    
  15 C15            3.3711     4.5124    -4.4549 C.ar    
  16 C16            3.8504     3.6366    -3.4872 C.ar    
  17 C17            5.9136     1.0614    -1.8570 C.ar    
  18 N18            3.5649     3.3775     0.8170 N.pl3   
  19 O19            4.2621     3.4890     1.8095 O.2     
  20 O20            2.7788     4.2601     0.5227 O.2     
  21 O21            0.6321     6.1114    -2.6622 O.3     
  22 C22            0.2071     6.9793    -3.7149 C.3     
  23 C23            6.5489     1.1255    -0.6161 C.ar    
  24 C24            6.2008     0.0093    -2.7276 C.ar    
  25 C25            7.1137    -0.9573    -2.3593 C.ar    
  26 C26            7.7437    -0.8854    -1.1296 C.ar    
  27 C27            7.4598     0.1525    -0.2598 C.ar    
  28 H28           -0.9592     1.9139     0.0575 H       
  29 H29           -0.9285    -0.5460     0.1643 H       
  30 H30            1.2189    -1.7508     0.1813 H       
  31 H31            3.3356    -0.4957     0.0955 H       
  32 H32            1.1576     3.1692    -0.0235 H       
  33 H33            4.4828     1.5522     0.3433 H       
  34 H34            5.4777     2.5388    -4.2155 H       
  35 H35            1.6713     4.4047    -0.9794 H       
  36 H36            1.9334     6.0111    -4.9287 H       
  37 H37            3.8380     4.5496    -5.4280 H       
  38 H38            1.0270     7.6413    -3.9934 H       
  39 H39           -0.0891     6.3844    -4.5789 H       
  40 H40           -0.6409     7.5741    -3.3755 H       
  41 H41            6.3282     1.9351     0.0637 H       
  42 H42            5.7092    -0.0483    -3.6875 H       
  43 H43            7.3369    -1.7720    -3.0322 H       
  44 H44            8.4570    -1.6449    -0.8457 H       
  45 H45            7.9522     0.2009     0.7002 H       
@<TRIPOS>BOND
   1    1    2 ar
   2    1    6 ar
   3    1   28 1
   4    2    3 ar
   5    2   29 1
   6    3    4 ar
   7    3   30 1
   8    4    5 ar
   9    4   31 1
  10    5    6 ar
  11    5    7 1
  12    6   32 1
  13    7    8 1
  14    7   18 1
  15    7   33 1
  16    8    9 1
  17    8   11 2
  18    9   12 ar
  19    9   16 ar
  20   10   11 1
  21   10   16 1
  22   10   34 1
  23   11   17 1
  24   12   13 ar
  25   12   35 1
  26   13   14 ar
  27   13   21 1
  28   14   15 ar
  29   14   36 1
  30   15   16 ar
  31   15   37 1
  32   17   24 ar
  33   17   23 ar
  34   18   19 2
  35   18   20 2
  36   21   22 1
  37   22   38 1
  38   22   39 1
  39   22   40 1
  40   23   27 ar
  41   23   41 1
  42   24   25 ar
  43   24   42 1
  44   25   26 ar
  45   25   43 1
  46   26   27 ar
  47   26   44 1
  48   27   45 1

#	End of record

