#	Name: ASD01940018
#	Creating user name:	WinNT
#	Creation time:	15. 06. 2019 20:11

#	Modifying user name:	WinNT
#	Modification time:	15. 06. 2019 20:11

#	Program:	/corina/corina34_cracker 3.40 0067  02.08.2006

@<TRIPOS>MOLECULE
ASD01940018
  50   52    0    0    0
SMALL
NO_CHARGES


@<TRIPOS>ATOM
   1 C1            -0.4344     1.3675     0.0704 C.ar    
   2 C2            -0.4815     0.1612    -0.6164 C.ar    
   3 C3            -1.6364    -0.5955    -0.6035 C.ar    
   4 C4            -2.7497    -0.1510     0.0950 C.ar    
   5 C5            -2.7035     1.0539     0.7813 C.ar    
   6 C6            -1.5474     1.8088     0.7745 C.ar    
   7 N7             0.7357     2.1351     0.0578 N.pl3   
   8 C8             0.6569     3.5161     0.0563 C.2     
   9 C9             1.7051     4.4184     0.1686 C.2     
  10 C10            1.2995     5.7535     0.1332 C.2     
  11 N11            0.0270     5.9766     0.0031 N.2     
  12 S12           -0.7603     4.4792    -0.0928 S.3     
  13 O13            2.1937     6.7713     0.2307 O.3     
  14 C14            3.1110     4.0067     0.3120 C.2     
  15 N15            3.6470     3.8085     1.5674 N.pl3   
  16 N16            3.8515     3.8290    -0.7502 N.2     
  17 C17            5.0462     3.3987     1.7101 C.3     
  18 C18            5.9454     4.6363     1.6822 C.3     
  19 C19            5.2297     2.6650     3.0401 C.3     
  20 O20            4.9884     3.5690     4.1202 O.3     
  21 O21           -3.8868    -0.8963     0.1065 O.3     
  22 C22           -3.9209    -2.0198    -0.6570 C.ar    
  23 C23           -3.2497    -3.1610    -0.2436 C.ar    
  24 C24           -3.2866    -4.3038    -1.0229 C.ar    
  25 C25           -3.9926    -4.3072    -2.2142 C.ar    
  26 C26           -4.6615    -3.1697    -2.6268 C.ar    
  27 C27           -4.6323    -2.0287    -1.8488 C.ar    
  28 F28           -2.6334    -5.4163    -0.6218 F       
  29 C29           -5.4281    -3.1763    -3.9243 C.3     
  30 F30           -5.3155    -4.4343    -4.5259 F       
  31 F31           -6.7758    -2.8994    -3.6710 F       
  32 F32           -4.9045    -2.2015    -4.7803 F       
  33 H33            0.3848    -0.1847    -1.1607 H       
  34 H34           -1.6731    -1.5336    -1.1375 H       
  35 H35           -3.5707     1.3995     1.3245 H       
  36 H36           -1.5115     2.7467     1.3088 H       
  37 H37            1.6019     1.6987     0.0501 H       
  38 H38            2.5435     7.0704    -0.6198 H       
  39 H39            3.0974     3.9404     2.3558 H       
  40 H40            4.7779     3.5577    -0.6557 H       
  41 H41            5.3160     2.7350     0.8887 H       
  42 H42            5.8147     5.1591     0.7347 H       
  43 H43            5.6756     5.3001     2.5036 H       
  44 H44            6.9865     4.3314     1.7884 H       
  45 H45            4.5257     1.8347     3.0971 H       
  46 H46            6.2483     2.2828     3.1068 H       
  47 H47            5.0871     3.1709     4.9959 H       
  48 H48           -2.6987    -3.1575     0.6853 H       
  49 H49           -4.0206    -5.1995    -2.8220 H       
  50 H50           -5.1551    -1.1409    -2.1724 H       
@<TRIPOS>BOND
   1    1    2 ar
   2    1    7 1
   3    1    6 ar
   4    2    3 ar
   5    2   33 1
   6    3    4 ar
   7    3   34 1
   8    4    5 ar
   9    4   21 1
  10    5    6 ar
  11    5   35 1
  12    6   36 1
  13    7    8 1
  14    7   37 1
  15    8    9 2
  16    8   12 1
  17    9   10 1
  18    9   14 1
  19   10   11 2
  20   10   13 1
  21   11   12 1
  22   13   38 1
  23   14   15 1
  24   14   16 2
  25   15   17 1
  26   15   39 1
  27   16   40 1
  28   17   18 1
  29   17   19 1
  30   17   41 1
  31   18   42 1
  32   18   43 1
  33   18   44 1
  34   19   20 1
  35   19   45 1
  36   19   46 1
  37   20   47 1
  38   21   22 1
  39   22   23 ar
  40   22   27 ar
  41   23   24 ar
  42   23   48 1
  43   24   25 ar
  44   24   28 1
  45   25   26 ar
  46   25   49 1
  47   26   27 ar
  48   26   29 1
  49   27   50 1
  50   29   30 1
  51   29   31 1
  52   29   32 1

#	End of record

