#	Name: ASD02198575
#	Creating user name:	WinNT
#	Creation time:	15. 06. 2019 20:19

#	Modifying user name:	WinNT
#	Modification time:	15. 06. 2019 20:19

#	Program:	/corina/corina34_cracker 3.40 0067  02.08.2006

@<TRIPOS>MOLECULE
ASD02198575
  54   58    0    0    0
SMALL
NO_CHARGES


@<TRIPOS>ATOM
   1 C1             0.0072     1.5097     0.1332 C.2     
   2 C2             0.0744     0.1698    -0.0951 C.2     
   3 N3            -1.0522    -0.5605    -0.2644 N.pl3   
   4 N4            -2.2302    -0.0571    -0.2230 N.2     
   5 C5            -2.4377     1.2258    -0.0100 C.2     
   6 C6            -1.2792     2.1067     0.1920 C.2     
   7 C7            -0.9248    -1.9334    -0.4965 C.ar    
   8 C8            -1.3870    -3.8618    -1.8510 C.ar    
   9 C9            -0.6718    -4.6554    -0.9563 C.ar    
  10 C10           -0.0889    -4.0798     0.1717 C.ar    
  11 C11           -0.2162    -2.7261     0.3988 C.ar    
  12 C12           -3.8109     1.7686     0.0306 C.2     
  13 N13           -4.3724     2.4812     1.0526 N.pl3   
  14 N14           -5.6845     2.7992     0.6804 N.2     
  15 C15           -5.9156     2.3062    -0.5102 C.2     
  16 C16           -4.7647     1.6569    -0.9571 C.2     
  17 C17           -3.7477     2.8307     2.2565 C.ar    
  18 C18           -2.9533     1.9065     2.9221 C.ar    
  19 O19           -1.4170     3.3046     0.3938 O.2     
  20 C20           -3.9169     4.1041     2.7840 C.ar    
  21 C21           -3.2995     4.4457     3.9713 C.ar    
  22 C22           -2.5137     3.5212     4.6347 C.ar    
  23 C23           -2.3386     2.2542     4.1090 C.ar    
  24 C24           -1.5125    -2.5060    -1.6212 C.ar    
  25 F25           -2.2059    -1.7353    -2.4874 F       
  26 O26            1.1346     2.2509     0.3048 O.3     
  27 C27            2.3829     1.5589     0.2342 C.3     
  28 C28           -0.5359    -6.1129    -1.2009 C.2     
  29 C29            0.6012    -6.8217    -1.4682 C.2     
  30 C30           -1.5585    -7.1029    -1.2061 C.2     
  31 N31           -0.9702    -8.2330    -1.4654 N.2     
  32 O32            0.2216    -8.0986    -1.6134 O.3     
  33 C33           -3.0291    -6.8850    -0.9594 C.3     
  34 C34            2.0018    -6.2764    -1.5786 C.3     
  35 H35            1.0378    -0.3161    -0.1421 H       
  36 H36           -1.8390    -4.3060    -2.7256 H       
  37 H37            0.4653    -4.6940     0.8660 H       
  38 H38            0.2353    -2.2809     1.2730 H       
  39 H39           -6.8425     2.3920    -1.0578 H       
  40 H40           -4.6452     1.1514    -1.9040 H       
  41 H41           -2.8165     0.9167     2.5123 H       
  42 H42           -4.5302     4.8267     2.2662 H       
  43 H43           -3.4304     5.4360     4.3819 H       
  44 H44           -2.0320     3.7908     5.5630 H       
  45 H45           -1.7243     1.5344     4.6295 H       
  46 H46            2.4168     0.7909     1.0069 H       
  47 H47            2.4851     1.0930    -0.7459 H       
  48 H48            3.1989     2.2651     0.3876 H       
  49 H49           -3.5292    -6.6768    -1.9053 H       
  50 H50           -3.4589    -7.7805    -0.5105 H       
  51 H51           -3.1629    -6.0400    -0.2840 H       
  52 H52            2.4793    -6.3003    -0.5991 H       
  53 H53            2.5750    -6.8860    -2.2771 H       
  54 H54            1.9642    -5.2486    -1.9396 H       
@<TRIPOS>BOND
   1    1    2 2
   2    1   26 1
   3    1    6 1
   4    2    3 1
   5    2   35 1
   6    3    4 1
   7    3    7 1
   8    4    5 2
   9    5    6 1
  10    5   12 1
  11    6   19 2
  12    7   24 ar
  13    7   11 ar
  14    8    9 ar
  15    8   24 ar
  16    8   36 1
  17    9   10 ar
  18    9   28 1
  19   10   11 ar
  20   10   37 1
  21   11   38 1
  22   12   13 1
  23   12   16 2
  24   13   14 1
  25   13   17 1
  26   14   15 2
  27   15   16 1
  28   15   39 1
  29   16   40 1
  30   17   20 ar
  31   17   18 ar
  32   18   23 ar
  33   18   41 1
  34   20   21 ar
  35   20   42 1
  36   21   22 ar
  37   21   43 1
  38   22   23 ar
  39   22   44 1
  40   23   45 1
  41   24   25 1
  42   26   27 1
  43   27   46 1
  44   27   47 1
  45   27   48 1
  46   28   29 2
  47   28   30 1
  48   29   34 1
  49   29   32 1
  50   30   31 2
  51   30   33 1
  52   31   32 1
  53   33   49 1
  54   33   50 1
  55   33   51 1
  56   34   52 1
  57   34   53 1
  58   34   54 1

#	End of record

