#	Name: ASD01411173
#	Creating user name:	WinNT
#	Creation time:	15. 06. 2019 19:19

#	Modifying user name:	WinNT
#	Modification time:	15. 06. 2019 19:19

#	Program:	/corina/corina34_cracker 3.40 0067  02.08.2006

@<TRIPOS>MOLECULE
ASD01411173
  70   73    0    0    0
SMALL
NO_CHARGES


@<TRIPOS>ATOM
   1 C1            -0.1004     1.4271    -0.1649 C.ar    
   2 C2            -0.1424     0.0556    -0.1942 C.ar    
   3 C3             1.0223    -0.7019    -0.0876 C.ar    
   4 C4             2.2418    -0.0545     0.0568 C.ar    
   5 C5             2.2898     1.3255     0.0892 C.ar    
   6 C6             1.1246     2.0724    -0.0222 C.ar    
   7 P7            -1.7133    -0.8436    -0.3674 P.3     
   8 N8            -1.4029    -2.4207    -0.0065 N.2     
   9 C9            -0.1753    -2.8349     0.0702 C.2     
  10 N10            0.9474    -2.0926    -0.1339 N.pl3   
  11 C11            0.0237    -4.2553     0.4141 C.2     
  12 C12           -0.9697    -5.1548     0.6545 C.2     
  13 C13           -0.2938    -6.4709     0.9632 C.3     
  14 N14            1.1488    -6.2157     0.8716 N.am    
  15 C15            1.3213    -4.9225     0.5447 C.2     
  16 C16            2.2132    -7.1981     1.0911 C.3     
  17 C17            2.5555    -7.8837    -0.2331 C.3     
  18 C18            3.6671    -8.9098    -0.0038 C.3     
  19 C19            3.1936    -9.9576     1.0056 C.3     
  20 C20            4.0094    -9.5954    -1.3280 C.3     
  21 C21            4.9098    -8.2023     0.5404 C.3     
  22 O22           -2.7153    -0.2970     0.5748 O.2     
  23 O23           -2.2533    -0.7212    -1.8791 O.3     
  24 O24           -2.2928    -4.9185     0.6237 O.3     
  25 O25            2.4001    -4.3832     0.3846 O.2     
  26 N26            1.1818     3.4702     0.0085 N.am    
  27 S27            0.7003     4.2890     1.3650 S.o2    
  28 O28            0.9120     5.6567     1.0424 O.2     
  29 O29           -0.6044     3.7922     1.6296 O.2     
  30 C30            1.8594     3.7521     2.6530 C.3     
  31 C31           -2.5574     0.5304    -2.4981 C.3     
  32 C32           -3.0435     0.2873    -3.9283 C.3     
  33 C33           -0.6587    -6.9323     2.3756 C.3     
  34 C34           -0.0483    -8.2854     2.6355 C.2     
  35 S35            1.2363   -10.2220     3.6047 S.3     
  36 N36           -0.2514    -9.3222     1.8478 N.2     
  37 C37            0.7477    -8.5308     3.6805 C.2     
  38 C38            0.3252   -10.4298     2.1729 C.2     
  39 H39           -1.0105     2.0013    -0.2565 H       
  40 H40            3.1520    -0.6293     0.1442 H       
  41 H41            3.2398     1.8268     0.2018 H       
  42 H42            1.7668    -2.5738    -0.3288 H       
  43 H43           -0.5888    -7.2248     0.2333 H       
  44 H44            3.0985    -6.6941     1.4789 H       
  45 H45            1.8759    -7.9446     1.8102 H       
  46 H46            1.6702    -8.3877    -0.6208 H       
  47 H47            2.8928    -7.1372    -0.9522 H       
  48 H48            2.3083   -10.4616     0.6178 H       
  49 H49            3.9855   -10.6885     1.1689 H       
  50 H50            2.9497    -9.4692     1.9490 H       
  51 H51            4.3467    -8.8489    -2.0471 H       
  52 H52            4.8013   -10.3263    -1.1647 H       
  53 H53            3.1241   -10.0993    -1.7158 H       
  54 H54            4.6659    -7.7139     1.4839 H       
  55 H55            5.7017    -8.9333     0.7038 H       
  56 H56            5.2471    -7.4558    -0.1786 H       
  57 H57           -2.5731    -4.0183     0.4088 H       
  58 H58            1.5034     3.9596    -0.7648 H       
  59 H59            2.8815     3.9323     2.3201 H       
  60 H60            1.6710     4.3135     3.5682 H       
  61 H61            1.7220     2.6879     2.8447 H       
  62 H62           -3.3380     1.0365    -1.9301 H       
  63 H63           -1.6624     1.1522    -2.5193 H       
  64 H64           -2.2629    -0.2188    -4.4963 H       
  65 H65           -3.9385    -0.3345    -3.9071 H       
  66 H66           -3.2755     1.2420    -4.4004 H       
  67 H67           -0.2761    -6.2155     3.1022 H       
  68 H68           -1.7428    -6.9990     2.4673 H       
  69 H69            1.0403    -7.8182     4.4375 H       
  70 H70            0.2437   -11.3544     1.6207 H       
@<TRIPOS>BOND
   1    1    2 ar
   2    1    6 ar
   3    1   39 1
   4    2    3 ar
   5    2    7 1
   6    3    4 ar
   7    3   10 1
   8    4    5 ar
   9    4   40 1
  10    5    6 ar
  11    5   41 1
  12    6   26 1
  13    7    8 1
  14    7   22 2
  15    7   23 1
  16    8    9 2
  17    9   10 1
  18    9   11 1
  19   10   42 1
  20   11   12 2
  21   11   15 1
  22   12   13 1
  23   12   24 1
  24   13   14 1
  25   13   33 1
  26   13   43 1
  27   14   15 am
  28   14   16 1
  29   15   25 2
  30   16   17 1
  31   16   44 1
  32   16   45 1
  33   17   18 1
  34   17   46 1
  35   17   47 1
  36   18   19 1
  37   18   20 1
  38   18   21 1
  39   19   48 1
  40   19   49 1
  41   19   50 1
  42   20   51 1
  43   20   52 1
  44   20   53 1
  45   21   54 1
  46   21   55 1
  47   21   56 1
  48   23   31 1
  49   24   57 1
  50   26   27 am
  51   26   58 1
  52   27   28 2
  53   27   29 2
  54   27   30 1
  55   30   59 1
  56   30   60 1
  57   30   61 1
  58   31   32 1
  59   31   62 1
  60   31   63 1
  61   32   64 1
  62   32   65 1
  63   32   66 1
  64   33   34 1
  65   33   67 1
  66   33   68 1
  67   34   37 2
  68   34   36 1
  69   35   38 1
  70   35   37 1
  71   36   38 2
  72   37   69 1
  73   38   70 1

#	End of record

