#	Name: ASD01916661
#	Creating user name:	WinNT
#	Creation time:	15. 06. 2019 20:07

#	Modifying user name:	WinNT
#	Modification time:	15. 06. 2019 20:07

#	Program:	/corina/corina34_cracker 3.40 0067  02.08.2006

@<TRIPOS>MOLECULE
ASD01916661
  23   24    0    0    0
SMALL
NO_CHARGES


@<TRIPOS>ATOM
   1 C1            -0.0172     1.4137     0.0098 C.2     
   2 C2             0.0021    -0.0041     0.0020 C.2     
   3 C3             1.1925    -0.6517    -0.0128 C.2     
   4 C4             2.3935     0.0870    -0.0203 C.2     
   5 C5             2.3702     1.4313    -0.0124 C.2     
   6 N6             1.1760     2.1121     0.0022 N.am    
   7 N7            -0.4488     3.5658     0.0233 N.am    
   8 N8            -1.0043     2.2789     0.0186 N.2     
   9 C9             0.8931     3.4303     0.0120 C.2     
  10 O10            1.7060     4.3386     0.0094 O.2     
  11 C11           -1.1911     4.8288     0.0325 C.3     
  12 C12           -1.4551     5.2757    -1.4067 C.3     
  13 C13           -2.2009     6.5447    -1.3975 C.1     
  14 C14           -2.7958     7.5568    -1.3901 C.1     
  15 H15           -0.9225    -0.5622     0.0082 H       
  16 H16            1.2211    -1.7313    -0.0185 H       
  17 H17            3.3407    -0.4317    -0.0322 H       
  18 H18            3.2992     1.9820    -0.0180 H       
  19 H19           -2.1404     4.6885     0.5494 H       
  20 H20           -0.6059     5.5904     0.5479 H       
  21 H21           -0.5058     5.4159    -1.9236 H       
  22 H22           -2.0404     4.5141    -1.9221 H       
  23 H23           -3.3277     8.4621    -1.3835 H       
@<TRIPOS>BOND
   1    1    2 1
   2    1    6 1
   3    1    8 2
   4    2    3 2
   5    2   15 1
   6    3    4 1
   7    3   16 1
   8    4    5 2
   9    4   17 1
  10    5    6 1
  11    5   18 1
  12    6    9 am
  13    7    8 1
  14    7    9 am
  15    7   11 1
  16    9   10 2
  17   11   12 1
  18   11   19 1
  19   11   20 1
  20   12   13 1
  21   12   21 1
  22   12   22 1
  23   13   14 3
  24   14   23 1

#	End of record

