#	Name: ASD05790049
#	Creating user name:	WinNT
#	Creation time:	15. 06. 2019 21:03

#	Modifying user name:	WinNT
#	Modification time:	15. 06. 2019 21:03

#	Program:	/corina/corina34_cracker 3.40 0067  02.08.2006

@<TRIPOS>MOLECULE
ASD05790049
  74   79    0    0    0
SMALL
NO_CHARGES


@<TRIPOS>ATOM
   1 C1            -0.1573     1.7919     0.3957 C.3     
   2 C2            -0.2825     0.2835     0.3947 C.2     
   3 C3             0.4253    -0.4892    -0.6948 C.3     
   4 C4             1.8966    -0.0562    -0.7378 C.3     
   5 C5             1.9704     1.4737    -0.8792 C.3     
   6 C6             1.3308     2.1494     0.3283 C.3     
   7 C7             2.5647    -0.7304    -1.9401 C.3     
   8 C8             1.8993    -0.2787    -3.2519 C.3     
   9 C9             2.0407     1.2273    -3.3385 C.3     
  10 C10            1.2505     1.8447    -2.1555 C.3     
  11 C11            1.3650     1.8996    -4.5376 C.3     
  12 C12            1.1267     3.3342    -4.0686 C.2     
  13 C13            1.2050     3.3173    -2.5372 C.3     
  14 C14            2.3083     1.8665    -5.7281 C.3     
  15 C15            1.7503     2.4836    -6.9643 C.3     
  16 C16            1.8129     3.9890    -7.0221 C.3     
  17 C17            0.7086     4.6425    -6.2152 C.3     
  18 C18            0.8509     4.3593    -4.7613 C.2     
  19 C19            1.6865     4.4424    -8.5045 C.3     
  20 C20            3.0125     5.1638    -8.7644 C.3     
  21 C21            3.9288     4.4706    -7.7163 C.3     
  22 O22            3.1073     4.4445    -6.5531 O.3     
  23 N23            3.6199     4.9311   -10.0681 N.3     
  24 C24            4.9053     5.6539   -10.1276 C.3     
  25 C25            5.8681     5.1886    -9.0393 C.3     
  26 C26            5.2147     5.2691    -7.6479 C.3     
  27 O27           -0.9291    -0.2865     1.2405 O.2     
  28 C28            3.4348     1.9039    -0.9858 C.3     
  29 C29            0.6096     5.5801    -3.9112 C.3     
  30 C30            1.5400     3.2320    -9.4288 C.3     
  31 C31            7.1151     6.0749    -9.0600 C.3     
  32 H32           -0.6741     2.2043    -0.4709 H       
  33 H33           -0.5915     2.1963     1.3101 H       
  34 H34            0.3652    -1.5567    -0.4829 H       
  35 H35           -0.0450    -0.2793    -1.6554 H       
  36 H36            2.3943    -0.3622     0.1823 H       
  37 H37            1.4401     3.2303     0.2388 H       
  38 H38            1.8265     1.8103     1.2380 H       
  39 H39            3.6209    -0.4620    -1.9618 H       
  40 H40            2.4711    -1.8121    -1.8435 H       
  41 H41            2.3981    -0.7468    -4.1005 H       
  42 H42            0.8440    -0.5517    -3.2450 H       
  43 H43            3.0917     1.5104    -3.2798 H       
  44 H44            0.2386     1.4399    -2.1380 H       
  45 H45            0.4190     1.4100    -4.7687 H       
  46 H46            0.3225     3.7919    -2.1083 H       
  47 H47            2.1093     3.8235    -2.1993 H       
  48 H48            3.2238     2.3938    -5.4600 H       
  49 H49            2.5602     0.8278    -5.9422 H       
  50 H50            2.2943     2.0856    -7.8208 H       
  51 H51            0.7073     2.1809    -7.0569 H       
  52 H52            0.7430     5.7205    -6.3728 H       
  53 H53           -0.2544     4.2646    -6.5587 H       
  54 H54            0.8462     5.1257    -8.6275 H       
  55 H55            2.9204     6.2300    -8.5576 H       
  56 H56            4.1472     3.4516    -8.0354 H       
  57 H57            3.7517     3.9447   -10.2347 H       
  58 H58            5.3628     5.4851   -11.1025 H       
  59 H59            4.7188     6.7208   -10.0044 H       
  60 H60            6.1604     4.1574    -9.2377 H       
  61 H61            4.9950     6.3075    -7.3998 H       
  62 H62            5.8800     4.8394    -6.8991 H       
  63 H63            3.9196     1.3471    -1.7876 H       
  64 H64            3.4851     2.9710    -1.2025 H       
  65 H65            3.9428     1.7002    -0.0432 H       
  66 H66            0.3771     6.4297    -4.5532 H       
  67 H67           -0.2269     5.3941    -3.2375 H       
  68 H68            1.5040     5.7993    -3.3280 H       
  69 H69            0.7169     2.6073    -9.0818 H       
  70 H70            1.3349     3.5726   -10.4437 H       
  71 H71            2.4639     2.6537    -9.4194 H       
  72 H72            6.8279     7.1103    -8.8768 H       
  73 H73            7.8069     5.7469    -8.2842 H       
  74 H74            7.5987     5.9989   -10.0339 H       
@<TRIPOS>BOND
   1    1    2 1
   2    1    6 1
   3    1   32 1
   4    1   33 1
   5    2    3 1
   6    2   27 2
   7    3    4 1
   8    3   34 1
   9    3   35 1
  10    4    5 1
  11    4    7 1
  12    4   36 1
  13    5    6 1
  14    5   28 1
  15    5   10 1
  16    6   37 1
  17    6   38 1
  18    7    8 1
  19    7   39 1
  20    7   40 1
  21    8    9 1
  22    8   41 1
  23    8   42 1
  24    9   10 1
  25    9   11 1
  26    9   43 1
  27   10   13 1
  28   10   44 1
  29   11   12 1
  30   11   14 1
  31   11   45 1
  32   12   13 1
  33   12   18 2
  34   13   46 1
  35   13   47 1
  36   14   15 1
  37   14   48 1
  38   14   49 1
  39   15   16 1
  40   15   50 1
  41   15   51 1
  42   16   17 1
  43   16   22 1
  44   16   19 1
  45   17   18 1
  46   17   52 1
  47   17   53 1
  48   18   29 1
  49   19   20 1
  50   19   30 1
  51   19   54 1
  52   20   21 1
  53   20   23 1
  54   20   55 1
  55   21   22 1
  56   21   26 1
  57   21   56 1
  58   23   24 1
  59   23   57 1
  60   24   25 1
  61   24   58 1
  62   24   59 1
  63   25   26 1
  64   25   31 1
  65   25   60 1
  66   26   61 1
  67   26   62 1
  68   28   63 1
  69   28   64 1
  70   28   65 1
  71   29   66 1
  72   29   67 1
  73   29   68 1
  74   30   69 1
  75   30   70 1
  76   30   71 1
  77   31   72 1
  78   31   73 1
  79   31   74 1

#	End of record

