#	Name: ASD01230116
#	Creating user name:	WinNT
#	Creation time:	15. 06. 2019 19:11

#	Modifying user name:	WinNT
#	Modification time:	15. 06. 2019 19:11

#	Program:	/corina/corina34_cracker 3.40 0067  02.08.2006

@<TRIPOS>MOLECULE
ASD01230116
  50   53    0    0    0
SMALL
NO_CHARGES


@<TRIPOS>ATOM
   1 C1            -0.0187     1.5258     0.0104 C.3     
   2 O2             1.3227     2.0216     0.0003 O.3     
   3 C3             1.4087     3.4490    -0.0247 C.3     
   4 C4             0.6876     3.9766    -1.2679 C.3     
   5 N5            -0.7041     3.5029    -1.2587 N.3     
   6 C6            -0.7543     2.0339    -1.2324 C.3     
   7 C7            -0.0028     4.2234    -4.4452 C.ar    
   8 C8            -0.8832     3.4611    -3.6818 C.ar    
   9 C9            -1.4487     4.0346    -2.4081 C.3     
  10 C10            0.5254     3.7331    -5.6023 C.ar    
  11 C11            0.1803     2.4457    -6.0324 C.ar    
  12 C12           -0.7154     1.6638    -5.2603 C.ar    
  13 C13           -1.2417     2.2044    -4.0690 C.ar    
  14 C14            0.7101     1.9037    -7.2310 C.ar    
  15 C15            0.3208     0.6211    -7.5917 C.ar    
  16 C16           -0.5682    -0.0851    -6.7739 C.ar    
  17 N17           -1.0506     0.4376    -5.6620 N.ar    
  18 F18           -2.0969     1.4798    -3.3147 F       
  19 C19           -0.9790    -1.4544    -7.1663 C.2     
  20 N20           -1.8344    -2.1496    -6.3908 N.am    
  21 O21           -0.5445    -1.9500    -8.1870 O.2     
  22 C22            1.6487     2.6818    -8.0715 C.2     
  23 C23            2.8512     2.2476    -8.5552 C.2     
  24 C24            1.4628     4.0042    -8.5247 C.2     
  25 N25            2.5053     4.3386    -9.2369 N.2     
  26 N26            3.3896     3.2538    -9.2704 N.pl3   
  27 C27            4.6791     3.2189    -9.9648 C.3     
  28 C28            0.0021    -0.0041     0.0020 C.3     
  29 F29            0.6787    -0.4675     1.1354 F       
  30 F30           -1.3104    -0.4883     0.0119 F       
  31 F31            0.6569    -0.4552    -1.1490 F       
  32 H32           -0.5301     1.8779     0.9063 H       
  33 H33            0.9386     3.8577     0.8697 H       
  34 H34            2.4559     3.7500    -0.0562 H       
  35 H35            0.7012     5.0665    -1.2615 H       
  36 H36            1.1906     3.6110    -2.1631 H       
  37 H37           -0.2743     1.6372    -2.1270 H       
  38 H38           -1.7932     1.7057    -1.2000 H       
  39 H39            0.2616     5.2182    -4.1184 H       
  40 H40           -2.4993     3.7577    -2.3199 H       
  41 H41           -1.3597     5.1208    -2.4277 H       
  42 H42            1.2068     4.3351    -6.1850 H       
  43 H43            0.7009     0.1717    -8.4972 H       
  44 H44           -2.1813    -1.7540    -5.5759 H       
  45 H45           -2.1032    -3.0456    -6.6475 H       
  46 H46            3.2900     1.2741    -8.3931 H       
  47 H47            0.6076     4.6309    -8.3190 H       
  48 H48            5.4638     3.5636    -9.2913 H       
  49 H49            4.8940     2.1982   -10.2809 H       
  50 H50            4.6388     3.8691   -10.8387 H       
@<TRIPOS>BOND
   1    1   28 1
   2    1    2 1
   3    1    6 1
   4    1   32 1
   5    2    3 1
   6    3    4 1
   7    3   33 1
   8    3   34 1
   9    4    5 1
  10    4   35 1
  11    4   36 1
  12    5    6 1
  13    5    9 1
  14    6   37 1
  15    6   38 1
  16    7    8 ar
  17    7   10 ar
  18    7   39 1
  19    8    9 1
  20    8   13 ar
  21    9   40 1
  22    9   41 1
  23   10   11 ar
  24   10   42 1
  25   11   12 ar
  26   11   14 ar
  27   12   13 ar
  28   12   17 ar
  29   13   18 1
  30   14   15 ar
  31   14   22 1
  32   15   16 ar
  33   15   43 1
  34   16   17 ar
  35   16   19 1
  36   19   20 am
  37   19   21 2
  38   20   44 1
  39   20   45 1
  40   22   23 2
  41   22   24 1
  42   23   26 1
  43   23   46 1
  44   24   25 2
  45   24   47 1
  46   25   26 1
  47   26   27 1
  48   27   48 1
  49   27   49 1
  50   27   50 1
  51   28   29 1
  52   28   30 1
  53   28   31 1

#	End of record

