#	Name: ASD05130113
#	Creating user name:	WinNT
#	Creation time:	15. 06. 2019 20:56

#	Modifying user name:	WinNT
#	Modification time:	15. 06. 2019 20:56

#	Program:	/corina/corina34_cracker 3.40 0067  02.08.2006

@<TRIPOS>MOLECULE
ASD05130113
  74   78    0    0    0
SMALL
NO_CHARGES


@<TRIPOS>ATOM
   1 N1            -0.1623     1.5511     0.1044 N.am    
   2 C2             0.0503     0.4234     0.8111 C.2     
   3 O3             1.1175     0.2459     1.3662 O.2     
   4 N4            -0.9199    -0.5077     0.9025 N.am    
   5 C5            -0.6640    -1.7248     1.5463 C.ar    
   6 C6            -1.6749    -2.3643     2.2517 C.ar    
   7 C7            -1.4205    -3.5643     2.8858 C.ar    
   8 C8            -0.1581    -4.1299     2.8191 C.ar    
   9 C9             0.8513    -3.4937     2.1168 C.ar    
  10 C10            0.5991    -2.2965     1.4755 C.ar    
  11 C11           -2.5172    -4.2587     3.6514 C.3     
  12 N12           -3.0019    -5.4094     2.8774 N.3     
  13 C13           -3.8990    -6.2473     3.6852 C.3     
  14 C14           -4.4433    -7.3874     2.8213 C.3     
  15 N15           -3.3220    -8.1775     2.2943 N.3     
  16 C16           -2.4248    -7.3396     1.4864 C.3     
  17 C17           -1.8805    -6.1995     2.3503 C.3     
  18 C18           -3.8066    -9.3282     1.5203 C.3     
  19 F19            0.0889    -5.3038     3.4406 F       
  20 C20            0.8116     2.5583     0.0824 C.ar    
  21 C21            0.4349     3.8870    -0.0894 C.ar    
  22 C22            1.3936     4.8844    -0.1113 C.ar    
  23 C23            2.7299     4.5663     0.0374 C.ar    
  24 C24            3.1154     3.2364     0.2101 C.ar    
  25 C25            2.1489     2.2321     0.2374 C.ar    
  26 F26           -0.8703     4.2037    -0.2358 F       
  27 N27            6.5380     2.8539     1.7792 N.am    
  28 C28            5.2354     3.1662     1.6334 C.2     
  29 C29            4.5479     2.8930     0.3693 C.2     
  30 C30            5.2371     2.3183    -0.6636 C.2     
  31 C31            6.6044     1.9995    -0.4860 C.ar    
  32 C32            7.3482     1.4109    -1.5160 C.ar    
  33 N33            8.6182     1.1213    -1.3347 N.ar    
  34 C34            9.2441     1.3682    -0.1888 C.ar    
  35 C35            8.5821     1.9494     0.8833 C.ar    
  36 C36            7.2381     2.2757     0.7454 C.ar    
  37 O37            4.6270     3.6774     2.5567 O.2     
  38 N38           10.5856     1.0381    -0.0617 N.pl3   
  39 C39           11.2895     1.3040     1.1952 C.3     
  40 C40            7.2159     3.1377     3.0465 C.3     
  41 C41            7.0840     1.9303     3.9770 C.3     
  42 Cl42           3.9293     5.8210     0.0087 Cl      
  43 H43           -0.9879     1.6639    -0.3921 H       
  44 H44           -1.7954    -0.3347     0.5224 H       
  45 H45           -2.6593    -1.9232     2.3045 H       
  46 H46            1.8352    -3.9362     2.0662 H       
  47 H47            1.3855    -1.8029     0.9237 H       
  48 H48           -2.1292    -4.6032     4.6100 H       
  49 H49           -3.3388    -3.5628     3.8209 H       
  50 H50           -3.3476    -6.6618     4.5291 H       
  51 H51           -4.7277    -5.6426     4.0536 H       
  52 H52           -5.0863    -8.0269     3.4262 H       
  53 H53           -5.0177    -6.9734     1.9926 H       
  54 H54           -1.5961    -7.9443     1.1180 H       
  55 H55           -2.9762    -6.9251     0.6425 H       
  56 H56           -1.2376    -5.5600     1.7455 H       
  57 H57           -1.3061    -6.6135     3.1791 H       
  58 H58           -4.4093    -8.9752     0.6834 H       
  59 H59           -2.9564    -9.8956     1.1419 H       
  60 H60           -4.4138    -9.9674     2.1612 H       
  61 H61            1.0967     5.9141    -0.2453 H       
  62 H62            2.4423     1.2019     0.3753 H       
  63 H63            4.7441     2.1103    -1.6017 H       
  64 H64            6.8770     1.1935    -2.4632 H       
  65 H65            9.1024     2.1451     1.8092 H       
  66 H66           11.0574     0.6312    -0.8052 H       
  67 H67           12.3264     0.9799     1.1066 H       
  68 H68           11.2598     2.3724     1.4093 H       
  69 H69           10.8060     0.7577     2.0051 H       
  70 H70            8.2707     3.3373     2.8576 H       
  71 H71            6.7594     4.0094     3.5155 H       
  72 H72            7.5883     2.1415     4.9199 H       
  73 H73            6.0292     1.7307     4.1659 H       
  74 H74            7.5404     1.0586     3.5081 H       
@<TRIPOS>BOND
   1    1    2 am
   2    1   20 1
   3    1   43 1
   4    2    3 2
   5    2    4 am
   6    4    5 1
   7    4   44 1
   8    5    6 ar
   9    5   10 ar
  10    6    7 ar
  11    6   45 1
  12    7    8 ar
  13    7   11 1
  14    8    9 ar
  15    8   19 1
  16    9   10 ar
  17    9   46 1
  18   10   47 1
  19   11   12 1
  20   11   48 1
  21   11   49 1
  22   12   13 1
  23   12   17 1
  24   13   14 1
  25   13   50 1
  26   13   51 1
  27   14   15 1
  28   14   52 1
  29   14   53 1
  30   15   16 1
  31   15   18 1
  32   16   17 1
  33   16   54 1
  34   16   55 1
  35   17   56 1
  36   17   57 1
  37   18   58 1
  38   18   59 1
  39   18   60 1
  40   20   21 ar
  41   20   25 ar
  42   21   22 ar
  43   21   26 1
  44   22   23 ar
  45   22   61 1
  46   23   24 ar
  47   23   42 1
  48   24   25 ar
  49   24   29 1
  50   25   62 1
  51   27   28 am
  52   27   36 1
  53   27   40 1
  54   28   29 1
  55   28   37 2
  56   29   30 2
  57   30   31 1
  58   30   63 1
  59   31   32 ar
  60   31   36 ar
  61   32   33 ar
  62   32   64 1
  63   33   34 ar
  64   34   35 ar
  65   34   38 1
  66   35   36 ar
  67   35   65 1
  68   38   39 1
  69   38   66 1
  70   39   67 1
  71   39   68 1
  72   39   69 1
  73   40   41 1
  74   40   70 1
  75   40   71 1
  76   41   72 1
  77   41   73 1
  78   41   74 1

#	End of record

