#	Name: ASD02690001
#	Creating user name:	WinNT
#	Creation time:	15. 06. 2019 20:26

#	Modifying user name:	WinNT
#	Modification time:	15. 06. 2019 20:26

#	Program:	/corina/corina34_cracker 3.40 0067  02.08.2006

@<TRIPOS>MOLECULE
ASD02690001
  59   61    0    0    0
SMALL
NO_CHARGES


@<TRIPOS>ATOM
   1 C1             2.2229    -2.2601    -2.5963 C.3     
   2 C2             1.3435    -1.7024    -3.7173 C.3     
   3 C3             0.8872    -0.2885    -3.3520 C.3     
   4 C4             2.1112     0.6110    -3.1686 C.3     
   5 C5             2.9906     0.0533    -2.0476 C.3     
   6 C6             3.4469    -1.3606    -2.4129 C.3     
   7 C7             4.1962     0.9393    -1.8670 C.ar    
   8 C8             5.0738     1.1308    -2.9186 C.ar    
   9 C9             6.1795     1.9412    -2.7600 C.ar    
  10 C10            6.4117     2.5684    -1.5355 C.ar    
  11 C11            5.5231     2.3719    -0.4778 C.ar    
  12 C12            4.4176     1.5629    -0.6505 C.ar    
  13 C13            7.5945     3.4373    -1.3593 C.2     
  14 C14            7.9775     4.2425    -2.3403 C.2     
  15 C15            7.1090     4.4096    -3.5605 C.3     
  16 N16            6.8626     5.8388    -3.7941 N.3     
  17 C17            6.2233     6.0565    -5.0987 C.3     
  18 C18            6.0580     6.4184    -2.7103 C.3     
  19 C19            6.0316     7.9415    -2.8531 C.3     
  20 C20            7.1465     5.5518    -6.2095 C.3     
  21 C21            6.4806     5.7784    -7.5683 C.3     
  22 C22            5.1555     5.0155    -7.6204 C.3     
  23 C23            4.2323     5.5202    -6.5096 C.3     
  24 C24            4.8982     5.2936    -5.1508 C.3     
  25 Cl25           3.3103     1.3165     0.6637 Cl      
  26 H26            1.6522    -2.2909    -1.6681 H       
  27 H27            2.5479    -3.2674    -2.8565 H       
  28 H28            1.9141    -1.6716    -4.6455 H       
  29 H29            0.4715    -2.3432    -3.8480 H       
  30 H30            0.2607     0.1088    -4.1506 H       
  31 H31            0.3166    -0.3193    -2.4238 H       
  32 H32            2.6818     0.6418    -4.0968 H       
  33 H33            1.7861     1.6183    -2.9084 H       
  34 H34            2.4199     0.0226    -1.1194 H       
  35 H35            4.0733    -1.7579    -1.6143 H       
  36 H36            4.0175    -1.3298    -3.3411 H       
  37 H37            4.8936     0.6447    -3.8660 H       
  38 H38            6.8640     2.0894    -3.5821 H       
  39 H39            5.6974     2.8546     0.4724 H       
  40 H40            8.1467     3.4161    -0.4314 H       
  41 H41            8.9120     4.7787    -2.2651 H       
  42 H42            7.6132     3.9815    -4.4268 H       
  43 H43            6.1593     3.8982    -3.4033 H       
  44 H44            6.0354     7.1211    -5.2381 H       
  45 H45            5.0408     6.0306    -2.7656 H       
  46 H46            6.4969     6.1512    -1.7490 H       
  47 H47            5.4346     8.3716    -2.0490 H       
  48 H48            7.0488     8.3293    -2.7978 H       
  49 H49            5.5927     8.2087    -3.8144 H       
  50 H50            8.0906     6.0953    -6.1723 H       
  51 H51            7.3344     4.4872    -6.0701 H       
  52 H52            6.2927     6.8430    -7.7077 H       
  53 H53            7.1383     5.4189    -8.3596 H       
  54 H54            4.6811     5.1770    -8.5884 H       
  55 H55            5.3434     3.9509    -7.4810 H       
  56 H56            4.0444     6.5848    -6.6490 H       
  57 H57            3.2882     4.9767    -6.5467 H       
  58 H58            5.0861     4.2290    -5.0114 H       
  59 H59            4.2405     5.6531    -4.3594 H       
@<TRIPOS>BOND
   1    1    2 1
   2    1    6 1
   3    1   26 1
   4    1   27 1
   5    2    3 1
   6    2   28 1
   7    2   29 1
   8    3    4 1
   9    3   30 1
  10    3   31 1
  11    4    5 1
  12    4   32 1
  13    4   33 1
  14    5    6 1
  15    5    7 1
  16    5   34 1
  17    6   35 1
  18    6   36 1
  19    7    8 ar
  20    7   12 ar
  21    8    9 ar
  22    8   37 1
  23    9   10 ar
  24    9   38 1
  25   10   11 ar
  26   10   13 1
  27   11   12 ar
  28   11   39 1
  29   12   25 1
  30   13   14 2
  31   13   40 1
  32   14   15 1
  33   14   41 1
  34   15   16 1
  35   15   42 1
  36   15   43 1
  37   16   17 1
  38   16   18 1
  39   17   20 1
  40   17   24 1
  41   17   44 1
  42   18   19 1
  43   18   45 1
  44   18   46 1
  45   19   47 1
  46   19   48 1
  47   19   49 1
  48   20   21 1
  49   20   50 1
  50   20   51 1
  51   21   22 1
  52   21   52 1
  53   21   53 1
  54   22   23 1
  55   22   54 1
  56   22   55 1
  57   23   24 1
  58   23   56 1
  59   23   57 1
  60   24   58 1
  61   24   59 1

#	End of record

