#	Name: ASD01028528
#	Creating user name:	WinNT
#	Creation time:	15. 06. 2019 18:57

#	Modifying user name:	WinNT
#	Modification time:	15. 06. 2019 18:57

#	Program:	/corina/corina34_cracker 3.40 0067  02.08.2006

@<TRIPOS>MOLECULE
ASD01028528
  42   46    0    0    0
SMALL
NO_CHARGES


@<TRIPOS>ATOM
   1 N1            -0.0169     1.3921     0.0097 N.2     
   2 N2             0.0021    -0.0041     0.0020 N.pl3   
   3 C3             1.1071     2.0741     0.0026 C.2     
   4 C4             2.3532     1.4123    -0.0133 C.2     
   5 C5             2.4037     0.0542    -0.0215 C.2     
   6 C6             1.2008    -0.6771    -0.0130 C.2     
   7 N7             0.9145    -1.9687    -0.0178 N.2     
   8 N8            -0.3638    -2.1208    -0.0054 N.2     
   9 C9            -0.9586    -0.9539     0.0061 C.2     
  10 C10           -2.4463    -0.7141     0.0226 C.3     
  11 C11            1.0647     3.5571     0.0110 C.ar    
  12 C12           -0.1601     4.2216     0.0263 C.ar    
  13 C13            2.2496     4.2906     0.0095 C.ar    
  14 C14            2.2042     5.6700     0.0177 C.ar    
  15 C15            0.9856     6.3244     0.0280 C.ar    
  16 C16           -0.1936     5.6013     0.0345 C.ar    
  17 C17           -2.9276    -0.6413     1.4488 C.ar    
  18 C18           -2.9533     0.5616     2.0881 C.ar    
  19 C19           -3.3452    -1.8041     2.0926 C.ar    
  20 C20           -3.7865    -1.7746     3.3812 C.ar    
  21 C21           -3.8218    -0.5553     4.0735 C.ar    
  22 C22           -3.4013     0.6289     3.4154 C.ar    
  23 N23           -4.2466    -0.4717     5.3406 N.ar    
  24 C24           -4.2652     0.6931     5.9585 C.ar    
  25 N25           -3.8733     1.8233     5.3728 N.ar    
  26 C26           -3.4446     1.8417     4.1283 C.ar    
  27 N27           -4.7101     0.7432     7.2672 N.pl3   
  28 H28            3.2683     1.9859    -0.0193 H       
  29 H29            3.3547    -0.4576    -0.0337 H       
  30 H30           -2.6686     0.2249    -0.4843 H       
  31 H31           -2.9519    -1.5323    -0.4902 H       
  32 H32           -1.0814     3.6581     0.0313 H       
  33 H33            3.2015     3.7806     0.0021 H       
  34 H34            3.1218     6.2394     0.0166 H       
  35 H35            0.9548     7.4039     0.0349 H       
  36 H36           -1.1423     6.1174     0.0422 H       
  37 H37           -2.6308     1.4565     1.5768 H       
  38 H38           -3.3189    -2.7441     1.5615 H       
  39 H39           -4.1076    -2.6844     3.8665 H       
  40 H40           -3.1296     2.7656     3.6662 H       
  41 H41           -5.0003    -0.0683     7.7122 H       
  42 H42           -4.7318     1.5899     7.7400 H       
@<TRIPOS>BOND
   1    1    2 1
   2    1    3 2
   3    2    6 1
   4    2    9 1
   5    3    4 1
   6    3   11 1
   7    4    5 2
   8    4   28 1
   9    5    6 1
  10    5   29 1
  11    6    7 2
  12    7    8 1
  13    8    9 2
  14    9   10 1
  15   10   17 1
  16   10   30 1
  17   10   31 1
  18   11   12 ar
  19   11   13 ar
  20   12   16 ar
  21   12   32 1
  22   13   14 ar
  23   13   33 1
  24   14   15 ar
  25   14   34 1
  26   15   16 ar
  27   15   35 1
  28   16   36 1
  29   17   18 ar
  30   17   19 ar
  31   18   22 ar
  32   18   37 1
  33   19   20 ar
  34   19   38 1
  35   20   21 ar
  36   20   39 1
  37   21   22 ar
  38   21   23 ar
  39   22   26 ar
  40   23   24 ar
  41   24   25 ar
  42   24   27 1
  43   25   26 ar
  44   26   40 1
  45   27   41 1
  46   27   42 1

#	End of record

