#	Name: ASD00960181
#	Creating user name:	WinNT
#	Creation time:	15. 06. 2019 18:53

#	Modifying user name:	WinNT
#	Modification time:	15. 06. 2019 18:53

#	Program:	/corina/corina34_cracker 3.40 0067  02.08.2006

@<TRIPOS>MOLECULE
ASD00960181
  38   41    0    0    0
SMALL
NO_CHARGES


@<TRIPOS>ATOM
   1 C1            -0.0168     1.3878     0.0097 C.2     
   2 C2             0.0021    -0.0041     0.0020 C.2     
   3 N3             1.2762     1.8324    -0.0003 N.pl3   
   4 C4             2.1102     0.7429    -0.0141 C.2     
   5 C5             1.3266    -0.4041    -0.0128 C.2     
   6 N6             1.8452     3.1135     0.0007 N.2     
   7 C7             3.1543     3.2513    -0.0114 C.2     
   8 N8             3.9760     2.1942    -0.0249 N.2     
   9 C9             3.5107     0.9596    -0.0256 C.2     
  10 N10            4.3811    -0.1125    -0.0398 N.pl3   
  11 C11            3.7335     4.6115    -0.0105 C.2     
  12 O12            5.0453     4.9061    -0.0219 O.3     
  13 C13            5.1633     6.2476    -0.0172 C.2     
  14 C14            3.9171     6.7583    -0.0029 C.2     
  15 N15            3.0535     5.7336    -0.0043 N.2     
  16 C16           -1.2119     2.2285     0.0201 C.2     
  17 O17           -2.3157     1.7167     0.0232 O.2     
  18 O18           -1.0913     3.5726     0.0263 O.3     
  19 C19           -2.3015     4.3324     0.0364 C.3     
  20 C20           -1.9713     5.8028     0.0422 C.ar    
  21 C21           -1.8261     6.4833    -1.1523 C.ar    
  22 C22           -1.5232     7.8320    -1.1470 C.ar    
  23 C23           -1.3660     8.5004     0.0528 C.ar    
  24 C24           -1.5121     7.8201     1.2473 C.ar    
  25 C25           -1.8193     6.4724     1.2420 C.ar    
  26 H26           -0.8606    -0.6538     0.0068 H       
  27 H27            1.6857    -1.4226    -0.0213 H       
  28 H28            5.3389     0.0404    -0.0494 H       
  29 H29            4.0346    -1.0186    -0.0403 H       
  30 H30            6.0857     6.8094    -0.0236 H       
  31 H31            3.6595     7.8071     0.0042 H       
  32 H32           -2.8870     4.0950    -0.8518 H       
  33 H33           -2.8778     4.0860     0.9282 H       
  34 H34           -1.9489     5.9611    -2.0896 H       
  35 H35           -1.4090     8.3635    -2.0802 H       
  36 H36           -1.1287     9.5540     0.0569 H       
  37 H37           -1.3890     8.3423     2.1846 H       
  38 H38           -1.9371     5.9417     2.1752 H       
@<TRIPOS>BOND
   1    1    2 2
   2    1    3 1
   3    1   16 1
   4    2    5 1
   5    2   26 1
   6    3    4 1
   7    3    6 1
   8    4    5 2
   9    4    9 1
  10    5   27 1
  11    6    7 2
  12    7    8 1
  13    7   11 1
  14    8    9 2
  15    9   10 1
  16   10   28 1
  17   10   29 1
  18   11   12 1
  19   11   15 2
  20   12   13 1
  21   13   14 2
  22   13   30 1
  23   14   15 1
  24   14   31 1
  25   16   17 2
  26   16   18 1
  27   18   19 1
  28   19   20 1
  29   19   32 1
  30   19   33 1
  31   20   21 ar
  32   20   25 ar
  33   21   22 ar
  34   21   34 1
  35   22   23 ar
  36   22   35 1
  37   23   24 ar
  38   23   36 1
  39   24   25 ar
  40   24   37 1
  41   25   38 1

#	End of record

