#	Name: ASD01200508
#	Creating user name:	WinNT
#	Creation time:	15. 06. 2019 19:09

#	Modifying user name:	WinNT
#	Modification time:	15. 06. 2019 19:09

#	Program:	/corina/corina34_cracker 3.40 0067  02.08.2006

@<TRIPOS>MOLECULE
ASD01200508
  25   26    0    0    0
SMALL
NO_CHARGES


@<TRIPOS>ATOM
   1 N1            -0.5552     1.1282    -0.3997 N.ar    
   2 C2            -0.3535    -0.1636    -0.2343 C.ar    
   3 C3             0.8651    -0.7390    -0.5709 C.ar    
   4 C4             1.8741     0.0696    -1.0877 C.ar    
   5 C5             1.6180     1.4220    -1.2451 C.ar    
   6 C6             0.3797     1.9208    -0.8866 C.ar    
   7 N7             1.0757    -2.1105    -0.3929 N.am    
   8 C8             0.1573    -2.8549     0.2545 C.2     
   9 C9             2.2944    -2.7376    -0.9102 C.3     
  10 O10           -0.7931    -2.3172     0.7909 O.2     
  11 C11           -0.7420    -5.1708     0.4907 C.2     
  12 C12            0.3042    -4.3166     0.3125 C.2     
  13 C13            1.5732    -4.9962     0.1860 C.2     
  14 C14            1.4673    -6.3163     0.2685 C.2     
  15 S15           -0.2060    -6.7887     0.5068 S.3     
  16 Cl16          -2.3955    -4.6781     0.6827 Cl      
  17 H17           -1.1435    -0.7809     0.1674 H       
  18 H18            2.8329    -0.3473    -1.3588 H       
  19 H19            2.3773     2.0791    -1.6426 H       
  20 H20            0.1747     2.9743    -1.0076 H       
  21 H21            3.0425    -2.7853    -0.1189 H       
  22 H22            2.0658    -3.7460    -1.2553 H       
  23 H23            2.6816    -2.1483    -1.7413 H       
  24 H24            2.5117    -4.4823     0.0390 H       
  25 H25            2.2963    -7.0050     0.1983 H       
@<TRIPOS>BOND
   1    1    2 ar
   2    1    6 ar
   3    2    3 ar
   4    2   17 1
   5    3    4 ar
   6    3    7 1
   7    4    5 ar
   8    4   18 1
   9    5    6 ar
  10    5   19 1
  11    6   20 1
  12    7    8 am
  13    7    9 1
  14    8   10 2
  15    8   12 1
  16    9   21 1
  17    9   22 1
  18    9   23 1
  19   11   12 2
  20   11   15 1
  21   11   16 1
  22   12   13 1
  23   13   14 2
  24   13   24 1
  25   14   15 1
  26   14   25 1

#	End of record

