#	Name: ASD01510050
#	Creating user name:	WinNT
#	Creation time:	15. 06. 2019 19:21

#	Modifying user name:	WinNT
#	Modification time:	15. 06. 2019 19:21

#	Program:	/corina/corina34_cracker 3.40 0067  02.08.2006

@<TRIPOS>MOLECULE
ASD01510050
  42   44    0    0    0
SMALL
NO_CHARGES


@<TRIPOS>ATOM
   1 C1            -0.0173     1.4248     0.0099 C.3     
   2 O2             0.0021    -0.0041     0.0020 O.3     
   3 C3             0.6246    -0.6171     1.0394 C.ar    
   4 N4             1.1842     0.0999     2.0081 N.ar    
   5 C5             1.7939    -0.4909     3.0244 C.ar    
   6 N6             1.8731    -1.8093     3.1202 N.ar    
   7 C7             1.3377    -2.5933     2.1905 C.ar    
   8 C8             0.6813    -2.0091     1.1073 C.ar    
   9 S9            -0.0453    -3.0048    -0.1519 S.3     
  10 C10           -1.6630    -3.2101     0.5158 C.ar    
  11 N11           -1.9591    -2.6451     1.6778 N.ar    
  12 C12           -3.1645    -2.7771     2.2115 C.ar    
  13 C13           -4.1224    -3.5148     1.5436 C.ar    
  14 C14           -3.7816    -4.0986     0.3209 C.ar    
  15 N15           -2.5553    -3.9211    -0.1589 N.ar    
  16 N16           -4.7103    -4.8473    -0.3834 N.pl3   
  17 O17            1.4234    -3.9427     2.2963 O.3     
  18 C18            2.1069    -4.4618     3.4389 C.3     
  19 N19            2.3654     0.2925     4.0152 N.3     
  20 C20            2.9910    -0.5420     5.0513 C.3     
  21 C21            3.6596     0.3610     6.0913 C.3     
  22 O22            2.6860     1.2577     6.6331 O.3     
  23 C23            2.0572     2.0862     5.6515 C.3     
  24 C24            1.3724     1.2007     4.6070 C.3     
  25 H25            1.0053     1.8021     0.0021 H       
  26 H26           -0.5445     1.7859    -0.8732 H       
  27 H27           -0.5275     1.7763     0.9067 H       
  28 H28           -3.3956    -2.3131     3.1589 H       
  29 H29           -5.1123    -3.6379     1.9574 H       
  30 H30           -5.6047    -4.9693    -0.0283 H       
  31 H31           -4.4662    -5.2495    -1.2317 H       
  32 H32            3.1358    -4.1019     3.4413 H       
  33 H33            1.6032    -4.1282     4.3462 H       
  34 H34            2.1031    -5.5511     3.4007 H       
  35 H35            2.2292    -1.1529     5.5357 H       
  36 H36            3.7406    -1.1883     4.5947 H       
  37 H37            4.0754    -0.2514     6.8914 H       
  38 H38            4.4574     0.9329     5.6176 H       
  39 H39            1.3142     2.7216     6.1335 H       
  40 H40            2.8085     2.7083     5.1650 H       
  41 H41            0.9405     1.8266     3.8261 H       
  42 H42            0.5847     0.6177     5.0843 H       
@<TRIPOS>BOND
   1    1    2 1
   2    1   25 1
   3    1   26 1
   4    1   27 1
   5    2    3 1
   6    3    4 ar
   7    3    8 ar
   8    4    5 ar
   9    5    6 ar
  10    5   19 1
  11    6    7 ar
  12    7    8 ar
  13    7   17 1
  14    8    9 1
  15    9   10 1
  16   10   11 ar
  17   10   15 ar
  18   11   12 ar
  19   12   13 ar
  20   12   28 1
  21   13   14 ar
  22   13   29 1
  23   14   15 ar
  24   14   16 1
  25   16   30 1
  26   16   31 1
  27   17   18 1
  28   18   32 1
  29   18   33 1
  30   18   34 1
  31   19   20 1
  32   19   24 1
  33   20   21 1
  34   20   35 1
  35   20   36 1
  36   21   22 1
  37   21   37 1
  38   21   38 1
  39   22   23 1
  40   23   24 1
  41   23   39 1
  42   23   40 1
  43   24   41 1
  44   24   42 1

#	End of record

