#	Name: ASD07930528
#	Creating user name:	WinNT
#	Creation time:	15. 06. 2019 21:12

#	Modifying user name:	WinNT
#	Modification time:	15. 06. 2019 21:12

#	Program:	/corina/corina34_cracker 3.40 0067  02.08.2006

@<TRIPOS>MOLECULE
ASD07930528
  51   53    0    0    0
SMALL
NO_CHARGES


@<TRIPOS>ATOM
   1 C1            -0.0342     1.4581     0.0423 C.3     
   2 N2             0.7954    -0.4135    -2.1303 N.2     
   3 N3            -0.8903    -1.7836    -1.2685 N.pl3   
   4 C4            -0.9149    -2.8271    -0.2383 C.3     
   5 C5            -1.2300    -2.1885     1.1215 C.3     
   6 S6             0.0062    -0.8913     1.4434 S.o2    
   7 N7            -0.0140    -0.0067     0.0314 N.am    
   8 C8            -0.0112    -0.7261    -1.1552 C.2     
   9 C9             0.4500    -3.5154    -0.1755 C.3     
  10 C10           -1.9764    -3.8423    -0.5755 C.ar    
  11 C11           -2.8069    -3.6377    -1.6601 C.ar    
  12 C12           -3.7851    -4.5731    -1.9718 C.ar    
  13 C13           -3.9269    -5.7132    -1.1921 C.ar    
  14 C14           -3.0936    -5.9149    -0.1067 C.ar    
  15 C15           -2.1144    -4.9815     0.1987 C.ar    
  16 O16           -0.4576     0.0117     2.4377 O.2     
  17 O17            1.3141    -1.4441     1.5003 O.2     
  18 F18           -1.3009    -5.1794     1.2590 F       
  19 N19           -4.6272    -4.3666    -3.0701 N.am    
  20 C20           -5.0471    -5.4160    -3.8041 C.2     
  21 O21           -4.6183    -6.5298    -3.5730 O.2     
  22 C22           -6.0294    -5.2127    -4.8905 C.ar    
  23 C23           -6.4643    -6.2981    -5.6504 C.ar    
  24 F24           -3.2303    -7.0237     0.6530 F       
  25 N25           -6.5038    -3.9935    -5.1406 N.ar    
  26 C26           -7.3780    -3.8135    -6.1071 C.ar    
  27 C27           -7.8093    -4.8995    -6.8705 C.ar    
  28 N28           -7.3419    -6.1149    -6.6199 N.ar    
  29 O29           -8.7104    -4.7126    -7.8649 O.3     
  30 C30           -9.1077    -5.8680    -8.6060 C.3     
  31 C31          -10.1219    -5.4628    -9.6775 C.3     
  32 F32           -9.5386    -4.5314   -10.5432 F       
  33 F33          -10.5108    -6.5940   -10.4030 F       
  34 F34          -11.2435    -4.8926    -9.0661 F       
  35 H35            0.9884     1.8356     0.0392 H       
  36 H36           -0.5580     1.8208    -0.8421 H       
  37 H37           -0.5478     1.8077     0.9378 H       
  38 H38            1.4072     0.3330    -2.0332 H       
  39 H39           -1.4883    -1.8388    -2.0303 H       
  40 H40           -2.2269    -1.7484     1.0986 H       
  41 H41           -1.1799    -2.9460     1.9036 H       
  42 H42            1.2166    -2.7805     0.0704 H       
  43 H43            0.4311    -4.2908     0.5903 H       
  44 H44            0.6749    -3.9653    -1.1426 H       
  45 H45           -2.6958    -2.7503    -2.2655 H       
  46 H46           -4.6872    -6.4415    -1.4326 H       
  47 H47           -4.9087    -3.4681    -3.3032 H       
  48 H48           -6.0833    -7.2878    -5.4462 H       
  49 H49           -7.7625    -2.8248    -6.3097 H       
  50 H50           -8.2338    -6.3123    -9.0824 H       
  51 H51           -9.5622    -6.5938    -7.9315 H       
@<TRIPOS>BOND
   1    1    7 1
   2    1   35 1
   3    1   36 1
   4    1   37 1
   5    2    8 2
   6    2   38 1
   7    3    4 1
   8    3    8 1
   9    3   39 1
  10    4    5 1
  11    4    9 1
  12    4   10 1
  13    5    6 1
  14    5   40 1
  15    5   41 1
  16    6    7 am
  17    6   16 2
  18    6   17 2
  19    7    8 1
  20    9   42 1
  21    9   43 1
  22    9   44 1
  23   10   11 ar
  24   10   15 ar
  25   11   12 ar
  26   11   45 1
  27   12   13 ar
  28   12   19 1
  29   13   14 ar
  30   13   46 1
  31   14   15 ar
  32   14   24 1
  33   15   18 1
  34   19   20 am
  35   19   47 1
  36   20   21 2
  37   20   22 1
  38   22   23 ar
  39   22   25 ar
  40   23   28 ar
  41   23   48 1
  42   25   26 ar
  43   26   27 ar
  44   26   49 1
  45   27   28 ar
  46   27   29 1
  47   29   30 1
  48   30   31 1
  49   30   50 1
  50   30   51 1
  51   31   32 1
  52   31   33 1
  53   31   34 1

#	End of record

