#	Name: ASD03900042
#	Creating user name:	WinNT
#	Creation time:	15. 06. 2019 20:47

#	Modifying user name:	WinNT
#	Modification time:	15. 06. 2019 20:47

#	Program:	/corina/corina34_cracker 3.40 0067  02.08.2006

@<TRIPOS>MOLECULE
ASD03900042
  64   66    0    0    0
SMALL
NO_CHARGES


@<TRIPOS>ATOM
   1 C1            -0.3030     1.2644    -0.3364 C.ar    
   2 C2            -0.1584    -0.0898    -0.1051 C.ar    
   3 C3             1.0730    -0.6943    -0.2779 C.ar    
   4 C4             2.1627     0.0545    -0.6825 C.ar    
   5 C5             2.0234     1.4091    -0.9148 C.ar    
   6 C6             0.7888     2.0179    -0.7425 C.ar    
   7 C7             1.2279    -2.1718    -0.0243 C.3     
   8 C8             2.6606    -2.5746    -0.2614 C.ar    
   9 C9             0.8491    -2.4791     1.4015 C.ar    
  10 C10            0.7641    -3.7925     1.8253 C.ar    
  11 C11            0.5925    -1.4472     2.2853 C.ar    
  12 C12            0.2455    -1.7263     3.5930 C.ar    
  13 C13            0.1544    -3.0434     4.0192 C.ar    
  14 C14            0.4174    -4.0769     3.1319 C.ar    
  15 C15            3.6557    -2.1130     0.5804 C.ar    
  16 C16            2.9771    -3.4097    -1.3169 C.ar    
  17 C17            4.2896    -3.7809    -1.5361 C.ar    
  18 C18            5.2905    -3.3148    -0.6960 C.ar    
  19 C19            4.9697    -2.4809     0.3652 C.ar    
  20 O20            0.6492     3.3503    -0.9708 O.3     
  21 O21            6.5823    -3.6788    -0.9093 O.3     
  22 C22            0.3154    -2.9506    -0.9738 C.3     
  23 C23           -0.6509     3.9096    -0.7734 C.3     
  24 C24           -0.6131     5.3863    -1.0718 C.2     
  25 O25           -0.1869    -3.3207     5.3053 O.3     
  26 C26            7.5600    -3.1611    -0.0048 C.3     
  27 C27            8.9242    -3.6685    -0.3953 C.2     
  28 C28           -1.4790    -3.1724     5.6386 C.2     
  29 C29           -1.9127    -3.3479     7.0711 C.3     
  30 O30           -2.2942    -2.8982     4.7899 O.2     
  31 O31           10.0033    -3.3094     0.3177 O.3     
  32 C32           11.2851    -3.8358    -0.1160 C.3     
  33 O33            9.0467    -4.3985    -1.3503 O.2     
  34 O34           -1.7283     6.1238    -0.9530 O.3     
  35 C35           -1.6180     7.5394    -1.2566 C.3     
  36 O36            0.4211     5.9064    -1.4180 O.2     
  37 H37           -1.2661     1.7353    -0.2056 H       
  38 H38           -1.0080    -0.6768     0.2114 H       
  39 H39            3.1235    -0.4200    -0.8168 H       
  40 H40            2.8750     1.9937    -1.2301 H       
  41 H41            0.9686    -4.5968     1.1340 H       
  42 H42            0.6639    -0.4220     1.9531 H       
  43 H43            0.0456    -0.9199     4.2830 H       
  44 H44            0.3468    -5.1031     3.4612 H       
  45 H45            3.4054    -1.4641     1.4066 H       
  46 H46            2.1975    -3.7725    -1.9704 H       
  47 H47            4.5362    -4.4335    -2.3605 H       
  48 H48            5.7471    -2.1168     1.0206 H       
  49 H49            0.5894    -2.7283    -2.0050 H       
  50 H50            0.4274    -4.0192    -0.7903 H       
  51 H51           -0.7209    -2.6593    -0.8023 H       
  52 H52           -1.3614     3.4221    -1.4409 H       
  53 H53           -0.9595     3.7557     0.2607 H       
  54 H54            7.5521    -2.0719    -0.0456 H       
  55 H55            7.3270    -3.4885     1.0085 H       
  56 H56           -1.8583    -2.3894     7.5872 H       
  57 H57           -2.9378    -3.7173     7.0978 H       
  58 H58           -1.2555    -4.0640     7.5645 H       
  59 H59           11.2608    -4.9250    -0.0821 H       
  60 H60           11.4859    -3.5085    -1.1361 H       
  61 H61           12.0708    -3.4691     0.5446 H       
  62 H62           -0.8904     7.9988    -0.5875 H       
  63 H63           -1.2922     7.6652    -2.2891 H       
  64 H64           -2.5884     8.0168    -1.1210 H       
@<TRIPOS>BOND
   1    1    2 ar
   2    1    6 ar
   3    1   37 1
   4    2    3 ar
   5    2   38 1
   6    3    4 ar
   7    3    7 1
   8    4    5 ar
   9    4   39 1
  10    5    6 ar
  11    5   40 1
  12    6   20 1
  13    7    8 1
  14    7    9 1
  15    7   22 1
  16    8   15 ar
  17    8   16 ar
  18    9   10 ar
  19    9   11 ar
  20   10   14 ar
  21   10   41 1
  22   11   12 ar
  23   11   42 1
  24   12   13 ar
  25   12   43 1
  26   13   14 ar
  27   13   25 1
  28   14   44 1
  29   15   19 ar
  30   15   45 1
  31   16   17 ar
  32   16   46 1
  33   17   18 ar
  34   17   47 1
  35   18   19 ar
  36   18   21 1
  37   19   48 1
  38   20   23 1
  39   21   26 1
  40   22   49 1
  41   22   50 1
  42   22   51 1
  43   23   24 1
  44   23   52 1
  45   23   53 1
  46   24   34 1
  47   24   36 2
  48   25   28 1
  49   26   27 1
  50   26   54 1
  51   26   55 1
  52   27   31 1
  53   27   33 2
  54   28   29 1
  55   28   30 2
  56   29   56 1
  57   29   57 1
  58   29   58 1
  59   31   32 1
  60   32   59 1
  61   32   60 1
  62   32   61 1
  63   34   35 1
  64   35   62 1
  65   35   63 1
  66   35   64 1

#	End of record

