#	Name: ASD07301083
#	Creating user name:	WinNT
#	Creation time:	15. 06. 2019 21:10

#	Modifying user name:	WinNT
#	Modification time:	15. 06. 2019 21:10

#	Program:	/corina/corina34_cracker 3.40 0067  02.08.2006

@<TRIPOS>MOLECULE
ASD07301083
  31   33    0    0    0
SMALL
NO_CHARGES


@<TRIPOS>ATOM
   1 C1            -0.0169     1.4666     0.0596 C.2     
   2 C2             0.0021    -0.0040     0.0009 C.2     
   3 C3             1.2691    -0.6324    -0.0643 C.2     
   4 C4             2.3697     0.1607    -0.0682 C.2     
   5 N5             2.2543     1.5069    -0.0114 N.pl3   
   6 N6             1.1274     2.1150     0.0486 N.2     
   7 O7            -1.0320    -0.6550     0.0086 O.2     
   8 C8             3.4235     2.2746    -0.0184 C.ar    
   9 C9             3.3473     3.6586    -0.1151 C.ar    
  10 C10            4.5034     4.4134    -0.1212 C.ar    
  11 C11            5.7366     3.7933    -0.0314 C.ar    
  12 C12            5.8161     2.4162     0.0645 C.ar    
  13 C13            4.6633     1.6555     0.0770 C.ar    
  14 C14            4.4217     5.9145    -0.2265 C.3     
  15 F15            4.3451     6.4684     1.0558 F       
  16 F16            5.5619     6.3991    -0.8765 F       
  17 F17            3.2824     6.2694    -0.9567 F       
  18 N18           -2.5460     1.6522     0.1360 N.pl3   
  19 N19           -3.4727     2.7001     0.2024 N.2     
  20 C20           -2.8224     3.8355     0.2291 C.2     
  21 C21           -1.4545     3.5680     0.1812 C.2     
  22 C22           -1.2975     2.2009     0.1233 C.2     
  23 H23            1.3565    -1.7079    -0.1092 H       
  24 H24            3.3506    -0.2887    -0.1169 H       
  25 H25            2.3848     4.1434    -0.1856 H       
  26 H26            6.6393     4.3860    -0.0364 H       
  27 H27            6.7805     1.9351     0.1341 H       
  28 H28            4.7259     0.5803     0.1564 H       
  29 H29           -2.7547     0.7054     0.1082 H       
  30 H30           -3.2707     4.8168     0.2794 H       
  31 H31           -0.6612     4.3009     0.1878 H       
@<TRIPOS>BOND
   1    1    2 1
   2    1    6 2
   3    1   22 1
   4    2    3 1
   5    2    7 2
   6    3    4 2
   7    3   23 1
   8    4    5 1
   9    4   24 1
  10    5    6 1
  11    5    8 1
  12    8    9 ar
  13    8   13 ar
  14    9   10 ar
  15    9   25 1
  16   10   11 ar
  17   10   14 1
  18   11   12 ar
  19   11   26 1
  20   12   13 ar
  21   12   27 1
  22   13   28 1
  23   14   15 1
  24   14   16 1
  25   14   17 1
  26   18   19 1
  27   18   22 1
  28   18   29 1
  29   19   20 2
  30   20   21 1
  31   20   30 1
  32   21   22 2
  33   21   31 1

#	End of record

