#	Name: ASD01912580
#	Creating user name:	WinNT
#	Creation time:	15. 06. 2019 19:59

#	Modifying user name:	WinNT
#	Modification time:	15. 06. 2019 19:59

#	Program:	/corina/corina34_cracker 3.40 0067  02.08.2006

@<TRIPOS>MOLECULE
ASD01912580
  43   45    0    0    0
SMALL
NO_CHARGES


@<TRIPOS>ATOM
   1 C1            -0.0177     1.3806     0.0413 C.ar    
   2 C2             0.0008    -0.0028     0.0402 C.ar    
   3 C3             1.2046    -0.6847     0.0262 C.ar    
   4 C4             2.3953     0.0120     0.0136 C.ar    
   5 C5             2.3837     1.4076     0.0147 C.ar    
   6 C6             1.1659     2.0893     0.0284 C.ar    
   7 C7             3.6559     2.1606     0.0013 C.2     
   8 O8             4.8871     1.6176    -0.0130 O.3     
   9 C9             5.8267     2.5681    -0.0224 C.2     
  10 C10            5.2138     3.7888    -0.0144 C.2     
  11 C11            3.7732     3.5117    -0.0045 C.2     
  12 C12            7.3151     2.3324    -0.0384 C.3     
  13 C13            5.8651     5.1111    -0.0203 C.2     
  14 N14            5.1158     6.2314    -0.0108 N.am    
  15 O15            7.0785     5.1912    -0.0337 O.2     
  16 C16            5.7308     7.4833     0.0962 C.ar    
  17 C17            6.8728     7.6303     0.8672 C.ar    
  18 C18            7.4831     8.8830     0.9706 C.ar    
  19 C19            6.9361     9.9790     0.2947 C.ar    
  20 C20            5.7992     9.8197    -0.4695 C.ar    
  21 C21            5.1994     8.5781    -0.5756 C.ar    
  22 C22            8.6961     9.0490     1.7876 C.2     
  23 C23            9.2830    10.2597     1.8855 C.2     
  24 C24           10.4882    10.4246     2.6972 C.2     
  25 O25           11.0752    11.6354     2.7951 O.3     
  26 O26           10.9614     9.4702     3.2841 O.2     
  27 H27           -0.9607     1.9069     0.0477 H       
  28 H28           -0.9286    -0.5529     0.0507 H       
  29 H29            1.2121    -1.7646     0.0254 H       
  30 H30            3.3343    -0.5214     0.0034 H       
  31 H31            1.1502     3.1692     0.0289 H       
  32 H32            2.9712     4.2349     0.0029 H       
  33 H33            7.5131     1.2605    -0.0416 H       
  34 H34            7.7449     2.7839    -0.9326 H       
  35 H35            7.7637     2.7821     0.8473 H       
  36 H36            4.1501     6.1696    -0.0782 H       
  37 H37            7.2894     6.7799     1.3865 H       
  38 H38            7.4038    10.9495     0.3716 H       
  39 H39            5.3783    10.6669    -0.9906 H       
  40 H40            4.3094     8.4604    -1.1761 H       
  41 H41            9.1163     8.2015     2.3087 H       
  42 H42            8.8629    11.1073     1.3644 H       
  43 H43           11.8650    11.6456     3.3529 H       
@<TRIPOS>BOND
   1    1    2 ar
   2    1    6 ar
   3    1   27 1
   4    2    3 ar
   5    2   28 1
   6    3    4 ar
   7    3   29 1
   8    4    5 ar
   9    4   30 1
  10    5    6 ar
  11    5    7 1
  12    6   31 1
  13    7    8 1
  14    7   11 2
  15    8    9 1
  16    9   10 2
  17    9   12 1
  18   10   11 1
  19   10   13 1
  20   11   32 1
  21   12   33 1
  22   12   34 1
  23   12   35 1
  24   13   14 am
  25   13   15 2
  26   14   16 1
  27   14   36 1
  28   16   17 ar
  29   16   21 ar
  30   17   18 ar
  31   17   37 1
  32   18   19 ar
  33   18   22 1
  34   19   20 ar
  35   19   38 1
  36   20   21 ar
  37   20   39 1
  38   21   40 1
  39   22   23 2
  40   22   41 1
  41   23   24 1
  42   23   42 1
  43   24   25 1
  44   24   26 2
  45   25   43 1

#	End of record

