#	Name: ASD00842264
#	Creating user name:	WinNT
#	Creation time:	15. 06. 2019 18:44

#	Modifying user name:	WinNT
#	Modification time:	15. 06. 2019 18:44

#	Program:	/corina/corina34_cracker 3.40 0067  02.08.2006

@<TRIPOS>MOLECULE
ASD00842264
  84   89    0    0    0
SMALL
NO_CHARGES


@<TRIPOS>ATOM
   1 F1             6.0872    -1.6047    -1.9947 F       
   2 C2             0.9848     1.5611    -0.3516 C.ar    
   3 C3             1.2989     0.2350    -0.6105 C.ar    
   4 C4             1.2412    -0.7015     0.4117 C.ar    
   5 C5             0.8713    -0.3114     1.6840 C.ar    
   6 C6             0.5582     1.0111     1.9395 C.ar    
   7 C7             0.6154     1.9462     0.9229 C.ar    
   8 C8             1.5813    -2.1431     0.1338 C.3     
   9 C9             1.3253    -2.9941     1.3593 C.2     
  10 C10            0.7743    -2.6627    -1.0577 C.3     
  11 C11           -0.6949    -2.4453    -0.8024 C.2     
  12 N12           -1.6074    -2.9144    -1.6764 N.am    
  13 O13           -1.0562    -1.8482     0.1895 O.2     
  14 C14           -3.0349    -2.6138    -1.5018 C.3     
  15 C15           -3.8199    -3.9293    -1.5061 C.3     
  16 C16           -3.4933    -4.7094    -2.7815 C.3     
  17 C17           -1.9990    -5.0385    -2.8117 C.3     
  18 C18           -1.1928    -3.7309    -2.8254 C.3     
  19 N19           -4.2696    -5.9563    -2.8048 N.3     
  20 C20           -4.0721    -6.6761    -4.0708 C.3     
  21 C21           -4.8321    -8.0037    -4.0236 C.3     
  22 N22           -6.2585    -7.7405    -3.7878 N.3     
  23 C23           -6.4561    -7.0207    -2.5219 C.3     
  24 C24           -5.6961    -5.6931    -2.5691 C.3     
  25 C25           -7.0348    -8.9874    -3.8112 C.3     
  26 O26            0.2582    -3.1584     1.9121 O.2     
  27 N27            2.5020    -3.5336     1.7194 N.am    
  28 C28            3.0634    -2.2982    -0.1188 C.ar    
  29 C29            3.5424    -3.1454     0.8727 C.ar    
  30 C30            3.9082    -1.7826    -1.0760 C.ar    
  31 C31            5.2548    -2.1080    -1.0571 C.ar    
  32 C32            5.7450    -2.9526    -0.0725 C.ar    
  33 C33            4.8969    -3.4698     0.8878 C.ar    
  34 F34            7.0577    -3.2713    -0.0523 F       
  35 C35            2.4506    -6.1891     2.4408 C.ar    
  36 C36            3.5230    -6.9238     1.9706 C.ar    
  37 C37            1.1865    -6.7481     2.4635 C.ar    
  38 C38            0.9948    -8.0418     2.0159 C.ar    
  39 C39            2.0671    -8.7764     1.5452 C.ar    
  40 C40            3.3312    -8.2174     1.5226 C.ar    
  41 H41            1.9173    -9.7872     1.1955 H       
  42 H42            4.5105    -6.4870     1.9529 H       
  43 O43            1.6621    -0.1463    -1.8633 O.3     
  44 C44            2.1295     0.2645    -4.1985 C.3     
  45 C45            1.5911     0.8456    -2.8895 C.3     
  46 S46            2.6962    -4.5425     3.0181 S.o2    
  47 O47            4.0625    -4.4499     3.3974 O.2     
  48 O48            1.6225    -4.2644     3.9064 O.2     
  49 H49            1.0333     2.2927    -1.1445 H       
  50 H50            0.8263    -1.0400     2.4800 H       
  51 H51            0.2685     1.3139     2.9349 H       
  52 H52            0.3704     2.9784     1.1249 H       
  53 H53            1.0699    -2.1253    -1.9588 H       
  54 H54            0.9665    -3.7274    -1.1901 H       
  55 H55           -3.1868    -2.1007    -0.5522 H       
  56 H56           -3.3779    -1.9810    -2.3203 H       
  57 H57           -3.5406    -4.5224    -0.6352 H       
  58 H58           -4.8882    -3.7155    -1.4738 H       
  59 H59           -3.7499    -4.1059    -3.6521 H       
  60 H60           -1.7369    -5.6212    -1.9286 H       
  61 H61           -1.7713    -5.6143    -3.7088 H       
  62 H62           -1.3867    -3.1918    -3.7526 H       
  63 H63           -0.1293    -3.9565    -2.7470 H       
  64 H64           -4.4481    -6.0709    -4.8957 H       
  65 H65           -3.0095    -6.8704    -4.2166 H       
  66 H66           -4.7107    -8.5261    -4.9725 H       
  67 H67           -4.4377    -8.6201    -3.2158 H       
  68 H68           -7.5187    -6.8265    -2.3760 H       
  69 H69           -6.0801    -7.6259    -1.6970 H       
  70 H70           -5.8174    -5.1707    -1.6201 H       
  71 H71           -6.0905    -5.0768    -3.3769 H       
  72 H72           -6.6697    -9.6573    -3.0327 H       
  73 H73           -8.0869    -8.7638    -3.6341 H       
  74 H74           -6.9240    -9.4663    -4.7840 H       
  75 H75            3.5215    -1.1255    -1.8409 H       
  76 H76            5.2851    -4.1268     1.6520 H       
  77 H77            0.3488    -6.1742     2.8312 H       
  78 H78            0.0074    -8.4788     2.0342 H       
  79 H79            4.1690    -8.7914     1.1552 H       
  80 H80            3.1360    -0.1217    -4.0378 H       
  81 H81            1.4790    -0.5441    -4.5318 H       
  82 H82            2.1570     1.0454    -4.9585 H       
  83 H83            0.5542     1.1521    -3.0274 H       
  84 H84            2.1902     1.7095    -2.6019 H       
@<TRIPOS>BOND
   1    1   31 1
   2    2    3 ar
   3    2    7 ar
   4    2   49 1
   5    3    4 ar
   6    3   43 1
   7    4    5 ar
   8    4    8 1
   9    5    6 ar
  10    5   50 1
  11    6    7 ar
  12    6   51 1
  13    7   52 1
  14    8    9 1
  15    8   10 1
  16    8   28 1
  17    9   26 2
  18    9   27 am
  19   10   11 1
  20   10   53 1
  21   10   54 1
  22   11   12 am
  23   11   13 2
  24   12   14 1
  25   12   18 1
  26   14   15 1
  27   14   55 1
  28   14   56 1
  29   15   16 1
  30   15   57 1
  31   15   58 1
  32   16   17 1
  33   16   19 1
  34   16   59 1
  35   17   18 1
  36   17   60 1
  37   17   61 1
  38   18   62 1
  39   18   63 1
  40   19   20 1
  41   19   24 1
  42   20   21 1
  43   20   64 1
  44   20   65 1
  45   21   22 1
  46   21   66 1
  47   21   67 1
  48   22   23 1
  49   22   25 1
  50   23   24 1
  51   23   68 1
  52   23   69 1
  53   24   70 1
  54   24   71 1
  55   25   72 1
  56   25   73 1
  57   25   74 1
  58   27   46 am
  59   27   29 1
  60   28   29 ar
  61   28   30 ar
  62   29   33 ar
  63   30   31 ar
  64   30   75 1
  65   31   32 ar
  66   32   33 ar
  67   32   34 1
  68   33   76 1
  69   35   36 ar
  70   35   37 ar
  71   35   46 1
  72   36   42 1
  73   36   40 ar
  74   37   38 ar
  75   37   77 1
  76   38   39 ar
  77   38   78 1
  78   39   40 ar
  79   39   41 1
  80   40   79 1
  81   43   45 1
  82   44   45 1
  83   44   80 1
  84   44   81 1
  85   44   82 1
  86   45   83 1
  87   45   84 1
  88   46   47 2
  89   46   48 2

#	End of record

