#	Name: ASD01810345
#	Creating user name:	WinNT
#	Creation time:	15. 06. 2019 19:24

#	Modifying user name:	WinNT
#	Modification time:	15. 06. 2019 19:24

#	Program:	/corina/corina34_cracker 3.40 0067  02.08.2006

@<TRIPOS>MOLECULE
ASD01810345
  41   43    0    0    0
SMALL
NO_CHARGES


@<TRIPOS>ATOM
   1 N1            -0.5454     1.1620    -0.1984 N.pl3   
   2 C2            -0.7225    -0.1642    -0.2542 C.2     
   3 C3             0.3360    -1.0437    -0.3604 C.2     
   4 C4             1.7048    -0.5054    -0.4147 C.2     
   5 C5             1.8551     0.9604    -0.3508 C.ar    
   6 C6             3.1142     1.5593    -0.3951 C.ar    
   7 C7             3.2176     2.9312    -0.3327 C.ar    
   8 C8             2.0773     3.7151    -0.2265 C.ar    
   9 C9             0.8278     3.1373    -0.1817 C.ar    
  10 C10            0.6992     1.7518    -0.2427 C.ar    
  11 C11            0.1003    -2.4933    -0.4179 C.2     
  12 O12           -1.0345    -2.9269    -0.3719 O.2     
  13 O13            1.1424    -3.3421    -0.5216 O.3     
  14 O14            2.6728    -1.2396    -0.5079 O.2     
  15 C15           -1.7259     2.0230    -0.0918 C.3     
  16 C16           -2.0536     2.2484     1.3618 C.ar    
  17 C17           -1.4968     3.3194     2.0365 C.ar    
  18 C18           -1.7955     3.5289     3.3686 C.ar    
  19 C19           -2.6559     2.6627     4.0304 C.ar    
  20 C20           -3.2134     1.5881     3.3499 C.ar    
  21 C21           -2.9148     1.3871     2.0165 C.ar    
  22 C22           -3.0740     4.1269     5.8584 C.2     
  23 C23           -3.5043     4.3533     7.2848 C.3     
  24 O24           -2.8301     5.0739     5.1409 O.2     
  25 N25           -2.9602     2.8720     5.3800 N.am    
  26 Br26          -3.5666     6.2837     7.6519 Br      
  27 H27           -1.7271    -0.5588    -0.2143 H       
  28 H28            4.0026     0.9507    -0.4774 H       
  29 H29            4.1905     3.3990    -0.3663 H       
  30 H30            2.1708     4.7899    -0.1780 H       
  31 H31           -0.0519     3.7583    -0.0992 H       
  32 H32            0.9377    -4.2865    -0.5561 H       
  33 H33           -1.5217     2.9805    -0.5709 H       
  34 H34           -2.5714     1.5431    -0.5846 H       
  35 H35           -0.8275     3.9924     1.5214 H       
  36 H36           -1.3601     4.3654     3.8951 H       
  37 H37           -3.8829     0.9127     3.8618 H       
  38 H38           -3.3515     0.5542     1.4855 H       
  39 H39           -4.4935     3.9221     7.4387 H       
  40 H40           -2.7918     3.8780     7.9591 H       
  41 H41           -3.0892     2.1140     5.9713 H       
@<TRIPOS>BOND
   1    1    2 1
   2    1   10 1
   3    1   15 1
   4    2    3 2
   5    2   27 1
   6    3    4 1
   7    3   11 1
   8    4    5 1
   9    4   14 2
  10    5    6 ar
  11    5   10 ar
  12    6    7 ar
  13    6   28 1
  14    7    8 ar
  15    7   29 1
  16    8    9 ar
  17    8   30 1
  18    9   10 ar
  19    9   31 1
  20   11   12 2
  21   11   13 1
  22   13   32 1
  23   15   16 1
  24   15   33 1
  25   15   34 1
  26   16   17 ar
  27   16   21 ar
  28   17   18 ar
  29   17   35 1
  30   18   19 ar
  31   18   36 1
  32   19   20 ar
  33   19   25 1
  34   20   21 ar
  35   20   37 1
  36   21   38 1
  37   22   23 1
  38   22   24 2
  39   22   25 am
  40   23   26 1
  41   23   39 1
  42   23   40 1
  43   25   41 1

#	End of record

