#	Name: ASD09890022
#	Creating user name:	WinNT
#	Creation time:	15. 06. 2019 21:24

#	Modifying user name:	WinNT
#	Modification time:	15. 06. 2019 21:24

#	Program:	/corina/corina34_cracker 3.40 0067  02.08.2006

@<TRIPOS>MOLECULE
ASD09890022
  46   49    0    0    0
SMALL
NO_CHARGES


@<TRIPOS>ATOM
   1 N1            -0.0154     1.2810     0.0091 N.2     
   2 N2             0.0021    -0.0041     0.0020 N.2     
   3 C3             1.2399    -0.4338    -0.0121 C.2     
   4 N4             2.0468     0.6681    -0.0139 N.pl3   
   5 C5             1.2027     1.7448    -0.0001 C.2     
   6 C6             3.4494     0.6911    -0.0268 C.ar    
   7 C7             4.1429     0.2010    -1.1248 C.ar    
   8 C8             5.5239     0.2254    -1.1348 C.ar    
   9 C9             6.2155     0.7370    -0.0523 C.ar    
  10 C10            5.5274     1.2259     1.0428 C.ar    
  11 C11            4.1463     1.2093     1.0561 C.ar    
  12 C12            1.6062     3.1968     0.0034 C.3     
  13 O13            1.7470     3.6488     1.3517 O.3     
  14 C14            2.1095     4.9459     1.5329 C.ar    
  15 C15            2.2644     5.4514     2.8156 C.ar    
  16 C16            2.6329     6.7704     2.9971 C.ar    
  17 C17            2.8473     7.5865     1.9018 C.ar    
  18 C18            2.6931     7.0853     0.6224 C.ar    
  19 C19            2.3308     5.7653     0.4355 C.ar    
  20 O20            1.6433    -1.7277    -0.0222 O.3     
  21 C21            0.6210    -2.7261    -0.0176 C.3     
  22 C22            1.1157    -4.0022     0.6941 C.3     
  23 C23            0.5337    -5.1942    -0.0858 C.3     
  24 C24           -0.2944    -4.6008    -1.2442 C.3     
  25 C25            0.3120    -3.1922    -1.4620 C.3     
  26 H26            3.6031    -0.1994    -1.9702 H       
  27 H27            6.0640    -0.1558    -1.9889 H       
  28 H28            7.2954     0.7544    -0.0621 H       
  29 H29            6.0702     1.6250     1.8869 H       
  30 H30            3.6092     1.5954     1.9098 H       
  31 H31            2.5559     3.3112    -0.5192 H       
  32 H32            0.8410     3.7877    -0.4999 H       
  33 H33            2.0967     4.8145     3.6714 H       
  34 H34            2.7533     7.1645     3.9954 H       
  35 H35            3.1353     8.6174     2.0457 H       
  36 H36            2.8605     7.7249    -0.2315 H       
  37 H37            2.2152     5.3729    -0.5640 H       
  38 H38           -0.2801    -2.3458     0.4637 H       
  39 H39            2.2049    -4.0408     0.6770 H       
  40 H40            0.7573    -4.0186     1.7233 H       
  41 H41            1.3405    -5.8112    -0.4814 H       
  42 H42           -0.1072    -5.7890     0.5650 H       
  43 H43           -0.1826    -5.2074    -2.1429 H       
  44 H44           -1.3446    -4.5246    -0.9624 H       
  45 H45           -0.4120    -2.5290    -1.9354 H       
  46 H46            1.2262    -3.2523    -2.0524 H       
@<TRIPOS>BOND
   1    1    2 1
   2    1    5 2
   3    2    3 2
   4    3    4 1
   5    3   20 1
   6    4    5 1
   7    4    6 1
   8    5   12 1
   9    6    7 ar
  10    6   11 ar
  11    7    8 ar
  12    7   26 1
  13    8    9 ar
  14    8   27 1
  15    9   10 ar
  16    9   28 1
  17   10   11 ar
  18   10   29 1
  19   11   30 1
  20   12   13 1
  21   12   31 1
  22   12   32 1
  23   13   14 1
  24   14   15 ar
  25   14   19 ar
  26   15   16 ar
  27   15   33 1
  28   16   17 ar
  29   16   34 1
  30   17   18 ar
  31   17   35 1
  32   18   19 ar
  33   18   36 1
  34   19   37 1
  35   20   21 1
  36   21   22 1
  37   21   25 1
  38   21   38 1
  39   22   23 1
  40   22   39 1
  41   22   40 1
  42   23   24 1
  43   23   41 1
  44   23   42 1
  45   24   25 1
  46   24   43 1
  47   24   44 1
  48   25   45 1
  49   25   46 1

#	End of record

