#	Name: ASD04882221
#	Creating user name:	WinNT
#	Creation time:	15. 06. 2019 20:54

#	Modifying user name:	WinNT
#	Modification time:	15. 06. 2019 20:54

#	Program:	/corina/corina34_cracker 3.40 0067  02.08.2006

@<TRIPOS>MOLECULE
ASD04882221
  78   82    0    0    0
SMALL
NO_CHARGES


@<TRIPOS>ATOM
   1 N1            -0.1362     1.5547    -0.0364 N.am    
   2 C2            -0.0762     0.1555    -0.0457 C.ar    
   3 C3            -1.2526    -0.5956     0.0296 C.ar    
   4 C4            -1.1944    -1.9846     0.0210 C.ar    
   5 C5             0.0218    -2.6254    -0.0623 C.ar    
   6 C6             1.2020    -1.8804    -0.1384 C.ar    
   7 C7             1.1460    -0.4839    -0.1352 C.ar    
   8 N8            -2.4844     0.0481     0.1140 N.3     
   9 C9            -2.6118     0.7769     1.3837 C.3     
  10 C10           -3.5896    -0.9054    -0.0559 C.3     
  11 C11           -4.9200    -0.1490    -0.0363 C.3     
  12 N12           -5.0474     0.5799     1.2334 N.3     
  13 C13           -3.9422     1.5334     1.4032 C.3     
  14 C14           -6.2831     1.2257     1.3180 C.ar    
  15 C15            2.5046    -2.5673    -0.2271 C.2     
  16 O16            3.5308    -1.9183    -0.2933 O.2     
  17 N17            2.5572    -3.9140    -0.2348 N.am    
  18 C18            3.8508    -4.5960    -0.3229 C.3     
  19 C19            3.6307    -6.1101    -0.3129 C.3     
  20 C20            4.9817    -6.8224    -0.4049 C.3     
  21 N21            4.7710    -8.2721    -0.3954 N.am    
  22 C22            4.5715    -9.0878    -1.5991 C.3     
  23 C23            3.9695   -10.4198    -1.0992 C.3     
  24 C24            4.4899   -10.4746     0.3559 C.3     
  25 C25            4.7412    -9.0269     0.7164 C.2     
  26 O26            4.8871    -8.6074     1.8450 O.2     
  27 C27           -6.6353     2.1814     0.3732 C.ar    
  28 C28           -7.8578     2.8176     0.4595 C.ar    
  29 C29           -8.7311     2.5046     1.4853 C.ar    
  30 C30           -8.3837     1.5539     2.4272 C.ar    
  31 C31           -7.1648     0.9096     2.3435 C.ar    
  32 C32           -6.7873    -0.1268     3.3703 C.3     
  33 C33            0.8453     2.2674     0.5511 C.2     
  34 C34            0.8482     3.7366     0.4530 C.2     
  35 O35            1.7288     1.6969     1.1623 O.2     
  36 C36            1.7801     4.5722     0.9999 C.2     
  37 O37           -0.0635     4.4840    -0.1955 O.3     
  38 C38            0.2577     5.7850    -0.0734 C.2     
  39 C39            1.4021     5.8787     0.6662 C.2     
  40 C40           -0.4947     6.9154    -0.6436 C.2     
  41 N41           -1.6129     6.6874    -1.3606 N.am    
  42 O42           -0.1069     8.0545    -0.4674 O.2     
  43 H43           -0.8822     2.0110    -0.4562 H       
  44 H44           -2.1049    -2.5624     0.0800 H       
  45 H45            0.0637    -3.7046    -0.0685 H       
  46 H46            2.0563     0.0943    -0.1939 H       
  47 H47           -2.5831     0.0703     2.2131 H       
  48 H48           -1.7892     1.4854     1.4805 H       
  49 H49           -3.4798    -1.4235    -1.0086 H       
  50 H50           -3.5720    -1.6312     0.7572 H       
  51 H51           -4.9487     0.5577    -0.8657 H       
  52 H52           -5.7426    -0.8575    -0.1331 H       
  53 H53           -4.0520     2.0514     2.3560 H       
  54 H54           -3.9598     2.2592     0.5902 H       
  55 H55            1.7386    -4.4316    -0.1820 H       
  56 H56            4.3514    -4.3077    -1.2472 H       
  57 H57            4.4694    -4.3132     0.5289 H       
  58 H58            3.1301    -6.3984     0.6114 H       
  59 H59            3.0121    -6.3929    -1.1647 H       
  60 H60            5.4823    -6.5340    -1.3292 H       
  61 H61            5.6003    -6.5396     0.4468 H       
  62 H62            3.8789    -8.5928    -2.2797 H       
  63 H63            5.5253    -9.2676    -2.0952 H       
  64 H64            2.8802   -10.3888    -1.1230 H       
  65 H65            4.3472   -11.2610    -1.6804 H       
  66 H66            3.7376   -10.9095     1.0139 H       
  67 H67            5.4183   -11.0433     0.4078 H       
  68 H68           -5.9535     2.4268    -0.4277 H       
  69 H69           -8.1322     3.5607    -0.2746 H       
  70 H70           -9.6863     3.0041     1.5509 H       
  71 H71           -9.0680     1.3118     3.2270 H       
  72 H72           -7.1230    -1.1085     3.0361 H       
  73 H73           -5.7045    -0.1364     3.4958 H       
  74 H74           -7.2612     0.1148     4.3217 H       
  75 H75            2.6435     4.2809     1.5797 H       
  76 H76            1.9175     6.7872     0.9409 H       
  77 H77           -1.9222     5.7789    -1.5011 H       
  78 H78           -2.1084     7.4320    -1.7361 H       
@<TRIPOS>BOND
   1    1    2 1
   2    1   33 am
   3    1   43 1
   4    2    3 ar
   5    2    7 ar
   6    3    4 ar
   7    3    8 1
   8    4    5 ar
   9    4   44 1
  10    5    6 ar
  11    5   45 1
  12    6    7 ar
  13    6   15 1
  14    7   46 1
  15    8    9 1
  16    8   10 1
  17    9   13 1
  18    9   47 1
  19    9   48 1
  20   10   11 1
  21   10   49 1
  22   10   50 1
  23   11   12 1
  24   11   51 1
  25   11   52 1
  26   12   13 1
  27   12   14 1
  28   13   53 1
  29   13   54 1
  30   14   27 ar
  31   14   31 ar
  32   15   16 2
  33   15   17 am
  34   17   18 1
  35   17   55 1
  36   18   19 1
  37   18   56 1
  38   18   57 1
  39   19   20 1
  40   19   58 1
  41   19   59 1
  42   20   21 1
  43   20   60 1
  44   20   61 1
  45   21   22 1
  46   21   25 am
  47   22   23 1
  48   22   62 1
  49   22   63 1
  50   23   24 1
  51   23   64 1
  52   23   65 1
  53   24   25 1
  54   24   66 1
  55   24   67 1
  56   25   26 2
  57   27   28 ar
  58   27   68 1
  59   28   29 ar
  60   28   69 1
  61   29   30 ar
  62   29   70 1
  63   30   31 ar
  64   30   71 1
  65   31   32 1
  66   32   72 1
  67   32   73 1
  68   32   74 1
  69   33   34 1
  70   33   35 2
  71   34   36 2
  72   34   37 1
  73   36   39 1
  74   36   75 1
  75   37   38 1
  76   38   39 2
  77   38   40 1
  78   39   76 1
  79   40   41 am
  80   40   42 2
  81   41   77 1
  82   41   78 1

#	End of record

