#	Name: ASD01180156
#	Creating user name:	WinNT
#	Creation time:	15. 06. 2019 19:06

#	Modifying user name:	WinNT
#	Modification time:	15. 06. 2019 19:06

#	Program:	/corina/corina34_cracker 3.40 0067  02.08.2006

@<TRIPOS>MOLECULE
ASD01180156
  50   52    0    0    0
SMALL
NO_CHARGES


@<TRIPOS>ATOM
   1 C1             0.5494     1.4150     0.6575 C.2     
   2 C2             0.3958    -0.0448     0.4912 C.ar    
   3 C3             1.5197    -0.8508     0.2989 C.ar    
   4 C4             1.3691    -2.2133     0.1448 C.ar    
   5 C5             0.1080    -2.7816     0.1800 C.ar    
   6 C6            -1.0100    -1.9887     0.3698 C.ar    
   7 C7            -0.8733    -0.6256     0.5314 C.ar    
   8 O8             1.6552     1.9167     0.6271 O.2     
   9 O9            -0.5374     2.1904     0.8373 O.3     
  10 C10           -0.0487    -4.2708     0.0104 C.3     
  11 C11           -0.2331    -4.9237     1.3818 C.3     
  12 C12           -0.2782    -6.4445     1.2207 C.3     
  13 C13            1.0796    -6.9452     0.7239 C.3     
  14 N14           -1.2212    -4.5467    -0.8234 N.pl3   
  15 N15            0.2370    -4.1329    -4.1217 N.ar    
  16 C16            0.1140    -4.2175    -2.8207 C.ar    
  17 C17           -1.1245    -4.4622    -2.2144 C.ar    
  18 C18           -2.2502    -4.6201    -2.9998 C.ar    
  19 C19           -2.1005    -4.5267    -4.3955 C.ar    
  20 C20           -3.1986    -4.6761    -5.2582 C.ar    
  21 C21           -3.0153    -4.5791    -6.6039 C.ar    
  22 C22           -1.7518    -4.3335    -7.1369 C.ar    
  23 C23           -0.6659    -4.1836    -6.3302 C.ar    
  24 C24           -0.8140    -4.2768    -4.9354 C.ar    
  25 C25            0.6908    -3.9181    -6.9303 C.3     
  26 C26           -0.5976    -7.0910     2.5701 C.3     
  27 H27            2.5045    -0.4085     0.2705 H       
  28 H28            2.2375    -2.8379    -0.0040 H       
  29 H29           -1.9915    -2.4386     0.3955 H       
  30 H30           -1.7463    -0.0084     0.6843 H       
  31 H31           -0.3868     3.1399     0.9415 H       
  32 H32            0.8418    -4.6776    -0.4688 H       
  33 H33            0.6007    -4.6514     2.0289 H       
  34 H34           -1.1662    -4.5776     1.8264 H       
  35 H35           -1.0500    -6.7106     0.4985 H       
  36 H36            1.0275    -8.0191     0.5450 H       
  37 H37            1.3380    -6.4344    -0.2037 H       
  38 H38            1.8405    -6.7387     1.4765 H       
  39 H39           -2.0647    -4.7879    -0.4096 H       
  40 H40            0.9892    -4.0953    -2.1999 H       
  41 H41           -3.2161    -4.8099    -2.5556 H       
  42 H42           -4.1828    -4.8671    -4.8565 H       
  43 H43           -3.8602    -4.6945    -7.2666 H       
  44 H44           -1.6319    -4.2613    -8.2078 H       
  45 H45            0.8417    -2.8428    -7.0258 H       
  46 H46            1.4622    -4.3373    -6.2843 H       
  47 H47            0.7497    -4.3821    -7.9149 H       
  48 H48           -1.5648    -6.7343     2.9240 H       
  49 H49           -0.6297    -8.1745     2.4553 H       
  50 H50            0.1743    -6.8249     3.2923 H       
@<TRIPOS>BOND
   1    1    2 1
   2    1    8 2
   3    1    9 1
   4    2    3 ar
   5    2    7 ar
   6    3    4 ar
   7    3   27 1
   8    4    5 ar
   9    4   28 1
  10    5    6 ar
  11    5   10 1
  12    6    7 ar
  13    6   29 1
  14    7   30 1
  15    9   31 1
  16   10   11 1
  17   10   14 1
  18   10   32 1
  19   11   12 1
  20   11   33 1
  21   11   34 1
  22   12   13 1
  23   12   26 1
  24   12   35 1
  25   13   36 1
  26   13   37 1
  27   13   38 1
  28   14   17 1
  29   14   39 1
  30   15   16 ar
  31   15   24 ar
  32   16   17 ar
  33   16   40 1
  34   17   18 ar
  35   18   19 ar
  36   18   41 1
  37   19   20 ar
  38   19   24 ar
  39   20   21 ar
  40   20   42 1
  41   21   22 ar
  42   21   43 1
  43   22   23 ar
  44   22   44 1
  45   23   24 ar
  46   23   25 1
  47   25   45 1
  48   25   46 1
  49   25   47 1
  50   26   48 1
  51   26   49 1
  52   26   50 1

#	End of record

