#	Name: ASD08170031
#	Creating user name:	WinNT
#	Creation time:	15. 06. 2019 21:17

#	Modifying user name:	WinNT
#	Modification time:	15. 06. 2019 21:17

#	Program:	/corina/corina34_cracker 3.40 0067  02.08.2006

@<TRIPOS>MOLECULE
ASD08170031
  44   46    0    0    0
SMALL
NO_CHARGES


@<TRIPOS>ATOM
   1 C1            -0.0184     1.5028     0.0103 C.3     
   2 C2             0.0021    -0.0041     0.0020 C.2     
   3 C3            -1.1370    -2.0836     0.0017 C.2     
   4 N4            -0.0645    -2.8115    -0.0120 N.2     
   5 C5            -0.2310    -4.1209    -0.0121 C.2     
   6 C6            -1.5048    -4.5182     0.0022 C.2     
   7 S7            -2.5249    -3.0819     0.0164 S.3     
   8 C8            -1.9867    -5.9461     0.0046 C.3     
   9 C9            -2.1325    -6.4327     1.4478 C.3     
  10 C10           -2.6217    -7.8824     1.4502 C.3     
  11 C11           -2.7676    -8.3690     2.8934 C.3     
  12 C12           -3.2494    -9.7969     2.8958 C.2     
  13 S13           -4.9332   -10.3252     2.9146 S.3     
  14 C14           -4.3720   -11.9986     2.9040 C.2     
  15 N15           -3.0699   -11.9786     2.8885 N.2     
  16 N16           -2.5025   -10.8525     2.8788 N.2     
  17 N17           -5.1733   -13.1307     2.9109 N.pl3   
  18 O18            1.0605    -0.5961    -0.0113 O.2     
  19 N19           -1.1558    -0.6938     0.0094 N.am    
  20 C20            1.3954     2.0244    -0.0004 C.ar    
  21 C21            2.0324     2.2701    -1.2024 C.ar    
  22 C22            3.3293     2.7485    -1.2122 C.ar    
  23 C23            3.9890     2.9817    -0.0200 C.ar    
  24 C24            3.3517     2.7369     1.1820 C.ar    
  25 C25            2.0533     2.2626     1.1918 C.ar    
  26 H26           -0.5455     1.8639    -0.8728 H       
  27 H27           -0.5286     1.8543     0.9071 H       
  28 H28            0.5967    -4.8145    -0.0232 H       
  29 H29           -2.9521    -6.0046    -0.4979 H       
  30 H30           -1.2658    -6.5737    -0.5194 H       
  31 H31           -1.1670    -6.3742     1.9502 H       
  32 H32           -2.8534    -5.8051     1.9717 H       
  33 H33           -3.5872    -7.9409     0.9477 H       
  34 H34           -1.9008    -8.5100     0.9262 H       
  35 H35           -1.8021    -8.3105     3.3959 H       
  36 H36           -3.4885    -7.7414     3.4173 H       
  37 H37           -6.1390   -13.0413     2.9226 H       
  38 H38           -4.7678   -14.0119     2.9040 H       
  39 H39           -2.0023    -0.2203     0.0200 H       
  40 H40            1.5170     2.0879    -2.1338 H       
  41 H41            3.8272     2.9397    -2.1513 H       
  42 H42            5.0025     3.3548    -0.0277 H       
  43 H43            3.8673     2.9187     2.1134 H       
  44 H44            1.5554     2.0713     2.1309 H       
@<TRIPOS>BOND
   1    1    2 1
   2    1   20 1
   3    1   26 1
   4    1   27 1
   5    2   18 2
   6    2   19 am
   7    3    4 2
   8    3    7 1
   9    3   19 1
  10    4    5 1
  11    5    6 2
  12    5   28 1
  13    6    7 1
  14    6    8 1
  15    8    9 1
  16    8   29 1
  17    8   30 1
  18    9   10 1
  19    9   31 1
  20    9   32 1
  21   10   11 1
  22   10   33 1
  23   10   34 1
  24   11   12 1
  25   11   35 1
  26   11   36 1
  27   12   13 1
  28   12   16 2
  29   13   14 1
  30   14   15 2
  31   14   17 1
  32   15   16 1
  33   17   37 1
  34   17   38 1
  35   19   39 1
  36   20   21 ar
  37   20   25 ar
  38   21   22 ar
  39   21   40 1
  40   22   23 ar
  41   22   41 1
  42   23   24 ar
  43   23   42 1
  44   24   25 ar
  45   24   43 1
  46   25   44 1

#	End of record

