#	Name: ASD09740116
#	Creating user name:	WinNT
#	Creation time:	15. 06. 2019 21:22

#	Modifying user name:	WinNT
#	Modification time:	15. 06. 2019 21:22

#	Program:	/corina/corina34_cracker 3.40 0067  02.08.2006

@<TRIPOS>MOLECULE
ASD09740116
  32   34    0    0    0
SMALL
NO_CHARGES


@<TRIPOS>ATOM
   1 N1            -0.0144     1.2087     0.0087 N.2     
   2 O2             0.0021    -0.0041     0.0020 O.3     
   3 C3             1.2073     1.6747    -0.0005 C.2     
   4 N4             2.0407     0.6099    -0.0142 N.2     
   5 C5             1.2640    -0.4447    -0.0124 C.2     
   6 C6             1.8706    -2.3713     1.3934 C.ar    
   7 C7             1.6049     3.1047     0.0030 C.ar    
   8 C8             0.6311     4.1010     0.0177 C.ar    
   9 C9             1.0065     5.4292     0.0213 C.ar    
  10 C10            2.3465     5.7719     0.0099 C.ar    
  11 C11            3.3174     4.7868    -0.0047 C.ar    
  12 C12            2.9533     3.4555    -0.0027 C.ar    
  13 C13            0.8087    -2.9527     2.0692 C.ar    
  14 C14            0.9957    -3.3927     3.3660 C.ar    
  15 N15            2.1661    -3.2643     3.9597 N.ar    
  16 C16            3.1978    -2.7166     3.3477 C.ar    
  17 C17            3.0860    -2.2539     2.0502 C.ar    
  18 C18            1.7093    -1.8843    -0.0236 C.3     
  19 C19            2.7502     7.2238     0.0129 C.3     
  20 F20            2.8879     7.6668     1.3328 F       
  21 F21            3.9691     7.3703    -0.6578 F       
  22 F22            1.7682     7.9822    -0.6334 F       
  23 H23           -0.4154     3.8346     0.0259 H       
  24 H24            0.2525     6.2024     0.0327 H       
  25 H25            4.3622     5.0599    -0.0136 H       
  26 H26            3.7121     2.6871    -0.0137 H       
  27 H27           -0.1525    -3.0600     1.5886 H       
  28 H28            0.1735    -3.8467     3.8993 H       
  29 H29            4.1408    -2.6281     3.8665 H       
  30 H30            3.9346    -1.8065     1.5541 H       
  31 H31            0.9618    -2.4919    -0.5338 H       
  32 H32            2.6622    -1.9658    -0.5465 H       
@<TRIPOS>BOND
   1    1    2 1
   2    1    3 2
   3    2    5 1
   4    3    4 1
   5    3    7 1
   6    4    5 2
   7    5   18 1
   8    6   13 ar
   9    6   17 ar
  10    6   18 1
  11    7    8 ar
  12    7   12 ar
  13    8    9 ar
  14    8   23 1
  15    9   10 ar
  16    9   24 1
  17   10   11 ar
  18   10   19 1
  19   11   12 ar
  20   11   25 1
  21   12   26 1
  22   13   14 ar
  23   13   27 1
  24   14   15 ar
  25   14   28 1
  26   15   16 ar
  27   16   17 ar
  28   16   29 1
  29   17   30 1
  30   18   31 1
  31   18   32 1
  32   19   20 1
  33   19   21 1
  34   19   22 1

#	End of record

