#	Name: ASD01917558
#	Creating user name:	WinNT
#	Creation time:	15. 06. 2019 20:09

#	Modifying user name:	WinNT
#	Modification time:	15. 06. 2019 20:09

#	Program:	/corina/corina34_cracker 3.40 0067  02.08.2006

@<TRIPOS>MOLECULE
ASD01917558
  38   41    0    0    0
SMALL
NO_CHARGES


@<TRIPOS>ATOM
   1 N1             4.8220    -0.4106    -2.1397 N.ar    
   2 C2             5.2888     0.2866    -3.1570 C.ar    
   3 C3             5.1760     1.6664    -3.1836 C.ar    
   4 C4             4.5619     2.3156    -2.1219 C.ar    
   5 C5             4.0814     1.5472    -1.0668 C.ar    
   6 C6             4.2326     0.1684    -1.1129 C.ar    
   7 F7             5.6582     2.3720    -4.2300 F       
   8 O8             3.4731     2.1385    -0.0051 O.3     
   9 C9             3.4534     3.4978     0.0440 C.2     
  10 N10            2.2007     5.5129    -0.0224 N.pl3   
  11 C11            2.2715     4.1523    -0.0658 C.2     
  12 C12            4.6542     4.1994     0.2130 C.2     
  13 C13            4.6288     5.5876     0.2626 C.2     
  14 C14            3.3357     6.2651     0.1348 C.2     
  15 C15            5.8699     6.3587     0.4395 C.2     
  16 N16            5.8261     7.7050     0.4853 N.am    
  17 C17            6.9834     8.4307     0.7580 C.ar    
  18 N18            8.1432     7.8000     0.8640 N.ar    
  19 C19            6.9108     9.8099     0.9106 C.ar    
  20 C20            8.0679    10.5206     1.1815 C.ar    
  21 C21            9.2624     9.8246     1.2909 C.ar    
  22 C22            9.2635     8.4504     1.1216 C.ar    
  23 O23            6.9352     5.7810     0.5444 O.2     
  24 C24            1.1517     6.3894    -0.1088 C.2     
  25 C25            1.6641     7.6346    -0.0116 C.2     
  26 N26            2.9889     7.5394     0.1420 N.2     
  27 F27           10.4244     7.7666     1.2213 F       
  28 H28            5.7656    -0.2251    -3.9799 H       
  29 H29            4.4599     3.3907    -2.1149 H       
  30 H30            3.8628    -0.4369    -0.2985 H       
  31 H31            1.3633     3.5815    -0.1911 H       
  32 H32            5.5894     3.6669     0.3042 H       
  33 H33            4.9886     8.1686     0.3283 H       
  34 H34            5.9639    10.3212     0.8188 H       
  35 H35            8.0408    11.5932     1.3046 H       
  36 H36           10.1826    10.3494     1.5012 H       
  37 H37            0.1105     6.1327    -0.2376 H       
  38 H38            1.0977     8.5535    -0.0436 H       
@<TRIPOS>BOND
   1    1    2 ar
   2    1    6 ar
   3    2    3 ar
   4    2   28 1
   5    3    4 ar
   6    3    7 1
   7    4    5 ar
   8    4   29 1
   9    5    6 ar
  10    5    8 1
  11    6   30 1
  12    8    9 1
  13    9   12 1
  14    9   11 2
  15   10   11 1
  16   10   24 1
  17   10   14 1
  18   11   31 1
  19   12   13 2
  20   12   32 1
  21   13   14 1
  22   13   15 1
  23   14   26 2
  24   15   16 am
  25   15   23 2
  26   16   17 1
  27   16   33 1
  28   17   19 ar
  29   17   18 ar
  30   18   22 ar
  31   19   20 ar
  32   19   34 1
  33   20   21 ar
  34   20   35 1
  35   21   22 ar
  36   21   36 1
  37   22   27 1
  38   24   25 2
  39   24   37 1
  40   25   26 1
  41   25   38 1

#	End of record

