#	Name: ASD03331635
#	Creating user name:	WinNT
#	Creation time:	15. 06. 2019 20:39

#	Modifying user name:	WinNT
#	Modification time:	15. 06. 2019 20:39

#	Program:	/corina/corina34_cracker 3.40 0067  02.08.2006

@<TRIPOS>MOLECULE
ASD03331635
  56   58    0    0    0
SMALL
NO_CHARGES


@<TRIPOS>ATOM
   1 C1            -0.0179     1.4665     0.0101 C.3     
   2 N2             0.0021    -0.0041     0.0020 N.am    
   3 C3             0.5757    -0.6835    -1.1754 C.3     
   4 C4             1.8363     0.0608    -1.5407 C.2     
   5 N5             2.1944     1.2621    -1.0071 N.pl3   
   6 C6             1.4215     1.9935    -0.0008 C.3     
   7 C7             2.8053    -0.2964    -2.4210 C.2     
   8 N8             3.7376     0.6832    -2.4241 N.2     
   9 C9             3.3769     1.6223    -1.5798 C.2     
  10 C10            4.1292     2.8646    -1.2980 C.ar    
  11 C11            2.8363    -1.5293    -3.2275 C.2     
  12 O12            1.9336    -2.3391    -3.1354 O.2     
  13 C13            5.1501     3.2749    -2.1560 C.ar    
  14 N14            3.8651    -1.7596    -4.0671 N.am    
  15 S15           -0.6010    -0.8717     1.2771 S.o2    
  16 O16            0.1069    -2.1029     1.2292 O.2     
  17 O17           -0.4731     0.0041     2.3887 O.2     
  18 C18           -2.3491    -1.1262     0.8650 C.3     
  19 C19           -3.0249    -1.9261     1.9805 C.3     
  20 C20            3.8960    -2.9854    -4.8689 C.3     
  21 C21            5.1606    -2.9999    -5.7300 C.3     
  22 C22            5.8482     4.4342    -1.8882 C.ar    
  23 C23            5.5374     5.1902    -0.7705 C.ar    
  24 C24            4.5252     4.7878     0.0845 C.ar    
  25 C25            3.8165     3.6334    -0.1764 C.ar    
  26 C26            6.3906    -4.2373    -7.5183 C.3     
  27 C27            5.1928    -4.2800    -6.5673 C.3     
  28 Cl28           6.4206     6.6476    -0.4394 Cl      
  29 C29            5.3194    -5.4917    -5.6418 C.3     
  30 H30           -0.5443     1.8280    -0.8732 H       
  31 H31           -0.5273     1.8184     0.9071 H       
  32 H32            0.8127    -1.7185    -0.9291 H       
  33 H33           -0.1302    -0.6497    -2.0053 H       
  34 H34            1.4184     3.0558    -0.2451 H       
  35 H35            1.8707     1.8462     0.9813 H       
  36 H36            5.3936     2.6859    -3.0278 H       
  37 H37            4.5851    -1.1138    -4.1406 H       
  38 H38           -2.8423    -0.1597     0.7609 H       
  39 H39           -2.4250    -1.6757    -0.0733 H       
  40 H40           -2.9491    -1.3766     2.9188 H       
  41 H41           -4.0753    -2.0790     1.7329 H       
  42 H42           -2.5317    -2.8926     2.0846 H       
  43 H43            3.8965    -3.8520    -4.2079 H       
  44 H44            3.0174    -3.0203    -5.5131 H       
  45 H45            5.1600    -2.1332    -6.3910 H       
  46 H46            6.0392    -2.9649    -5.0858 H       
  47 H47            6.6389     4.7525    -2.5514 H       
  48 H48            4.2870     5.3813     0.9548 H       
  49 H49            3.0270     3.3207     0.4909 H       
  50 H50            7.3111    -4.1582    -6.9400 H       
  51 H51            6.4136    -5.1493    -8.1149 H       
  52 H52            6.3005    -3.3740    -8.1777 H       
  53 H53            4.2723    -4.3591    -7.1457 H       
  54 H54            5.3423    -6.4037    -6.2384 H       
  55 H55            6.2399    -5.4126    -5.0635 H       
  56 H56            4.4660    -5.5221    -4.9643 H       
@<TRIPOS>BOND
   1    1    2 1
   2    1    6 1
   3    1   30 1
   4    1   31 1
   5    2    3 1
   6    2   15 am
   7    3    4 1
   8    3   32 1
   9    3   33 1
  10    4    5 1
  11    4    7 2
  12    5    6 1
  13    5    9 1
  14    6   34 1
  15    6   35 1
  16    7    8 1
  17    7   11 1
  18    8    9 2
  19    9   10 1
  20   10   13 ar
  21   10   25 ar
  22   11   12 2
  23   11   14 am
  24   13   22 ar
  25   13   36 1
  26   14   20 1
  27   14   37 1
  28   15   16 2
  29   15   17 2
  30   15   18 1
  31   18   19 1
  32   18   38 1
  33   18   39 1
  34   19   40 1
  35   19   41 1
  36   19   42 1
  37   20   21 1
  38   20   43 1
  39   20   44 1
  40   21   27 1
  41   21   45 1
  42   21   46 1
  43   22   23 ar
  44   22   47 1
  45   23   24 ar
  46   23   28 1
  47   24   25 ar
  48   24   48 1
  49   25   49 1
  50   26   27 1
  51   26   50 1
  52   26   51 1
  53   26   52 1
  54   27   29 1
  55   27   53 1
  56   29   54 1
  57   29   55 1
  58   29   56 1

#	End of record

