#	Name: ASD00061028
#	Creating user name:	WinNT
#	Creation time:	15. 06. 2019 18:29

#	Modifying user name:	WinNT
#	Modification time:	15. 06. 2019 18:29

#	Program:	/corina/corina34_cracker 3.40 0067  02.08.2006

@<TRIPOS>MOLECULE
ASD00061028
  39   40    0    0    0
SMALL
NO_CHARGES


@<TRIPOS>ATOM
   1 C1            -0.4192     3.8807    -0.3627 C.ar    
   2 C2            -0.9242     2.5949    -0.4606 C.ar    
   3 C3            -0.0683     1.5062    -0.4721 C.ar    
   4 C4             1.2944     1.6955    -0.3861 C.ar    
   5 C5             1.8120     2.9913    -0.2870 C.ar    
   6 C6             0.9412     4.0858    -0.2760 C.ar    
   7 C7             3.2652     3.2017    -0.1944 C.2     
   8 C8             3.8188     4.5993    -0.0878 C.3     
   9 O9             4.0174     2.2507    -0.2038 O.2     
  10 C10            5.3299     4.5330     0.1430 C.3     
  11 C11            5.9036     5.9263     0.1172 C.ar    
  12 C12            6.8657     6.2604    -0.8175 C.ar    
  13 C13            7.3919     7.5385    -0.8412 C.ar    
  14 C14            6.9558     8.4825     0.0695 C.ar    
  15 C15            5.9930     8.1487     1.0036 C.ar    
  16 C16            5.4636     6.8719     1.0245 C.ar    
  17 I17           -2.9936     2.2951    -0.5912 I       
  18 C18            5.6104     3.8911     1.5032 C.3     
  19 C19            7.0919     3.9223     1.7774 C.2     
  20 O20            7.5100     4.4541     2.7786 O.2     
  21 O21            7.9472     3.3594     0.9094 O.3     
  22 C22            4.8842     4.6565     2.5792 C.2     
  23 O23            5.4717     5.4870     3.2311 O.2     
  24 O24            3.5846     4.4155     2.8134 O.3     
  25 H25           -1.0926     4.7250    -0.3588 H       
  26 H26           -0.4695     0.5064    -0.5483 H       
  27 H27            1.9607     0.8456    -0.3949 H       
  28 H28            1.3336     5.0891    -0.2001 H       
  29 H29            3.6157     5.1420    -1.0110 H       
  30 H30            3.3459     5.1147     0.7482 H       
  31 H31            5.7916     3.9354    -0.6430 H       
  32 H32            7.2064     5.5229    -1.5291 H       
  33 H33            8.1441     7.7993    -1.5710 H       
  34 H34            7.3675     9.4808     0.0515 H       
  35 H35            5.6525     8.8861     1.7154 H       
  36 H36            4.7115     6.6110     1.7543 H       
  37 H37            5.2640     2.8576     1.4956 H       
  38 H38            8.8909     3.4691     1.0892 H       
  39 H39            3.1617     4.9312     3.5136 H       
@<TRIPOS>BOND
   1    1    2 ar
   2    1    6 ar
   3    1   25 1
   4    2    3 ar
   5    2   17 1
   6    3    4 ar
   7    3   26 1
   8    4    5 ar
   9    4   27 1
  10    5    6 ar
  11    5    7 1
  12    6   28 1
  13    7    8 1
  14    7    9 2
  15    8   10 1
  16    8   29 1
  17    8   30 1
  18   10   11 1
  19   10   18 1
  20   10   31 1
  21   11   12 ar
  22   11   16 ar
  23   12   13 ar
  24   12   32 1
  25   13   14 ar
  26   13   33 1
  27   14   15 ar
  28   14   34 1
  29   15   16 ar
  30   15   35 1
  31   16   36 1
  32   18   19 1
  33   18   22 1
  34   18   37 1
  35   19   20 2
  36   19   21 1
  37   21   38 1
  38   22   23 2
  39   22   24 1
  40   24   39 1

#	End of record

