#	Name: ASD01910879
#	Creating user name:	WinNT
#	Creation time:	15. 06. 2019 19:56

#	Modifying user name:	WinNT
#	Modification time:	15. 06. 2019 19:56

#	Program:	/corina/corina34_cracker 3.40 0067  02.08.2006

@<TRIPOS>MOLECULE
ASD01910879
  51   55    0    0    0
SMALL
NO_CHARGES


@<TRIPOS>ATOM
   1 C1             0.1995     1.5056    -0.2549 C.2     
   2 N2             0.1404     0.1121    -0.1999 N.3     
   3 C3             1.4876    -0.4697    -0.1335 C.3     
   4 C4             1.3773    -1.9790     0.1075 C.3     
   5 N5             0.5016    -2.5542    -0.9248 N.am    
   6 C6            -0.8146    -1.9355    -1.1444 C.3     
   7 C7            -0.6180    -0.4279    -1.3362 C.3     
   8 C8             0.8946    -3.6201    -1.6499 C.2     
   9 C9            -0.0466    -4.2596    -2.5942 C.ar    
  10 C10            0.4071    -4.7136    -3.8346 C.ar    
  11 C11           -0.4700    -5.3112    -4.7185 C.ar    
  12 C12           -1.8001    -5.4644    -4.3837 C.ar    
  13 C13           -2.2687    -5.0142    -3.1454 C.ar    
  14 C14           -1.3865    -4.4155    -2.2461 C.ar    
  15 C15           -3.6490    -5.1731    -2.7990 C.1     
  16 O16            2.0227    -4.0558    -1.5276 O.2     
  17 C17           -4.7807    -5.3034    -2.5151 C.1     
  18 C18           -6.1611    -5.4623    -2.1688 C.ar    
  19 C19           -6.6400    -5.0162    -0.9345 C.ar    
  20 N20           -7.9095    -5.1628    -0.6168 N.ar    
  21 C21           -8.7726    -5.7290    -1.4381 C.ar    
  22 C22           -8.3777    -6.1976    -2.6787 C.ar    
  23 C23           -7.0563    -6.0628    -3.0645 C.ar    
  24 N24            1.3310     2.1278    -0.2451 N.2     
  25 S25            1.0439     3.7952    -0.3221 S.3     
  26 C26           -0.7169     3.6839    -0.3724 C.ar    
  27 C27           -1.0110     2.3083    -0.3316 C.ar    
  28 C28           -1.7319     4.6283    -0.4426 C.ar    
  29 C29           -3.0369     4.2213    -0.4666 C.ar    
  30 C30           -3.3463     2.8675    -0.4205 C.ar    
  31 C31           -2.3677     1.9236    -0.3595 C.ar    
  32 H32            2.0087    -0.2886    -1.0736 H       
  33 H33            2.0423    -0.0103     0.6846 H       
  34 H34            2.3660    -2.4332     0.0435 H       
  35 H35            0.9502    -2.1621     1.0935 H       
  36 H36           -1.2750    -2.3611    -2.0361 H       
  37 H37           -1.4523    -2.1144    -0.2788 H       
  38 H38           -1.5903     0.0617    -1.3902 H       
  39 H39           -0.0675    -0.2474    -2.2595 H       
  40 H40            1.4465    -4.5968    -4.1035 H       
  41 H41           -0.1133    -5.6600    -5.6764 H       
  42 H42           -2.4806    -5.9326    -5.0795 H       
  43 H43           -1.7424    -4.0658    -1.2883 H       
  44 H44           -5.9634    -4.5477    -0.2351 H       
  45 H45           -9.8050    -5.8289    -1.1369 H       
  46 H46           -9.0949    -6.6598    -3.3409 H       
  47 H47           -6.7210    -6.4196    -4.0272 H       
  48 H48           -1.4916     5.6807    -0.4777 H       
  49 H49           -3.8289     4.9536    -0.5212 H       
  50 H50           -4.3811     2.5587    -0.4394 H       
  51 H51           -2.6312     0.8768    -0.3244 H       
@<TRIPOS>BOND
   1    1    2 1
   2    1   24 2
   3    1   27 1
   4    2    3 1
   5    2    7 1
   6    3    4 1
   7    3   32 1
   8    3   33 1
   9    4    5 1
  10    4   34 1
  11    4   35 1
  12    5    6 1
  13    5    8 am
  14    6    7 1
  15    6   36 1
  16    6   37 1
  17    7   38 1
  18    7   39 1
  19    8    9 1
  20    8   16 2
  21    9   10 ar
  22    9   14 ar
  23   10   11 ar
  24   10   40 1
  25   11   12 ar
  26   11   41 1
  27   12   13 ar
  28   12   42 1
  29   13   14 ar
  30   13   15 1
  31   14   43 1
  32   15   17 3
  33   17   18 1
  34   18   19 ar
  35   18   23 ar
  36   19   20 ar
  37   19   44 1
  38   20   21 ar
  39   21   22 ar
  40   21   45 1
  41   22   23 ar
  42   22   46 1
  43   23   47 1
  44   24   25 1
  45   25   26 1
  46   26   27 ar
  47   26   28 ar
  48   27   31 ar
  49   28   29 ar
  50   28   48 1
  51   29   30 ar
  52   29   49 1
  53   30   31 ar
  54   30   50 1
  55   31   51 1

#	End of record

