#	Name: ASD01882398
#	Creating user name:	WinNT
#	Creation time:	15. 06. 2019 19:44

#	Modifying user name:	WinNT
#	Modification time:	15. 06. 2019 19:44

#	Program:	/corina/corina34_cracker 3.40 0067  02.08.2006

@<TRIPOS>MOLECULE
ASD01882398
  54   58    0    0    0
SMALL
NO_CHARGES


@<TRIPOS>ATOM
   1 C1             1.7965     1.7391     0.6688 C.2     
   2 C2             1.8601     0.3354     0.6762 C.2     
   3 C3             1.4340    -0.3573    -0.4244 C.2     
   4 C4             0.9399     0.3480    -1.5434 C.2     
   5 C5             0.8878     1.6942    -1.5289 C.2     
   6 N6             1.3102     2.3942    -0.4365 N.pl3   
   7 N7             1.8681     3.8332     1.0663 N.2     
   8 N8             2.1177     2.6694     1.5549 N.2     
   9 C9             1.3759     3.7239    -0.1395 C.2     
  10 C10            2.3914    -0.3980     1.8808 C.3     
  11 F11            3.7476    -0.6847     1.6915 F       
  12 F12            2.2382     0.4015     3.0186 F       
  13 F13            1.6818    -1.5916     2.0505 F       
  14 N14            1.4878    -1.7478    -0.4409 N.pl3   
  15 C15            2.7772    -2.4539    -0.3991 C.3     
  16 C16            2.8124    -3.4713    -1.5445 C.3     
  17 N17            1.6277    -4.3361    -1.4636 N.3     
  18 C18            0.3909    -3.5637    -1.6419 C.3     
  19 C19            0.2563    -2.5502    -0.4944 C.3     
  20 C20            4.0767    -4.3254    -1.4302 C.3     
  21 C21            1.7047    -5.3786    -2.3898 C.ar    
  22 C22            1.7425    -6.6962    -1.9524 C.ar    
  23 C23            1.8189    -7.7272    -2.8716 C.ar    
  24 C24            1.8581    -7.4462    -4.2270 C.ar    
  25 C25            1.8210    -6.1332    -4.6654 C.ar    
  26 C26            1.7379    -5.0993    -3.7499 C.ar    
  27 F27            1.8598    -5.8618    -5.9883 F       
  28 F28            1.8557    -9.0091    -2.4467 F       
  29 C29            0.9556     4.8593    -1.0368 C.3     
  30 C30           -0.5185     5.1862    -0.7893 C.3     
  31 C31           -1.1072     6.3930    -1.5226 C.3     
  32 C32           -1.4933     4.9755    -1.9496 C.3     
  33 H33            0.6028    -0.1939    -2.4146 H       
  34 H34            0.5085     2.2242    -2.3901 H       
  35 H35            3.5906    -1.7385    -0.5198 H       
  36 H36            2.8802    -2.9722     0.5543 H       
  37 H37            2.8138    -2.9447    -2.4988 H       
  38 H38            0.4261    -3.0358    -2.5949 H       
  39 H39           -0.4645    -4.2392    -1.6312 H       
  40 H40            0.1216    -3.0775     0.4500 H       
  41 H41           -0.5978    -1.8984    -0.6781 H       
  42 H42            4.0747    -4.8514    -0.4755 H       
  43 H43            4.1006    -5.0499    -2.2442 H       
  44 H44            4.9555    -3.6833    -1.4893 H       
  45 H45            1.7127    -6.9157    -0.8954 H       
  46 H46            1.9181    -8.2523    -4.9433 H       
  47 H47            1.7038    -4.0756    -4.0924 H       
  48 H48            1.5638     5.7376    -0.8206 H       
  49 H49            1.0935     4.5694    -2.0785 H       
  50 H50           -0.8825     4.9824     0.2177 H       
  51 H51           -1.8589     6.9830    -0.9982 H       
  52 H52           -0.4444     6.9541    -2.1814 H       
  53 H53           -1.0845     4.6039    -2.8892 H       
  54 H54           -2.4990     4.6328    -1.7061 H       
@<TRIPOS>BOND
   1    1    2 1
   2    1    6 1
   3    1    8 2
   4    2    3 2
   5    2   10 1
   6    3    4 1
   7    3   14 1
   8    4    5 2
   9    4   33 1
  10    5    6 1
  11    5   34 1
  12    6    9 1
  13    7    8 1
  14    7    9 2
  15    9   29 1
  16   10   11 1
  17   10   12 1
  18   10   13 1
  19   14   15 1
  20   14   19 1
  21   15   16 1
  22   15   35 1
  23   15   36 1
  24   16   17 1
  25   16   20 1
  26   16   37 1
  27   17   18 1
  28   17   21 1
  29   18   19 1
  30   18   38 1
  31   18   39 1
  32   19   40 1
  33   19   41 1
  34   20   42 1
  35   20   43 1
  36   20   44 1
  37   21   22 ar
  38   21   26 ar
  39   22   23 ar
  40   22   45 1
  41   23   24 ar
  42   23   28 1
  43   24   25 ar
  44   24   46 1
  45   25   26 ar
  46   25   27 1
  47   26   47 1
  48   29   30 1
  49   29   48 1
  50   29   49 1
  51   30   31 1
  52   30   32 1
  53   30   50 1
  54   31   32 1
  55   31   51 1
  56   31   52 1
  57   32   53 1
  58   32   54 1

#	End of record

