#	Name: ASD01180229
#	Creating user name:	WinNT
#	Creation time:	15. 06. 2019 19:07

#	Modifying user name:	WinNT
#	Modification time:	15. 06. 2019 19:07

#	Program:	/corina/corina34_cracker 3.40 0067  02.08.2006

@<TRIPOS>MOLECULE
ASD01180229
  56   58    0    0    0
SMALL
NO_CHARGES


@<TRIPOS>ATOM
   1 C1            -0.9948     1.9149    -0.4500 C.2     
   2 C2            -0.7530     0.4600    -0.4460 C.ar    
   3 C3             0.5464    -0.0464    -0.6015 C.ar    
   4 C4             0.7233    -1.4044    -0.5915 C.ar    
   5 C5            -0.3807    -2.2359    -0.4289 C.ar    
   6 N6            -1.5973    -1.7331    -0.2844 N.ar    
   7 C7            -1.8126    -0.4339    -0.2817 C.ar    
   8 O8            -0.0651     2.6848    -0.5886 O.2     
   9 O9            -2.2473     2.3901    -0.3054 O.3     
  10 O10           -0.2083    -3.5797    -0.4186 O.3     
  11 C11           -1.3601    -4.3794    -0.1430 C.3     
  12 C12           -2.0647    -4.7284    -1.4554 C.3     
  13 C13           -3.3749    -5.4582    -1.1525 C.3     
  14 C14           -4.3364    -4.5054    -0.4395 C.3     
  15 C15           -0.1579    -7.9768     1.8300 C.ar    
  16 C16           -1.3669    -7.3683     2.1610 C.ar    
  17 C17           -1.7502    -6.2073     1.5207 C.ar    
  18 C18           -0.9364    -5.6475     0.5524 C.ar    
  19 C19            0.2646    -6.2476     0.2195 C.ar    
  20 C20            0.6577    -7.4089     0.8535 C.ar    
  21 C21            0.2624    -9.2219     2.5193 C.ar    
  22 C22            1.4714    -9.8304     2.1883 C.ar    
  23 C23            1.8573   -10.9884     2.8326 C.ar    
  24 C24            1.0462   -11.5450     3.8050 C.ar    
  25 C25           -0.1552   -10.9454     4.1372 C.ar    
  26 C26           -0.5478    -9.7836     3.5040 C.ar    
  27 C27            1.4728   -12.8098     4.5047 C.3     
  28 F28            2.2180   -12.4843     5.6431 F       
  29 F29            0.3399   -13.5390     4.8816 F       
  30 F30            2.2564   -13.5801     3.6389 F       
  31 C31           -4.0071    -5.9357    -2.4614 C.3     
  32 C32           -2.4107     3.8328    -0.3189 C.3     
  33 H33            1.3875     0.6194    -0.7265 H       
  34 H34            1.7105    -1.8262    -0.7091 H       
  35 H35           -2.8170    -0.0572    -0.1562 H       
  36 H36           -2.0430    -3.8236     0.4995 H       
  37 H37           -2.2779    -3.8133    -2.0079 H       
  38 H38           -1.4201    -5.3722    -2.0539 H       
  39 H39           -3.1728    -6.3169    -0.5122 H       
  40 H40           -5.2876    -5.0095    -0.2689 H       
  41 H41           -3.9078    -4.2048     0.5165 H       
  42 H42           -4.4988    -3.6229    -1.0583 H       
  43 H43           -2.0030    -7.8046     2.9169 H       
  44 H44           -2.6870    -5.7348     1.7765 H       
  45 H45            0.8960    -5.8065    -0.5376 H       
  46 H46            1.5960    -7.8762     0.5933 H       
  47 H47            2.1051    -9.3970     1.4288 H       
  48 H48            2.7942   -11.4609     2.5769 H       
  49 H49           -0.7848   -11.3845     4.8969 H       
  50 H50           -1.4836    -9.3134     3.7678 H       
  51 H51           -3.3221    -6.6145    -2.9694 H       
  52 H52           -4.9404    -6.4557    -2.2456 H       
  53 H53           -4.2091    -5.0771    -3.1018 H       
  54 H54           -1.8352     4.2712     0.4964 H       
  55 H55           -2.0547     4.2299    -1.2695 H       
  56 H56           -3.4648     4.0803    -0.1937 H       
@<TRIPOS>BOND
   1    1    2 1
   2    1    8 2
   3    1    9 1
   4    2    3 ar
   5    2    7 ar
   6    3    4 ar
   7    3   33 1
   8    4    5 ar
   9    4   34 1
  10    5    6 ar
  11    5   10 1
  12    6    7 ar
  13    7   35 1
  14    9   32 1
  15   10   11 1
  16   11   12 1
  17   11   18 1
  18   11   36 1
  19   12   13 1
  20   12   37 1
  21   12   38 1
  22   13   14 1
  23   13   31 1
  24   13   39 1
  25   14   40 1
  26   14   41 1
  27   14   42 1
  28   15   16 ar
  29   15   20 ar
  30   15   21 1
  31   16   17 ar
  32   16   43 1
  33   17   18 ar
  34   17   44 1
  35   18   19 ar
  36   19   20 ar
  37   19   45 1
  38   20   46 1
  39   21   22 ar
  40   21   26 ar
  41   22   23 ar
  42   22   47 1
  43   23   24 ar
  44   23   48 1
  45   24   25 ar
  46   24   27 1
  47   25   26 ar
  48   25   49 1
  49   26   50 1
  50   27   28 1
  51   27   29 1
  52   27   30 1
  53   31   51 1
  54   31   52 1
  55   31   53 1
  56   32   54 1
  57   32   55 1
  58   32   56 1

#	End of record

