#	Name: ASD01180218
#	Creating user name:	WinNT
#	Creation time:	15. 06. 2019 19:07

#	Modifying user name:	WinNT
#	Modification time:	15. 06. 2019 19:07

#	Program:	/corina/corina34_cracker 3.40 0067  02.08.2006

@<TRIPOS>MOLECULE
ASD01180218
  55   57    0    0    0
SMALL
NO_CHARGES


@<TRIPOS>ATOM
   1 C1            -0.0166     1.3759     0.0096 C.ar    
   2 C2             0.0021    -0.0041     0.0020 C.ar    
   3 C3             1.2198    -0.6817    -0.0133 C.ar    
   4 C4             2.4124     0.0392    -0.0209 C.ar    
   5 C5             2.3817     1.4190    -0.0132 C.ar    
   6 C6             1.1702     2.0863     0.0021 C.ar    
   7 C7             1.2463    -2.1649    -0.0210 C.ar    
   8 C8             2.4653    -2.8411    -0.0363 C.ar    
   9 C9             2.4877    -4.2194    -0.0430 C.ar    
  10 C10            1.2959    -4.9351    -0.0345 C.ar    
  11 C11            0.0792    -4.2627    -0.0192 C.ar    
  12 C12            0.0524    -2.8844    -0.0072 C.ar    
  13 N13            1.3209    -6.3305    -0.0417 N.pl3   
  14 C14            0.0656    -7.0856    -0.0328 C.3     
  15 C15            0.2927    -8.4450    -0.6424 C.ar    
  16 N16            1.5023    -8.9711    -0.6225 N.ar    
  17 C17            1.7545   -10.1551    -1.1411 C.ar    
  18 C18            0.7362   -10.9003    -1.7365 C.ar    
  19 C19           -0.5585   -10.3684    -1.7729 C.ar    
  20 C20           -0.7719    -9.1232    -1.2087 C.ar    
  21 C21            1.0197   -12.2290    -2.3194 C.2     
  22 N22            2.2702   -12.7300    -2.2786 N.am    
  23 O23            0.1249   -12.8696    -2.8356 O.2     
  24 C24            1.1432     3.5931     0.0099 C.3     
  25 F25            1.1220     4.0660    -1.3065 F       
  26 F26           -0.0007     4.0355     0.6829 F       
  27 F27            2.2834     4.0765     0.6607 F       
  28 C28           -0.4217    -7.2480     1.4085 C.3     
  29 C29            2.5510   -14.0467    -2.8563 C.3     
  30 C30            4.0346   -14.3757    -2.6784 C.3     
  31 C31            4.3235   -15.7301    -3.2727 C.2     
  32 O32            3.4341   -16.3669    -3.7858 O.2     
  33 O33            5.5690   -16.2291    -3.2320 O.3     
  34 H34           -0.9597     1.9021     0.0169 H       
  35 H35           -0.9252    -0.5578     0.0083 H       
  36 H36            3.3589    -0.4809    -0.0324 H       
  37 H37            3.3054     1.9787    -0.0186 H       
  38 H38            3.3914    -2.2855    -0.0433 H       
  39 H39            3.4319    -4.7437    -0.0552 H       
  40 H40           -0.8455    -4.8205    -0.0130 H       
  41 H41           -0.8930    -2.3625     0.0051 H       
  42 H42            2.1694    -6.8003    -0.0527 H       
  43 H43           -0.6856    -6.5486    -0.6119 H       
  44 H44            2.7581   -10.5524    -1.1056 H       
  45 H45           -1.3705   -10.9178    -2.2258 H       
  46 H46           -1.7574    -8.6815    -1.2183 H       
  47 H47            2.9842   -12.2188    -1.8666 H       
  48 H48           -0.5859    -6.2648     1.8494 H       
  49 H49           -1.3557    -7.8098     1.4152 H       
  50 H50            0.3295    -7.7850     1.9876 H       
  51 H51            1.9484   -14.8013    -2.3508 H       
  52 H52            2.3057   -14.0373    -3.9183 H       
  53 H53            4.6372   -13.6211    -3.1839 H       
  54 H54            4.2799   -14.3851    -1.6165 H       
  55 H55            5.7055   -17.1015    -3.6261 H       
@<TRIPOS>BOND
   1    1    2 ar
   2    1    6 ar
   3    1   34 1
   4    2    3 ar
   5    2   35 1
   6    3    4 ar
   7    3    7 1
   8    4    5 ar
   9    4   36 1
  10    5    6 ar
  11    5   37 1
  12    6   24 1
  13    7    8 ar
  14    7   12 ar
  15    8    9 ar
  16    8   38 1
  17    9   10 ar
  18    9   39 1
  19   10   11 ar
  20   10   13 1
  21   11   12 ar
  22   11   40 1
  23   12   41 1
  24   13   14 1
  25   13   42 1
  26   14   15 1
  27   14   28 1
  28   14   43 1
  29   15   16 ar
  30   15   20 ar
  31   16   17 ar
  32   17   18 ar
  33   17   44 1
  34   18   19 ar
  35   18   21 1
  36   19   20 ar
  37   19   45 1
  38   20   46 1
  39   21   22 am
  40   21   23 2
  41   22   29 1
  42   22   47 1
  43   24   25 1
  44   24   26 1
  45   24   27 1
  46   28   48 1
  47   28   49 1
  48   28   50 1
  49   29   30 1
  50   29   51 1
  51   29   52 1
  52   30   31 1
  53   30   53 1
  54   30   54 1
  55   31   32 2
  56   31   33 1
  57   33   55 1

#	End of record

