#	Name: ASD01916665
#	Creating user name:	WinNT
#	Creation time:	15. 06. 2019 20:07

#	Modifying user name:	WinNT
#	Modification time:	15. 06. 2019 20:07

#	Program:	/corina/corina34_cracker 3.40 0067  02.08.2006

@<TRIPOS>MOLECULE
ASD01916665
  34   36    0    0    0
SMALL
NO_CHARGES


@<TRIPOS>ATOM
   1 C1            -0.0162     1.3452     0.0094 C.2     
   2 N2             0.0021    -0.0041     0.0020 N.am    
   3 N3             1.1982    -0.7219    -0.0128 N.2     
   4 C4             2.3631    -0.1453    -0.0208 C.2     
   5 C5             2.4569     1.3147    -0.0143 C.ar    
   6 C6             3.6875     1.9741    -0.0229 C.ar    
   7 C7             3.7230     3.3405    -0.0168 C.ar    
   8 C8             2.5504     4.0848    -0.0021 C.ar    
   9 C9             1.3219     3.4615     0.0066 C.ar    
  10 C10            1.2612     2.0686     0.0011 C.ar    
  11 O11           -1.0727     1.9514     0.0178 O.2     
  12 C12           -1.2678    -0.7345     0.0102 C.3     
  13 C13           -1.7237    -0.9810    -1.4293 C.3     
  14 C14           -2.9997    -1.7149    -1.4211 C.1     
  15 C15           -4.0173    -2.3002    -1.4146 C.1     
  16 C16           -5.2586    -3.0142    -1.4065 C.ar    
  17 C17           -5.8703    -3.3529    -2.6141 C.ar    
  18 C18           -7.0693    -4.0427    -2.5896 C.ar    
  19 C19           -7.6194    -4.3724    -1.3585 C.ar    
  20 C20           -6.9597    -4.0056    -0.2001 C.ar    
  21 N21           -5.8161    -3.3536    -0.2500 N.ar    
  22 H22            3.2618    -0.7441    -0.0318 H       
  23 H23            4.6068     1.4074    -0.0340 H       
  24 H24            4.6761     3.8485    -0.0231 H       
  25 H25            2.6023     5.1636     0.0028 H       
  26 H26            0.4141     4.0465     0.0184 H       
  27 H27           -1.1342    -1.6898     0.5177 H       
  28 H28           -2.0215    -0.1469     0.5344 H       
  29 H29           -1.8573    -0.0256    -1.9368 H       
  30 H30           -0.9700    -1.5686    -1.9536 H       
  31 H31           -5.4145    -3.0801    -3.5544 H       
  32 H32           -7.5665    -4.3182    -3.5079 H       
  33 H33           -8.5545    -4.9103    -1.3060 H       
  34 H34           -7.3859    -4.2607     0.7590 H       
@<TRIPOS>BOND
   1    1    2 am
   2    1   10 1
   3    1   11 2
   4    2    3 1
   5    2   12 1
   6    3    4 2
   7    4    5 1
   8    4   22 1
   9    5    6 ar
  10    5   10 ar
  11    6    7 ar
  12    6   23 1
  13    7    8 ar
  14    7   24 1
  15    8    9 ar
  16    8   25 1
  17    9   10 ar
  18    9   26 1
  19   12   13 1
  20   12   27 1
  21   12   28 1
  22   13   14 1
  23   13   29 1
  24   13   30 1
  25   14   15 3
  26   15   16 1
  27   16   17 ar
  28   16   21 ar
  29   17   18 ar
  30   17   31 1
  31   18   19 ar
  32   18   32 1
  33   19   20 ar
  34   19   33 1
  35   20   21 ar
  36   20   34 1

#	End of record

