#	Name: ASD01913228
#	Creating user name:	WinNT
#	Creation time:	15. 06. 2019 20:01

#	Modifying user name:	WinNT
#	Modification time:	15. 06. 2019 20:01

#	Program:	/corina/corina34_cracker 3.40 0067  02.08.2006

@<TRIPOS>MOLECULE
ASD01913228
  41   44    0    0    0
SMALL
NO_CHARGES


@<TRIPOS>ATOM
   1 C1             0.5068     0.8774     1.0118 C.3     
   2 C2             1.0626    -0.4648     1.4240 C.2     
   3 C3             2.3057    -0.9012     1.0967 C.2     
   4 C4             3.3031    -0.1108     0.2880 C.3     
   5 C5             2.5615     1.0064    -0.4566 C.3     
   6 N6             1.6274     1.6656     0.4677 N.am    
   7 N7             1.2751    -2.4588     2.2983 N.2     
   8 N8             2.4589    -2.1293     1.6215 N.pl3   
   9 C9             0.4395    -1.4562     2.1767 C.2     
  10 C10            1.7915     2.9591     0.8088 C.2     
  11 O11            2.7787     3.5646     0.4394 O.2     
  12 C12            0.7710     3.6415     1.6321 C.ar    
  13 C13            1.1557     4.6005     2.5668 C.ar    
  14 C14            0.1868     5.2400     3.3392 C.ar    
  15 C15           -1.1642     4.9143     3.1702 C.ar    
  16 C16           -1.5365     3.9616     2.2411 C.ar    
  17 C17           -0.5813     3.3300     1.4701 C.ar    
  18 C18            0.5726     6.2266     4.3027 C.1     
  19 C19            0.8890     7.0355     5.0926 C.1     
  20 C20            1.2748     8.0221     6.0561 C.ar    
  21 C21            0.2980     8.6587     6.8265 C.ar    
  22 C22            0.6874     9.6088     7.7528 C.ar    
  23 C23            2.0402     9.8944     7.8818 C.ar    
  24 C24            2.9545     9.2270     7.0875 C.ar    
  25 N25            2.5603     8.3220     6.2153 N.ar    
  26 Cl26          -2.3737     5.7081     4.1298 Cl      
  27 H27           -0.2583     0.7432     0.2471 H       
  28 H28            0.0821     1.3850     1.8778 H       
  29 H29            4.0486     0.3256     0.9528 H       
  30 H30            3.7921    -0.7673    -0.4317 H       
  31 H31            3.2809     1.7357    -0.8291 H       
  32 H32            2.0066     0.5809    -1.2927 H       
  33 H33            3.2479    -2.6883     1.5457 H       
  34 H34           -0.5576    -1.4075     2.5890 H       
  35 H35            2.1996     4.8471     2.6927 H       
  36 H36           -2.5798     3.7130     2.1146 H       
  37 H37           -0.8799     2.5896     0.7427 H       
  38 H38           -0.7460     8.4126     6.7001 H       
  39 H39           -0.0446    10.1178     8.3623 H       
  40 H40            2.3754    10.6317     8.5962 H       
  41 H41            4.0070     9.4482     7.1863 H       
@<TRIPOS>BOND
   1    1    2 1
   2    1    6 1
   3    1   27 1
   4    1   28 1
   5    2    3 2
   6    2    9 1
   7    3    4 1
   8    3    8 1
   9    4    5 1
  10    4   29 1
  11    4   30 1
  12    5    6 1
  13    5   31 1
  14    5   32 1
  15    6   10 am
  16    7    8 1
  17    7    9 2
  18    8   33 1
  19    9   34 1
  20   10   11 2
  21   10   12 1
  22   12   13 ar
  23   12   17 ar
  24   13   14 ar
  25   13   35 1
  26   14   15 ar
  27   14   18 1
  28   15   16 ar
  29   15   26 1
  30   16   17 ar
  31   16   36 1
  32   17   37 1
  33   18   19 3
  34   19   20 1
  35   20   21 ar
  36   20   25 ar
  37   21   22 ar
  38   21   38 1
  39   22   23 ar
  40   22   39 1
  41   23   24 ar
  42   23   40 1
  43   24   25 ar
  44   24   41 1

#	End of record

