#	Name: ASD08070122
#	Creating user name:	WinNT
#	Creation time:	15. 06. 2019 21:14

#	Modifying user name:	WinNT
#	Modification time:	15. 06. 2019 21:14

#	Program:	/corina/corina34_cracker 3.40 0067  02.08.2006

@<TRIPOS>MOLECULE
ASD08070122
  45   45    0    0    0
SMALL
NO_CHARGES


@<TRIPOS>ATOM
   1 C1            -0.0186     1.3755    -0.0388 C.ar    
   2 C2             0.0757     0.1263    -0.6237 C.ar    
   3 C3             1.0928     1.9537     0.5471 C.ar    
   4 C4             2.3008     1.2846     0.5492 C.ar    
   5 C5             2.3988     0.0295    -0.0374 C.ar    
   6 C6             1.2810    -0.5486    -0.6240 C.ar    
   7 C7             3.5116     1.9158     1.1870 C.3     
   8 C8             4.3314     2.6410     0.1180 C.3     
   9 N9             3.6217    -0.6510    -0.0373 N.am    
  10 C10            3.6448    -1.9952     0.0570 C.2     
  11 N11            4.8120    -2.6590    -0.0597 N.am    
  12 O12            2.6128    -2.6092     0.2474 O.2     
  13 C13            4.8372    -4.1202     0.0428 C.3     
  14 C14            4.5209    -4.7328    -1.3231 C.3     
  15 C15            3.0863    -4.3795    -1.7207 C.3     
  16 C16            6.4909    -4.0659     1.9149 C.3     
  17 C17            6.2254    -4.5757     0.4970 C.3     
  18 C18            7.8790    -4.5214     2.3691 C.3     
  19 C19            2.7701    -4.9921    -3.0865 C.3     
  20 H20           -0.9610     1.9029    -0.0435 H       
  21 H21           -0.7939    -0.3226    -1.0804 H       
  22 H22            1.0160     2.9297     1.0031 H       
  23 H23            1.3540    -1.5246    -1.0807 H       
  24 H24            3.1918     2.6297     1.9461 H       
  25 H25            4.1230     1.1417     1.6508 H       
  26 H26            5.2071     3.0975     0.5792 H       
  27 H27            4.6512     1.9271    -0.6411 H       
  28 H28            3.7200     3.4150    -0.3458 H       
  29 H29            4.4526    -0.1552    -0.1051 H       
  30 H30            5.6354    -2.1692    -0.2116 H       
  31 H31            4.0922    -4.4463     0.7685 H       
  32 H32            5.2121    -4.3373    -2.0675 H       
  33 H33            4.6266    -5.8163    -1.2686 H       
  34 H34            2.3952    -4.7750    -0.9763 H       
  35 H35            2.9807    -3.2960    -1.7752 H       
  36 H36            6.4448    -2.9769     1.9240 H       
  37 H37            5.7371    -4.4670     2.5923 H       
  38 H38            6.2714    -5.6647     0.4879 H       
  39 H39            6.9791    -4.1745    -0.1805 H       
  40 H40            8.0682    -4.1582     3.3792 H       
  41 H41            7.9251    -5.6104     2.3600 H       
  42 H42            8.6328    -4.1202     1.6916 H       
  43 H43            1.7481    -4.7405    -3.3698 H       
  44 H44            3.4612    -4.5967    -3.8309 H       
  45 H45            2.8757    -6.0756    -3.0320 H       
@<TRIPOS>BOND
   1    1    2 ar
   2    1    3 ar
   3    1   20 1
   4    2    6 ar
   5    2   21 1
   6    3    4 ar
   7    3   22 1
   8    4    5 ar
   9    4    7 1
  10    5    6 ar
  11    5    9 1
  12    6   23 1
  13    7    8 1
  14    7   24 1
  15    7   25 1
  16    8   26 1
  17    8   27 1
  18    8   28 1
  19    9   10 am
  20    9   29 1
  21   10   11 am
  22   10   12 2
  23   11   13 1
  24   11   30 1
  25   13   14 1
  26   13   17 1
  27   13   31 1
  28   14   15 1
  29   14   32 1
  30   14   33 1
  31   15   19 1
  32   15   34 1
  33   15   35 1
  34   16   17 1
  35   16   18 1
  36   16   36 1
  37   16   37 1
  38   17   38 1
  39   17   39 1
  40   18   40 1
  41   18   41 1
  42   18   42 1
  43   19   43 1
  44   19   44 1
  45   19   45 1

#	End of record

