#	Name: ASD01140574
#	Creating user name:	WinNT
#	Creation time:	15. 06. 2019 19:01

#	Modifying user name:	WinNT
#	Modification time:	15. 06. 2019 19:01

#	Program:	/corina/corina34_cracker 3.40 0067  02.08.2006

@<TRIPOS>MOLECULE
ASD01140574
  47   50    0    0    0
SMALL
NO_CHARGES


@<TRIPOS>ATOM
   1 C1            -0.6892     0.9374    -0.6826 C.3     
   2 C2            -0.5715    -0.5760    -0.4908 C.3     
   3 O3             0.2529    -0.8538     0.6717 O.3     
   4 C4             0.4572    -2.1497     0.9814 C.2     
   5 O5            -0.0402    -3.0235     0.2984 O.2     
   6 C6             1.2824    -2.5066     2.1465 C.2     
   7 N7             1.8926    -1.6393     2.9983 N.2     
   8 C8             2.5278    -2.3168     3.9121 C.2     
   9 N9             2.3374    -3.6454     3.6862 N.pl3   
  10 C10            1.5718    -3.7656     2.5750 C.2     
  11 C11            1.1575    -5.0662     1.9354 C.3     
  12 H12            0.5646    -4.8664     1.0428 H       
  13 C13            0.3379    -5.8938     2.9274 C.3     
  14 N14            2.3780    -5.7928     1.5690 N.2     
  15 C15            3.2440    -6.1532     2.4522 C.2     
  16 C16            4.4209    -6.8954     1.9436 C.ar    
  17 C17            4.3343    -7.6129     0.7507 C.ar    
  18 C18            5.4341    -8.3018     0.2820 C.ar    
  19 C19            6.6209    -8.2819     0.9927 C.ar    
  20 C20            6.7129    -7.5724     2.1768 C.ar    
  21 C21            5.6217    -6.8748     2.6529 C.ar    
  22 C22            3.2074    -5.9179     3.9007 C.ar    
  23 C23            3.6046    -6.9627     4.7444 C.ar    
  24 C24            3.6324    -6.7828     6.1219 C.ar    
  25 C25            3.2661    -5.5513     6.6711 C.ar    
  26 C26            2.8578    -4.5278     5.8466 C.ar    
  27 C27            2.8121    -4.7052     4.4617 C.ar    
  28 C28            4.0354    -7.8581     6.9774 C.1     
  29 C29            4.3659    -8.7397     7.6788 C.1     
  30 H30            0.3032     1.3631    -0.8308 H       
  31 H31           -1.3081     1.1460    -1.5553 H       
  32 H32           -1.1466     1.3813     0.2016 H       
  33 H33           -1.5640    -1.0017    -0.3426 H       
  34 H34           -0.1142    -1.0198    -1.3751 H       
  35 H35            3.1105    -1.8934     4.7169 H       
  36 H36           -0.5520    -5.3357     3.2182 H       
  37 H37            0.0414    -6.8326     2.4595 H       
  38 H38            0.9406    -6.1029     3.8113 H       
  39 H39            3.4083    -7.6295     0.1953 H       
  40 H40            5.3682    -8.8581    -0.6414 H       
  41 H41            7.4790    -8.8227     0.6217 H       
  42 H42            7.6418    -7.5612     2.7276 H       
  43 H43            5.6960    -6.3176     3.5751 H       
  44 H44            3.8907    -7.9144     4.3217 H       
  45 H45            3.3028    -5.4031     7.7403 H       
  46 H46            2.5738    -3.5777     6.2745 H       
  47 H47            4.6614    -9.5281     8.3061 H       
@<TRIPOS>BOND
   1    1    2 1
   2    1   30 1
   3    1   31 1
   4    1   32 1
   5    2    3 1
   6    2   33 1
   7    2   34 1
   8    3    4 1
   9    4    5 2
  10    4    6 1
  11    6   10 2
  12    6    7 1
  13    7    8 2
  14    8    9 1
  15    8   35 1
  16    9   27 1
  17    9   10 1
  18   10   11 1
  19   11   12 1
  20   11   13 1
  21   11   14 1
  22   13   36 1
  23   13   37 1
  24   13   38 1
  25   14   15 2
  26   15   16 1
  27   15   22 1
  28   16   21 ar
  29   16   17 ar
  30   17   18 ar
  31   17   39 1
  32   18   19 ar
  33   18   40 1
  34   19   20 ar
  35   19   41 1
  36   20   21 ar
  37   20   42 1
  38   21   43 1
  39   22   27 ar
  40   22   23 ar
  41   23   24 ar
  42   23   44 1
  43   24   25 ar
  44   24   28 1
  45   25   26 ar
  46   25   45 1
  47   26   27 ar
  48   26   46 1
  49   28   29 3
  50   29   47 1

#	End of record

