#	Name: ASD05430087
#	Creating user name:	WinNT
#	Creation time:	15. 06. 2019 20:59

#	Modifying user name:	WinNT
#	Modification time:	15. 06. 2019 20:59

#	Program:	/corina/corina34_cracker 3.40 0067  02.08.2006

@<TRIPOS>MOLECULE
ASD05430087
  63   68    0    0    0
SMALL
NO_CHARGES


@<TRIPOS>ATOM
   1 C1             0.1648     1.1922    -1.0001 C.ar    
   2 C2             0.0192    -0.0132    -0.3142 C.ar    
   3 C3             1.0603    -0.5037     0.4635 C.ar    
   4 C4             2.2419     0.1984     0.5610 C.ar    
   5 C5             2.3950     1.4081    -0.1242 C.ar    
   6 C6             1.3471     1.9018    -0.9070 C.ar    
   7 C7             4.8867    -0.0004    -0.0930 C.3     
   8 C8             4.8271     1.5012     0.0656 C.2     
   9 C9             3.6566     2.1597    -0.0213 C.2     
  10 C10            6.3050    -0.4377    -0.4635 C.3     
  11 C11            7.0905     0.6208    -1.2443 C.3     
  12 N12            7.1935     1.8308    -0.4296 N.pl3   
  13 C13            6.0856     2.2243     0.3185 C.2     
  14 C14            8.2772     3.8008    -1.3449 C.ar    
  15 C15            9.3625     4.1918    -2.1067 C.ar    
  16 C16            9.2429     5.2481    -2.9898 C.ar    
  17 C17            8.0355     5.9147    -3.1114 C.ar    
  18 C18            6.9492     5.5222    -2.3479 C.ar    
  19 C19            7.0712     4.4656    -1.4655 C.ar    
  20 F20            7.9175     6.9477    -3.9741 F       
  21 N21           -1.1805    -0.7313    -0.4095 N.pl3   
  22 C22           -1.3116    -2.0637    -0.7039 C.2     
  23 C23           -2.6300    -2.3380    -0.6920 C.2     
  24 N24           -3.2902    -1.2079    -0.3989 N.2     
  25 C25           -2.4328    -0.2397    -0.2217 C.2     
  26 C26           -0.6361     2.9072    -2.4394 C.3     
  27 O27           -0.8543     1.6665    -1.7649 O.3     
  28 C28            7.0872    -0.9970     0.7286 C.3     
  29 S29            7.9728    -2.1233    -0.3841 S.o     
  30 C30            6.3474    -1.8168    -1.1289 C.3     
  31 O31            8.9653    -1.3997    -1.0988 O.2     
  32 C32           -3.2555    -3.6822    -0.9618 C.3     
  33 C33            8.4072     2.6448    -0.3868 C.3     
  34 C34            8.5833     3.1746     1.0405 C.3     
  35 O35            7.3931     3.8277     1.4698 O.3     
  36 N36            6.1785     3.1665     1.1984 N.2     
  37 H37            0.9433    -1.4375     0.9933 H       
  38 H38            3.0496    -0.1851     1.1667 H       
  39 H39            1.4613     2.8353    -1.4379 H       
  40 H40            4.5962    -0.4742     0.8446 H       
  41 H41            4.1972    -0.3080    -0.8791 H       
  42 H42            3.6429     3.2396    -0.0155 H       
  43 H43            8.0890     0.2443    -1.4665 H       
  44 H44            6.5697     0.8500    -2.1739 H       
  45 H45           10.3044     3.6719    -2.0114 H       
  46 H46           10.0910     5.5537    -3.5846 H       
  47 H47            6.0069     6.0414    -2.4420 H       
  48 H48            6.2240     4.1592    -0.8699 H       
  49 H49           -0.5112    -2.7598    -0.9071 H       
  50 H50           -2.6783     0.7825     0.0255 H       
  51 H51            0.2150     2.8096    -3.1134 H       
  52 H52           -1.5251     3.1704    -3.0126 H       
  53 H53           -0.4318     3.6880    -1.7069 H       
  54 H54            7.7379    -0.2593     1.1982 H       
  55 H55            6.4559    -1.5160     1.4498 H       
  56 H56            5.5743    -2.4928    -0.7634 H       
  57 H57            6.3774    -1.7666    -2.2173 H       
  58 H58           -3.3500    -4.2334    -0.0261 H       
  59 H59           -4.2427    -3.5418    -1.4021 H       
  60 H60           -2.6263    -4.2438    -1.6523 H       
  61 H61            9.2682     2.0351    -0.6609 H       
  62 H62            8.8010     2.3429     1.7106 H       
  63 H63            9.4123     3.8819     1.0640 H       
@<TRIPOS>BOND
   1    1    2 ar
   2    1    6 ar
   3    1   27 1
   4    2    3 ar
   5    2   21 1
   6    3    4 ar
   7    3   37 1
   8    4    5 ar
   9    4   38 1
  10    5    6 ar
  11    5    9 1
  12    6   39 1
  13    7    8 1
  14    7   10 1
  15    7   40 1
  16    7   41 1
  17    8    9 2
  18    8   13 1
  19    9   42 1
  20   10   11 1
  21   10   28 1
  22   10   30 1
  23   11   12 1
  24   11   43 1
  25   11   44 1
  26   12   13 1
  27   12   33 1
  28   13   36 2
  29   14   15 ar
  30   14   19 ar
  31   14   33 1
  32   15   16 ar
  33   15   45 1
  34   16   17 ar
  35   16   46 1
  36   17   18 ar
  37   17   20 1
  38   18   19 ar
  39   18   47 1
  40   19   48 1
  41   21   22 1
  42   21   25 1
  43   22   23 2
  44   22   49 1
  45   23   24 1
  46   23   32 1
  47   24   25 2
  48   25   50 1
  49   26   27 1
  50   26   51 1
  51   26   52 1
  52   26   53 1
  53   28   29 1
  54   28   54 1
  55   28   55 1
  56   29   30 1
  57   29   31 2
  58   30   56 1
  59   30   57 1
  60   32   58 1
  61   32   59 1
  62   32   60 1
  63   33   34 1
  64   33   61 1
  65   34   35 1
  66   34   62 1
  67   34   63 1
  68   35   36 1

#	End of record

