#	Name: ASD05730116
#	Creating user name:	WinNT
#	Creation time:	15. 06. 2019 21:02

#	Modifying user name:	WinNT
#	Modification time:	15. 06. 2019 21:02

#	Program:	/corina/corina34_cracker 3.40 0067  02.08.2006

@<TRIPOS>MOLECULE
ASD05730116
  77   83    0    0    0
SMALL
NO_CHARGES


@<TRIPOS>ATOM
   1 N1            -0.0239     1.3923    -0.0033 N.pl3   
   2 C2            -0.0043    -0.0069    -0.0166 C.ar    
   3 C3            -1.0392    -0.7102    -0.6192 C.ar    
   4 C4            -1.0198    -2.0907    -0.6323 C.ar    
   5 C5             0.0344    -2.7760    -0.0428 C.ar    
   6 C6             1.0692    -2.0728     0.5598 C.ar    
   7 C7             1.0528    -0.6922     0.5679 C.ar    
   8 N8             0.0537    -4.1765    -0.0557 N.pl3   
   9 C9             1.2553    -4.8499    -0.1661 C.ar    
  10 N10            1.2587    -6.1699    -0.0610 N.ar    
  11 C11            2.3941    -6.8517    -0.1617 C.ar    
  12 C12            3.5939    -6.1421    -0.3824 C.ar    
  13 C13            3.5375    -4.7445    -0.4864 C.ar    
  14 N14            2.3640    -4.1498    -0.3790 N.ar    
  15 N15            2.4077    -8.2214    -0.0536 N.am    
  16 C16            3.5627    -8.9066    -0.1563 C.2     
  17 C17            4.8241    -8.2001    -0.3852 C.2     
  18 C18            4.8209    -6.8367    -0.4951 C.2     
  19 C19            1.2091    -8.9115     0.1658 C.ar    
  20 C20            0.7152    -9.7739    -0.8040 C.ar    
  21 O21            3.5576   -10.1209    -0.0577 O.2     
  22 C22            6.0954    -8.9567    -0.4982 C.2     
  23 C23            6.6586    -9.4660    -1.6849 C.2     
  24 C24            1.0678     2.1341     0.6324 C.3     
  25 C25            2.2143     2.3135    -0.3665 C.3     
  26 C26            0.5631     3.5116     1.0708 C.3     
  27 C27            1.7223     4.3045     1.6788 C.3     
  28 N28            2.7928     4.4494     0.6841 N.3     
  29 C29            3.3257     3.1410     0.2832 C.3     
  30 C30            0.5150    -8.7393     1.3562 C.ar    
  31 C31           -0.6665    -9.4217     1.5698 C.ar    
  32 C32           -1.1583   -10.2762     0.6001 C.ar    
  33 C33           -0.4669   -10.4535    -0.5843 C.ar    
  34 C34            6.9351    -9.2808     0.5280 C.2     
  35 N35            7.9724    -9.9669     0.0047 N.am    
  36 N36            7.7765   -10.0691    -1.3778 N.2     
  37 C37            6.0736    -9.3377    -3.0678 C.3     
  38 C38            6.7394    -8.9347     1.9816 C.3     
  39 S39            9.2577   -10.5786     0.8511 S.o2    
  40 C40            8.8250   -12.2128     1.3476 C.2     
  41 O41           10.3240   -10.7108    -0.0788 O.2     
  42 O42            9.3560    -9.8100     2.0422 O.2     
  43 C43            9.0504   -13.3315     0.6521 C.2     
  44 N44            8.6313   -14.4341     1.2397 N.2     
  45 C45            8.0648   -14.3078     2.3920 C.2     
  46 S46            8.0255   -12.6616     2.8522 S.3     
  47 H47           -0.7583     1.8710    -0.4185 H       
  48 H48           -1.8592    -0.1773    -1.0774 H       
  49 H49           -1.8248    -2.6376    -1.1006 H       
  50 H50            1.8889    -2.6058     1.0186 H       
  51 H51            1.8578    -0.1453     1.0362 H       
  52 H52           -0.7764    -4.6736     0.0129 H       
  53 H53            4.4348    -4.1674    -0.6548 H       
  54 H54            5.7418    -6.2983    -0.6642 H       
  55 H55            1.2547    -9.9128    -1.7293 H       
  56 H56            1.4244     1.5830     1.5026 H       
  57 H57            2.6062     1.3366    -0.6499 H       
  58 H58            1.8469     2.8300    -1.2533 H       
  59 H59            0.1697     4.0470     0.2067 H       
  60 H60           -0.2247     3.3909     1.8144 H       
  61 H61            1.3695     5.2912     1.9790 H       
  62 H62            2.1062     3.7754     2.5510 H       
  63 H63            2.4727     4.9707    -0.1182 H       
  64 H64            3.7020     2.6174     1.1619 H       
  65 H65            4.1374     3.2827    -0.4304 H       
  66 H66            0.8989    -8.0727     2.1142 H       
  67 H67           -1.2068    -9.2882     2.4954 H       
  68 H68           -2.0821   -10.8093     0.7698 H       
  69 H69           -0.8538   -11.1212    -1.3400 H       
  70 H70            6.4447    -8.4261    -3.5361 H       
  71 H71            6.3664   -10.1995    -3.6676 H       
  72 H72            4.9866    -9.2948    -2.9999 H       
  73 H73            6.1806    -9.7314     2.4727 H       
  74 H74            7.7112    -8.8228     2.4624 H       
  75 H75            6.1849    -7.9997     2.0609 H       
  76 H76            9.5363   -13.3319    -0.3124 H       
  77 H77            7.6761   -15.1242     2.9826 H       
@<TRIPOS>BOND
   1    1    2 1
   2    1   24 1
   3    1   47 1
   4    2    3 ar
   5    2    7 ar
   6    3    4 ar
   7    3   48 1
   8    4    5 ar
   9    4   49 1
  10    5    6 ar
  11    5    8 1
  12    6    7 ar
  13    6   50 1
  14    7   51 1
  15    8    9 1
  16    8   52 1
  17    9   10 ar
  18    9   14 ar
  19   10   11 ar
  20   11   12 ar
  21   11   15 1
  22   12   13 ar
  23   12   18 1
  24   13   14 ar
  25   13   53 1
  26   15   16 am
  27   15   19 1
  28   16   17 1
  29   16   21 2
  30   17   18 2
  31   17   22 1
  32   18   54 1
  33   19   20 ar
  34   19   30 ar
  35   20   33 ar
  36   20   55 1
  37   22   34 2
  38   22   23 1
  39   23   37 1
  40   23   36 2
  41   24   26 1
  42   24   25 1
  43   24   56 1
  44   25   29 1
  45   25   57 1
  46   25   58 1
  47   26   27 1
  48   26   59 1
  49   26   60 1
  50   27   28 1
  51   27   61 1
  52   27   62 1
  53   28   29 1
  54   28   63 1
  55   29   64 1
  56   29   65 1
  57   30   31 ar
  58   30   66 1
  59   31   32 ar
  60   31   67 1
  61   32   33 ar
  62   32   68 1
  63   33   69 1
  64   34   35 1
  65   34   38 1
  66   35   36 1
  67   35   39 am
  68   37   70 1
  69   37   71 1
  70   37   72 1
  71   38   73 1
  72   38   74 1
  73   38   75 1
  74   39   40 1
  75   39   41 2
  76   39   42 2
  77   40   43 2
  78   40   46 1
  79   43   44 1
  80   43   76 1
  81   44   45 2
  82   45   46 1
  83   45   77 1

#	End of record

