#	Name: ASD02810010
#	Creating user name:	WinNT
#	Creation time:	15. 06. 2019 20:26

#	Modifying user name:	WinNT
#	Modification time:	15. 06. 2019 20:26

#	Program:	/corina/corina34_cracker 3.40 0067  02.08.2006

@<TRIPOS>MOLECULE
ASD02810010
 123  122    0    0    0
SMALL
NO_CHARGES


@<TRIPOS>ATOM
   1 C1             0.0967     1.9829    -1.3570 C.3     
   2 C2            -1.4790   -23.5197   -15.3236 C.3     
   3 C3             2.0315    -0.7748    -1.1700 C.3     
   4 C4             0.7332    -0.3050    -1.8291 C.3     
   5 C5            -0.1281    -1.4993    -2.1498 C.2     
   6 N6             0.0122     0.5860    -0.9103 N.3     
   7 O7            -1.0590    -1.7871    -1.4277 O.2     
   8 C8             2.9327     0.4320    -0.9011 C.3     
   9 C9             1.7084    -1.4745     0.1517 C.3     
  10 C10           -1.6362    -2.9693    -4.7622 C.3     
  11 C11           -0.7402    -3.3686    -3.5880 C.3     
  12 C12            0.0978    -4.5589    -3.9776 C.2     
  13 N13            0.1361    -2.2476    -3.2392 N.am    
  14 O14            1.3079    -4.4788    -3.9652 O.2     
  15 C15           -2.5370    -1.8359    -4.3440 C.2     
  16 N16           -3.4395    -1.3370    -5.2118 N.am    
  17 O17           -2.4499    -1.3727    -3.2265 O.2     
  18 C18            0.7201    -7.6432    -3.4616 C.3     
  19 C19            0.3171    -6.8698    -4.7187 C.3     
  20 C20           -0.4799    -7.7692    -5.6279 C.2     
  21 N21           -0.4975    -5.7126    -4.3399 N.am    
  22 O22           -1.6165    -7.4728    -5.9299 O.2     
  23 O23           -0.4471    -8.1886    -2.8433 O.3     
  24 C24           -0.5806    -9.2832    -8.4322 C.3     
  25 C25           -0.7045    -9.7774    -6.9895 C.3     
  26 C26           -0.1751   -11.1851    -6.8936 C.2     
  27 N27            0.0704    -8.9030    -6.1056 N.am    
  28 O28            0.7575   -11.4335    -6.1592 O.2     
  29 C29           -1.2306    -7.9037    -8.5563 C.3     
  30 C30           -1.1086    -7.4169    -9.9773 C.2     
  31 O31           -0.5583    -8.1029   -10.8058 O.2     
  32 O32           -1.6113    -6.2211   -10.3226 O.3     
  33 C33           -0.8752   -14.2465    -6.3424 C.3     
  34 C34           -0.2235   -13.5365    -7.5307 C.3     
  35 C35           -0.5462   -14.2821    -8.7999 C.2     
  36 N36           -0.7381   -12.1680    -7.6239 N.am    
  37 O37           -1.1469   -13.7252    -9.6943 O.2     
  38 C38           -0.4463   -13.5633    -5.0423 C.3     
  39 C39           -1.1938   -14.1925    -3.8649 C.3     
  40 C40            1.0602   -13.7430    -4.8446 C.3     
  41 C41            0.6006   -16.0122   -11.2202 C.3     
  42 C42           -0.4810   -16.2926   -10.1750 C.3     
  43 C43           -0.5324   -17.7714    -9.8896 C.2     
  44 N44           -0.1673   -15.5678    -8.9411 N.am    
  45 O45           -0.3273   -18.1797    -8.7662 O.2     
  46 O46            1.8466   -16.5498   -10.7723 O.3     
  47 C47           -2.2494   -20.4504   -10.0936 C.3     
  48 C48           -0.8565   -20.0779   -10.6054 C.3     
  49 C49           -0.5645   -20.8440   -11.8699 C.2     
  50 N50           -0.8064   -18.6403   -10.8828 N.am    
  51 O51           -0.3370   -20.2478   -12.9012 O.2     
  52 S52           -2.6009   -19.5282    -8.5715 S.3     
  53 C53            0.2843   -24.3162   -12.7272 C.3     
  54 C54           -0.2723   -22.9363   -13.0839 C.3     
  55 C55           -1.5426   -23.0971   -13.8785 C.2     
  56 N56           -0.5561   -22.1916   -11.8546 N.am    
  57 O57           -2.6115   -22.8874   -13.3572 O.2     
  58 C58            1.6366   -24.1559   -12.0296 C.3     
  59 C59            2.1848   -25.5150   -11.6783 C.2     
  60 O60            1.5558   -26.5135   -11.9583 O.2     
  61 N61            3.3740   -25.6209   -11.0530 N.am    
  62 H62            1.1340     2.3152    -1.3165 H       
  63 H63           -0.2698     2.0599    -2.3807 H       
  64 H64           -0.5115     2.6102    -0.7053 H       
  65 H65           -0.4384   -23.6613   -15.6153 H       
  66 H66           -2.0231   -24.4553   -15.4529 H       
  67 H67           -1.9296   -22.7481   -15.9479 H       
  68 H68            2.5447    -1.4708    -1.8336 H       
  69 H69            0.9661     0.2324    -2.7483 H       
  70 H70            0.3553     0.4868     0.0334 H       
  71 H71            3.8613     0.0964    -0.4393 H       
  72 H72            3.1560     0.9355    -1.8417 H       
  73 H73            2.4229     1.1240    -0.2307 H       
  74 H74            1.3164    -0.7465     0.8619 H       
  75 H75            0.9634    -2.2512    -0.0210 H       
  76 H76            2.6152    -1.9244     0.5559 H       
  77 H77           -1.0163    -2.6505    -5.6002 H       
  78 H78           -2.2427    -3.8235    -5.0633 H       
  79 H79           -1.3601    -3.6261    -2.7292 H       
  80 H80            0.9065    -2.0439    -3.7923 H       
  81 H81           -3.5092    -1.7075    -6.1056 H       
  82 H82           -4.0194    -0.6075    -4.9426 H       
  83 H83            1.3984    -8.4517    -3.7342 H       
  84 H84            1.2192    -6.9696    -2.7649 H       
  85 H85            1.2127    -6.5292    -5.2384 H       
  86 H86           -1.4653    -5.7766    -4.3499 H       
  87 H87           -0.2664    -8.6932    -2.0384 H       
  88 H88            0.4728    -9.2142    -8.7035 H       
  89 H89           -1.0828    -9.9828    -9.1003 H       
  90 H90           -1.7520    -9.7619    -6.6888 H       
  91 H91            0.9794    -9.1401    -5.8641 H       
  92 H92           -2.2840    -7.9726    -8.2850 H       
  93 H93           -0.7283    -7.2040    -7.8882 H       
  94 H94           -1.5089    -5.9518   -11.2457 H       
  95 H95           -1.9597   -14.1956    -6.4389 H       
  96 H96           -0.5605   -15.2900    -6.3254 H       
  97 H97            0.8570   -13.5095    -7.3898 H       
  98 H98           -1.4841   -11.9693    -8.2113 H       
  99 H99           -0.6815   -12.5003    -5.0957 H       
 100 H100          -0.9586   -15.2555    -3.8114 H       
 101 H101          -0.8883   -13.7058    -2.9387 H       
 102 H102          -2.2671   -14.0645    -4.0057 H       
 103 H103           1.5927   -13.2948    -5.6834 H       
 104 H104           1.3657   -13.2563    -3.9184 H       
 105 H105           1.2954   -14.8060    -4.7912 H       
 106 H106           0.3223   -16.4787   -12.1652 H       
 107 H107           0.6990   -14.9359   -11.3614 H       
 108 H108          -1.4477   -15.9620   -10.5548 H       
 109 H109           0.3131   -16.0131    -8.2257 H       
 110 H110           2.5796   -16.4085   -11.3870 H       
 111 H111          -2.9933   -20.2002   -10.8500 H       
 112 H112          -2.2866   -21.5200    -9.8872 H       
 113 H113          -0.1126   -20.3281    -9.8490 H       
 114 H114          -0.9705   -18.3137   -11.7813 H       
 115 H115          -3.8352   -19.9484    -8.2414 H       
 116 H116          -0.4103   -24.8268   -12.0602 H       
 117 H117           0.4121   -24.9027   -13.6370 H       
 118 H118           0.4613   -22.3911   -13.6778 H       
 119 H119          -0.7381   -22.6684   -11.0297 H       
 120 H120           2.3312   -23.6453   -12.6966 H       
 121 H121           1.5088   -23.5694   -11.1198 H       
 122 H122           3.8770   -24.8223   -10.8290 H       
 123 H123           3.7268   -26.4957   -10.8268 H       
@<TRIPOS>BOND
   1    1    6 1
   2    1   62 1
   3    1   63 1
   4    1   64 1
   5    2   55 1
   6    2   65 1
   7    2   66 1
   8    2   67 1
   9    3    8 1
  10    3    9 1
  11    3    4 1
  12    3   68 1
  13    4    6 1
  14    4    5 1
  15    4   69 1
  16    5    7 2
  17    5   13 am
  18    6   70 1
  19    8   71 1
  20    8   72 1
  21    8   73 1
  22    9   74 1
  23    9   75 1
  24    9   76 1
  25   10   15 1
  26   10   11 1
  27   10   77 1
  28   10   78 1
  29   11   13 1
  30   11   12 1
  31   11   79 1
  32   12   14 2
  33   12   21 am
  34   13   80 1
  35   15   16 am
  36   15   17 2
  37   16   81 1
  38   16   82 1
  39   18   23 1
  40   18   19 1
  41   18   83 1
  42   18   84 1
  43   19   21 1
  44   19   20 1
  45   19   85 1
  46   20   22 2
  47   20   27 am
  48   21   86 1
  49   23   87 1
  50   24   29 1
  51   24   25 1
  52   24   88 1
  53   24   89 1
  54   25   27 1
  55   25   26 1
  56   25   90 1
  57   26   28 2
  58   26   36 am
  59   27   91 1
  60   29   30 1
  61   29   92 1
  62   29   93 1
  63   30   31 2
  64   30   32 1
  65   32   94 1
  66   33   38 1
  67   33   34 1
  68   33   95 1
  69   33   96 1
  70   34   36 1
  71   34   35 1
  72   34   97 1
  73   35   37 2
  74   35   44 am
  75   36   98 1
  76   38   39 1
  77   38   40 1
  78   38   99 1
  79   39  100 1
  80   39  101 1
  81   39  102 1
  82   40  103 1
  83   40  104 1
  84   40  105 1
  85   41   46 1
  86   41   42 1
  87   41  106 1
  88   41  107 1
  89   42   44 1
  90   42   43 1
  91   42  108 1
  92   43   45 2
  93   43   50 am
  94   44  109 1
  95   46  110 1
  96   47   52 1
  97   47   48 1
  98   47  111 1
  99   47  112 1
 100   48   49 1
 101   48   50 1
 102   48  113 1
 103   49   51 2
 104   49   56 am
 105   50  114 1
 106   52  115 1
 107   53   58 1
 108   53   54 1
 109   53  116 1
 110   53  117 1
 111   54   56 1
 112   54   55 1
 113   54  118 1
 114   55   57 2
 115   56  119 1
 116   58   59 1
 117   58  120 1
 118   58  121 1
 119   59   60 2
 120   59   61 am
 121   61  122 1
 122   61  123 1

#	End of record

