#	Name: ASD01121006
#	Creating user name:	WinNT
#	Creation time:	15. 06. 2019 18:59

#	Modifying user name:	WinNT
#	Modification time:	15. 06. 2019 18:59

#	Program:	/corina/corina34_cracker 3.40 0067  02.08.2006

@<TRIPOS>MOLECULE
ASD01121006
  44   46    0    0    0
SMALL
NO_CHARGES


@<TRIPOS>ATOM
   1 C1            -0.0149     1.3417    -0.0174 C.2     
   2 N2             0.0058    -0.0057    -0.0395 N.am    
   3 O3            -1.0772     1.9333    -0.0098 O.2     
   4 N4             1.1417     2.0332     0.0021 N.am    
   5 S5            -1.4154    -0.8555    -0.0634 S.o2    
   6 O6            -1.0600    -2.2302    -0.1185 O.2     
   7 O7            -2.2300    -0.3037     0.9618 O.2     
   8 C8            -2.2175    -0.4874    -1.5884 C.2     
   9 H9             0.8532    -0.4778    -0.0415 H       
  10 H10            1.9864     1.5634     0.0840 H       
  11 C11            1.1241     3.4266    -0.0957 C.ar    
  12 C12            0.1625     4.0571    -0.8601 C.ar    
  13 C13            0.1401     5.4425    -0.9611 C.ar    
  14 C14            1.0749     6.2097    -0.3023 C.ar    
  15 C15            2.0557     5.5978     0.4748 C.ar    
  16 C16            2.0823     4.1959     0.5885 C.ar    
  17 Br17          -1.1867     6.2830    -2.0140 Br      
  18 N18            3.0970     6.0716     1.2313 N.pl3   
  19 N19            3.7580     4.9746     1.7969 N.2     
  20 C20            3.1732     3.8715     1.4291 C.2     
  21 C21           -2.0574    -1.1669    -2.7251 C.2     
  22 C22           -2.7935    -0.6923    -3.7970 C.2     
  23 C23           -3.5514     0.3726    -3.5309 C.2     
  24 S24           -3.3577     0.8274    -1.8429 S.3     
  25 C25           -2.7421    -1.3300    -5.1614 C.3     
  26 C26           -4.4414     1.0754    -4.5233 C.3     
  27 C27           -5.8350     0.4447    -4.4946 C.3     
  28 O28           -6.6790     1.1111    -5.4357 O.3     
  29 C29           -8.0109     0.5961    -5.4886 C.3     
  30 H30           -0.5771     3.4692    -1.3833 H       
  31 H31            1.0479     7.2859    -0.3885 H       
  32 H32            3.3345     7.0042     1.3528 H       
  33 H33            3.4718     2.8742     1.7167 H       
  34 H34           -1.4028    -2.0223    -2.8032 H       
  35 H35           -3.5079    -2.1026    -5.2305 H       
  36 H36           -2.9211    -0.5719    -5.9238 H       
  37 H37           -1.7602    -1.7769    -5.3169 H       
  38 H38           -4.5149     2.1310    -4.2616 H       
  39 H39           -4.0188     0.9776    -5.5233 H       
  40 H40           -5.7616    -0.6109    -4.7563 H       
  41 H41           -6.2576     0.5425    -3.4946 H       
  42 H42           -7.9826    -0.4563    -5.7709 H       
  43 H43           -8.4786     0.6971    -4.5092 H       
  44 H44           -8.5875     1.1547    -6.2259 H       
@<TRIPOS>BOND
   1    1    2 am
   2    1    4 am
   3    1    3 2
   4    2    5 am
   5    2    9 1
   6    4   10 1
   7    4   11 1
   8    5    7 2
   9    5    8 1
  10    5    6 2
  11    8   21 2
  12    8   24 1
  13   11   12 ar
  14   11   16 ar
  15   12   13 ar
  16   12   30 1
  17   13   14 ar
  18   13   17 1
  19   14   15 ar
  20   14   31 1
  21   15   16 ar
  22   15   18 1
  23   16   20 1
  24   18   19 1
  25   18   32 1
  26   19   20 2
  27   20   33 1
  28   21   22 1
  29   21   34 1
  30   22   23 2
  31   22   25 1
  32   23   24 1
  33   23   26 1
  34   25   35 1
  35   25   36 1
  36   25   37 1
  37   26   27 1
  38   26   38 1
  39   26   39 1
  40   27   28 1
  41   27   40 1
  42   27   41 1
  43   28   29 1
  44   29   42 1
  45   29   43 1
  46   29   44 1

#	End of record

