#	Name: ASD09800020
#	Creating user name:	WinNT
#	Creation time:	15. 06. 2019 21:24

#	Modifying user name:	WinNT
#	Modification time:	15. 06. 2019 21:24

#	Program:	/corina/corina34_cracker 3.40 0067  02.08.2006

@<TRIPOS>MOLECULE
ASD09800020
  86   91    0    0    0
SMALL
NO_CHARGES


@<TRIPOS>ATOM
   1 N1            -0.0985     1.5391     0.0287 N.am    
   2 C2            -0.1654     0.1483     0.1354 C.ar    
   3 C3             0.8242    -0.5452     0.7973 C.ar    
   4 C4            -1.2499    -0.5566    -0.4289 C.ar    
   5 C5            -1.2987    -1.9672    -0.3096 C.ar    
   6 C6            -0.2646    -2.6415     0.3703 C.ar    
   7 C7             0.7695    -1.9315     0.9107 C.ar    
   8 C8            -2.2811     0.1140    -1.1055 C.ar    
   9 C9            -3.3126    -0.5980    -1.6374 C.ar    
  10 C10           -3.3613    -1.9857    -1.5200 C.ar    
  11 C11           -2.3783    -2.6686    -0.8714 C.ar    
  12 O12           -0.2990    -3.9949     0.4926 O.3     
  13 C13            0.2895    -4.7365    -0.4771 C.ar    
  14 C14            0.2760    -6.1348    -0.3885 C.ar    
  15 N15            0.8678    -4.1360    -1.5031 N.ar    
  16 C16            0.8881    -6.8799    -1.3983 C.ar    
  17 C17            1.4846    -6.2007    -2.4481 C.ar    
  18 C18            1.4522    -4.8191    -2.4688 C.ar    
  19 C19           -0.3760    -6.8109     0.7571 C.ar    
  20 N20           -0.9590    -6.0992     1.7197 N.ar    
  21 C21           -0.3938    -8.2067     0.8414 C.ar    
  22 C22           -1.0141    -8.7930     1.9292 C.ar    
  23 N23           -1.5688    -8.0221     2.8519 N.ar    
  24 C24           -1.5421    -6.7017     2.7441 C.ar    
  25 N25           -2.1335    -5.9325     3.7312 N.pl3   
  26 C26           -2.7781    -6.5797     4.8765 C.3     
  27 C27           -3.3477    -5.5114     5.8120 C.3     
  28 N28           -3.9940    -6.1604     6.9605 N.3     
  29 C29           -4.5539    -5.1631     7.8824 C.3     
  30 C30           -5.7008    -5.7905     8.6773 C.3     
  31 C31           -6.2838    -4.7517     9.6375 C.3     
  32 C32           -5.1936    -4.2796    10.6015 C.3     
  33 C33           -4.0467    -3.6523     9.8066 C.3     
  34 C34           -3.4636    -4.6910     8.8464 C.3     
  35 N35           -5.7534    -3.2823    11.5234 N.3     
  36 C36            2.2632     2.0454     1.3479 C.ar    
  37 C37            1.7771     2.5663     2.5380 C.ar    
  38 C38            2.4839     2.3744     3.7165 C.ar    
  39 C39            3.6693     1.6656     3.7019 C.ar    
  40 C40            4.1520     1.1477     2.5141 C.ar    
  41 C41            3.4468     1.3326     1.3395 C.ar    
  42 S42            1.3684     2.2863    -0.1508 S.o2    
  43 O43            2.0665     1.5636    -1.1556 O.2     
  44 O44            1.1011     3.6791    -0.2391 O.2     
  45 C45            1.8713    -2.6606     1.6356 C.3     
  46 O46            0.6108     3.2637     2.5496 O.3     
  47 C47            0.2326     3.8748     3.7848 C.3     
  48 H48           -0.9117     2.0673     0.0557 H       
  49 H49            1.6527    -0.0067     1.2332 H       
  50 H50           -2.2565     1.1892    -1.2034 H       
  51 H51           -4.1047    -0.0798    -2.1575 H       
  52 H52           -4.1907    -2.5274    -1.9501 H       
  53 H53           -2.4288    -3.7442    -0.7883 H       
  54 H54            0.8967    -7.9592    -1.3616 H       
  55 H55            1.9669    -6.7463    -3.2457 H       
  56 H56            1.9168    -4.2895    -3.2874 H       
  57 H57            0.0660    -8.8125     0.0746 H       
  58 H58           -1.0462    -9.8682     2.0250 H       
  59 H59           -2.1211    -4.9648     3.6646 H       
  60 H60           -3.5853    -7.2218     4.5241 H       
  61 H61           -2.0447    -7.1803     5.4146 H       
  62 H62           -2.5405    -4.8693     6.1644 H       
  63 H63           -4.0811    -4.9109     5.2739 H       
  64 H64           -4.7035    -6.8102     6.6565 H       
  65 H65           -4.9289    -4.3124     7.3133 H       
  66 H66           -6.4775    -6.1268     7.9905 H       
  67 H67           -5.3257    -6.6411     9.2463 H       
  68 H68           -6.6589    -3.9011     9.0684 H       
  69 H69           -7.1009    -5.1987    10.2038 H       
  70 H70           -4.8185    -5.1303    11.1705 H       
  71 H71           -4.4217    -2.8016     9.2375 H       
  72 H72           -3.2699    -3.3159    10.4934 H       
  73 H73           -3.0886    -5.5417     9.4154 H       
  74 H74           -2.6465    -4.2440     8.2801 H       
  75 H75           -5.0523    -2.9547    12.1708 H       
  76 H76           -6.1657    -2.5131    11.0170 H       
  77 H77            2.1077     2.7793     4.6444 H       
  78 H78            4.2198     1.5160     4.6190 H       
  79 H79            5.0794     0.5943     2.5046 H       
  80 H80            3.8259     0.9271     0.4130 H       
  81 H81            2.6137    -3.0054     0.9158 H       
  82 H82            2.3438    -1.9869     2.3504 H       
  83 H83            1.4534    -3.5169     2.1649 H       
  84 H84            0.0388     3.1016     4.5283 H       
  85 H85            1.0393     4.5197     4.1331 H       
  86 H86           -0.6688     4.4690     3.6352 H       
@<TRIPOS>BOND
   1    1    2 1
   2    1   42 am
   3    1   48 1
   4    2    3 ar
   5    2    4 ar
   6    3    7 ar
   7    3   49 1
   8    4    5 ar
   9    4    8 ar
  10    5    6 ar
  11    5   11 ar
  12    6    7 ar
  13    6   12 1
  14    7   45 1
  15    8    9 ar
  16    8   50 1
  17    9   10 ar
  18    9   51 1
  19   10   11 ar
  20   10   52 1
  21   11   53 1
  22   12   13 1
  23   13   14 ar
  24   13   15 ar
  25   14   16 ar
  26   14   19 1
  27   15   18 ar
  28   16   17 ar
  29   16   54 1
  30   17   18 ar
  31   17   55 1
  32   18   56 1
  33   19   20 ar
  34   19   21 ar
  35   20   24 ar
  36   21   22 ar
  37   21   57 1
  38   22   23 ar
  39   22   58 1
  40   23   24 ar
  41   24   25 1
  42   25   26 1
  43   25   59 1
  44   26   27 1
  45   26   60 1
  46   26   61 1
  47   27   28 1
  48   27   62 1
  49   27   63 1
  50   28   29 1
  51   28   64 1
  52   29   30 1
  53   29   34 1
  54   29   65 1
  55   30   31 1
  56   30   66 1
  57   30   67 1
  58   31   32 1
  59   31   68 1
  60   31   69 1
  61   32   33 1
  62   32   35 1
  63   32   70 1
  64   33   34 1
  65   33   71 1
  66   33   72 1
  67   34   73 1
  68   34   74 1
  69   35   75 1
  70   35   76 1
  71   36   37 ar
  72   36   42 1
  73   36   41 ar
  74   37   38 ar
  75   37   46 1
  76   38   39 ar
  77   38   77 1
  78   39   40 ar
  79   39   78 1
  80   40   41 ar
  81   40   79 1
  82   41   80 1
  83   42   43 2
  84   42   44 2
  85   45   81 1
  86   45   82 1
  87   45   83 1
  88   46   47 1
  89   47   84 1
  90   47   85 1
  91   47   86 1

#	End of record

