#	Name: ASD01850005
#	Creating user name:	WinNT
#	Creation time:	15. 06. 2019 19:38

#	Modifying user name:	WinNT
#	Modification time:	15. 06. 2019 19:38

#	Program:	/corina/corina34_cracker 3.40 0067  02.08.2006

@<TRIPOS>MOLECULE
ASD01850005
  49   53    0    0    0
SMALL
NO_CHARGES


@<TRIPOS>ATOM
   1 O1             0.0441     0.0199    -0.2247 O.2     
   2 C2            -0.0144     1.2118     0.0087 C.2     
   3 N3             1.1162     1.9119     0.2280 N.am    
   4 C4             1.2298     3.3747     0.4087 C.3     
   5 C5             2.7438     3.6563     0.5633 C.3     
   6 N6             3.3675     2.4856    -0.0770 N.am    
   7 C7             2.4765     1.3708     0.3407 C.3     
   8 C8             2.7780     0.9359     1.7518 C.ar    
   9 C9             1.7724     0.4147     2.5442 C.ar    
  10 C10            2.0490     0.0158     3.8385 C.ar    
  11 C11            3.3313     0.1378     4.3403 C.ar    
  12 C12            4.3371     0.6581     3.5475 C.ar    
  13 C13            4.0615     1.0530     2.2517 C.ar    
  14 C14            2.7325     0.2695    -0.6491 C.ar    
  15 C15            2.1062    -0.9221    -0.9297 C.ar    
  16 C16            2.6027    -1.7498    -1.9229 C.ar    
  17 C17            3.7292    -1.3822    -2.6369 C.ar    
  18 C18            4.3635    -0.1865    -2.3678 C.ar    
  19 C19            3.8683     0.6543    -1.3728 C.ar    
  20 C20            4.3200     1.9705    -0.8556 C.2     
  21 O21            5.3887     2.4934    -1.1045 O.2     
  22 C22           -1.3221     1.8926     0.0458 C.ar    
  23 C23           -2.5021     1.1492    -0.0557 C.ar    
  24 C24           -3.7163     1.7847    -0.0209 C.ar    
  25 C25           -3.7753     3.1698     0.1149 C.ar    
  26 C26           -2.6015     3.9131     0.2158 C.ar    
  27 C27           -1.3846     3.2823     0.1884 C.ar    
  28 S28           -5.3376     3.9833     0.1587 S.3     
  29 C29           -4.8834     5.7298     0.3424 C.3     
  30 F30           -4.1015     6.1255    -0.7481 F       
  31 F31           -6.0431     6.5106     0.3924 F       
  32 F32           -4.1551     5.9004     1.5247 F       
  33 H33            0.8369     3.8943    -0.4652 H       
  34 H34            0.6948     3.6865     1.3058 H       
  35 H35            3.0203     4.5730     0.0425 H       
  36 H36            3.0198     3.7120     1.6163 H       
  37 H37            0.7706     0.3195     2.1522 H       
  38 H38            1.2632    -0.3907     4.4579 H       
  39 H39            3.5472    -0.1732     5.3517 H       
  40 H40            5.3389     0.7537     3.9396 H       
  41 H41            4.8473     1.4595     1.6324 H       
  42 H42            1.2265    -1.2129    -0.3748 H       
  43 H43            2.1091    -2.6854    -2.1405 H       
  44 H44            4.1139    -2.0337    -3.4076 H       
  45 H45            5.2427     0.0971    -2.9273 H       
  46 H46           -2.4569     0.0753    -0.1617 H       
  47 H47           -4.6279     1.2110    -0.0992 H       
  48 H48           -2.6502     4.9869     0.3203 H       
  49 H49           -0.4749     3.8590     0.2670 H       
@<TRIPOS>BOND
   1    1    2 2
   2    2    3 am
   3    2   22 1
   4    3    4 1
   5    3    7 1
   6    4    5 1
   7    4   33 1
   8    4   34 1
   9    5    6 1
  10    5   35 1
  11    5   36 1
  12    6    7 1
  13    6   20 am
  14    7    8 1
  15    7   14 1
  16    8    9 ar
  17    8   13 ar
  18    9   10 ar
  19    9   37 1
  20   10   11 ar
  21   10   38 1
  22   11   12 ar
  23   11   39 1
  24   12   13 ar
  25   12   40 1
  26   13   41 1
  27   14   15 ar
  28   14   19 ar
  29   15   16 ar
  30   15   42 1
  31   16   17 ar
  32   16   43 1
  33   17   18 ar
  34   17   44 1
  35   18   19 ar
  36   18   45 1
  37   19   20 1
  38   20   21 2
  39   22   23 ar
  40   22   27 ar
  41   23   24 ar
  42   23   46 1
  43   24   25 ar
  44   24   47 1
  45   25   26 ar
  46   25   28 1
  47   26   27 ar
  48   26   48 1
  49   27   49 1
  50   28   29 1
  51   29   30 1
  52   29   31 1
  53   29   32 1

#	End of record

