#	Name: ASD01148652
#	Creating user name:	WinNT
#	Creation time:	15. 06. 2019 19:02

#	Modifying user name:	WinNT
#	Modification time:	15. 06. 2019 19:02

#	Program:	/corina/corina34_cracker 3.40 0067  02.08.2006

@<TRIPOS>MOLECULE
ASD01148652
  43   45    0    0    0
SMALL
NO_CHARGES


@<TRIPOS>ATOM
   1 C1             0.0978     1.2283     0.4951 C.ar    
   2 C2             0.3616    -0.1167     0.3688 C.ar    
   3 C3             0.8775     2.1674    -0.1901 C.ar    
   4 C4             1.9255     1.7425    -1.0046 C.ar    
   5 C5             2.1934     0.3819    -1.1332 C.ar    
   6 C6             1.4052    -0.5524    -0.4403 C.ar    
   7 C7             3.3010    -0.0766    -1.9934 C.2     
   8 N8             1.6677    -1.9102    -0.5641 N.am    
   9 C9             0.6793    -2.7589    -0.9095 C.2     
  10 O10           -0.4207    -2.3266    -1.1967 O.2     
  11 C11            0.9308    -4.2072    -0.9390 C.2     
  12 N12            0.0674    -5.1755    -1.3802 N.pl3   
  13 N13            0.7057    -6.4134    -1.2334 N.2     
  14 C14            1.8986    -6.2164    -0.7286 C.2     
  15 C15            2.0839    -4.8488    -0.5332 C.2     
  16 C16           -1.2183    -4.9656    -1.8847 C.ar    
  17 C17           -1.9304    -6.0328    -2.4221 C.ar    
  18 N18           -1.7497    -3.7546    -1.8420 N.ar    
  19 C19           -2.9601    -3.5130    -2.3067 C.ar    
  20 C20           -3.7223    -4.5241    -2.8589 C.ar    
  21 C21           -3.2043    -5.8103    -2.9183 C.ar    
  22 Cl22          -1.2320    -7.6213    -2.4707 Cl      
  23 Br23           3.1639    -7.5657    -0.3356 Br      
  24 N24            3.9898     0.8123    -2.7363 N.am    
  25 O25            3.5923    -1.2565    -2.0321 O.2     
  26 C26            5.0895     0.3570    -3.5904 C.3     
  27 C27           -0.4831    -1.1205     1.1104 C.3     
  28 C28            0.5979     3.5653    -0.0545 C.1     
  29 N29            0.3761     4.6742     0.0531 N.1     
  30 H30           -0.7168     1.5601     1.1218 H       
  31 H31            2.5275     2.4658    -1.5345 H       
  32 H32            2.5625    -2.2479    -0.4020 H       
  33 H33            2.9678    -4.3766    -0.1306 H       
  34 H34           -3.3608    -2.5114    -2.2544 H       
  35 H35           -4.7126    -4.3167    -3.2366 H       
  36 H36           -3.7797    -6.6183    -3.3454 H       
  37 H37            3.7574     1.7535    -2.7054 H       
  38 H38            4.7106    -0.3585    -4.3202 H       
  39 H39            5.5233     1.2111    -4.1104 H       
  40 H40            5.8530    -0.1205    -2.9761 H       
  41 H41           -1.3987    -1.3095     0.5499 H       
  42 H42            0.0730    -2.0512     1.2224 H       
  43 H43           -0.7347    -0.7267     2.0951 H       
@<TRIPOS>BOND
   1    1    2 ar
   2    1    3 ar
   3    1   30 1
   4    2   27 1
   5    2    6 ar
   6    3    4 ar
   7    3   28 1
   8    4    5 ar
   9    4   31 1
  10    5    6 ar
  11    5    7 1
  12    6    8 1
  13    7   24 am
  14    7   25 2
  15    8    9 am
  16    8   32 1
  17    9   10 2
  18    9   11 1
  19   11   12 1
  20   11   15 2
  21   12   13 1
  22   12   16 1
  23   13   14 2
  24   14   15 1
  25   14   23 1
  26   15   33 1
  27   16   17 ar
  28   16   18 ar
  29   17   22 1
  30   17   21 ar
  31   18   19 ar
  32   19   20 ar
  33   19   34 1
  34   20   21 ar
  35   20   35 1
  36   21   36 1
  37   24   26 1
  38   24   37 1
  39   26   38 1
  40   26   39 1
  41   26   40 1
  42   27   41 1
  43   27   42 1
  44   27   43 1
  45   28   29 3

#	End of record

