#	Name: ASD00431476
#	Creating user name:	WinNT
#	Creation time:	15. 06. 2019 18:35

#	Modifying user name:	WinNT
#	Modification time:	15. 06. 2019 18:35

#	Program:	/corina/corina34_cracker 3.40 0067  02.08.2006

@<TRIPOS>MOLECULE
ASD00431476
  41   43    0    0    0
SMALL
NO_CHARGES


@<TRIPOS>ATOM
   1 C1            -2.5392     6.4302     5.0544 C.3     
   2 C2            -3.1219     6.6982     3.6654 C.3     
   3 S3            -0.9675     8.8337     5.4283 S.3     
   4 N4             0.7274     8.7164     5.4661 N.2     
   5 C5             0.9975     7.4427     5.3028 C.2     
   6 N6            -0.0249     6.6192     5.1594 N.2     
   7 C7            -1.2205     7.1462     5.1927 C.2     
   8 S8             2.8935     5.2744     5.0685 S.3     
   9 C9             4.5340     5.7407     5.1842 C.2     
  10 N10            4.6265     7.0220     5.3610 N.2     
  11 C11            3.5010     7.7022     5.4175 C.2     
  12 C12            2.3903     6.9495     5.2799 C.2     
  13 O13            5.5873     4.8927     5.1030 O.3     
  14 C14            6.8380     5.4257     5.1106 C.ar    
  15 C15            7.3084     6.0755     6.2424 C.ar    
  16 C16            8.5791     6.6165     6.2501 C.ar    
  17 C17            9.3849     6.5106     5.1260 C.ar    
  18 C18            8.9145     5.8614     3.9941 C.ar    
  19 C19            7.6461     5.3149     3.9883 C.ar    
  20 O20           10.6357     7.0437     5.1335 O.3     
  21 C21           11.0052     7.8153     6.2781 C.3     
  22 C22           11.7241     6.9182     7.2877 C.3     
  23 C23           11.9380     8.9496     5.8490 C.3     
  24 O24           -3.4462     6.9055     6.0512 O.3     
  25 H25           -2.3862     5.3587     5.1837 H       
  26 H26           -2.4301     6.3356     2.9050 H       
  27 H27           -4.0758     6.1803     3.5653 H       
  28 H28           -3.2749     7.7696     3.5361 H       
  29 H29            3.4696     8.7720     5.5622 H       
  30 H30            6.6808     6.1585     7.1174 H       
  31 H31            8.9453     7.1223     7.1313 H       
  32 H32            9.5417     5.7796     3.1187 H       
  33 H33            7.2816     4.8052     3.1087 H       
  34 H34           10.1104     8.2350     6.7377 H       
  35 H35           12.6190     6.4985     6.8281 H       
  36 H36           12.0060     7.5068     8.1607 H       
  37 H37           11.0596     6.1101     7.5934 H       
  38 H38           11.4259     9.5888     5.1298 H       
  39 H39           12.2199     9.5382     6.7220 H       
  40 H40           12.8329     8.5300     5.3894 H       
  41 H41           -4.3175     6.4872     6.0217 H       
@<TRIPOS>BOND
   1    1    2 1
   2    1    7 1
   3    1   24 1
   4    1   25 1
   5    2   26 1
   6    2   27 1
   7    2   28 1
   8    3    4 1
   9    3    7 1
  10    4    5 2
  11    5    6 1
  12    5   12 1
  13    6    7 2
  14    8    9 1
  15    8   12 1
  16    9   10 2
  17    9   13 1
  18   10   11 1
  19   11   12 2
  20   11   29 1
  21   13   14 1
  22   14   15 ar
  23   14   19 ar
  24   15   16 ar
  25   15   30 1
  26   16   17 ar
  27   16   31 1
  28   17   18 ar
  29   17   20 1
  30   18   19 ar
  31   18   32 1
  32   19   33 1
  33   20   21 1
  34   21   22 1
  35   21   23 1
  36   21   34 1
  37   22   35 1
  38   22   36 1
  39   22   37 1
  40   23   38 1
  41   23   39 1
  42   23   40 1
  43   24   41 1

#	End of record

