#	Name: ASD01122028
#	Creating user name:	WinNT
#	Creation time:	15. 06. 2019 18:59

#	Modifying user name:	WinNT
#	Modification time:	15. 06. 2019 18:59

#	Program:	/corina/corina34_cracker 3.40 0067  02.08.2006

@<TRIPOS>MOLECULE
ASD01122028
  44   45    0    0    0
SMALL
NO_CHARGES


@<TRIPOS>ATOM
   1 N1            -0.0636     1.2609     0.4739 N.ar    
   2 C2            -0.0295    -0.0562     0.3929 C.ar    
   3 N3             1.0961    -0.7264     0.2562 N.ar    
   4 C4             2.2592    -0.0900     0.1934 C.ar    
   5 C5             2.2771     1.3116     0.2745 C.ar    
   6 C6             1.0513     1.9827     0.4203 C.ar    
   7 N7             3.5751    -0.4787     0.0569 N.am    
   8 C8             4.3371     0.6610     0.0584 C.2     
   9 N9             3.5723     1.7038     0.1859 N.2     
  10 N10            1.0057     3.3632     0.5053 N.pl3   
  11 P11            8.2871    -0.8520    -1.9720 P.3     
  12 O12            7.7298    -1.3618    -3.3446 O.co2   
  13 O13            7.8122    -1.8103    -0.8272 O.co2   
  14 O14            9.8529    -0.8309    -2.0195 O.co2   
  15 O15            5.2007    -1.9488    -0.2614 O.2     
  16 C16            4.0278    -1.7431    -0.0567 C.2     
  17 C17            3.0710    -2.9003     0.0715 C.3     
  18 O18            3.5387    -3.7954     1.0825 O.3     
  19 C19            2.9841    -3.6407    -1.2646 C.3     
  20 O20            2.4389    -2.7694    -2.2574 O.3     
  21 C21            2.0816    -4.8665    -1.1107 C.3     
  22 O22            2.6268    -5.7378    -0.1179 O.3     
  23 C23            1.9947    -5.6069    -2.4468 C.3     
  24 O24            1.0617    -6.6834    -2.3351 O.3     
  25 C25            7.6661     0.8318    -1.6517 C.3     
  26 C26            5.8382     0.6988    -0.0693 C.3     
  27 N27            6.2067     0.7926    -1.4883 N.3     
  28 H28           -0.9587    -0.6045     0.4407 H       
  29 H29            1.8262     3.8790     0.4643 H       
  30 H30            0.1533     3.8150     0.6058 H       
  31 H31            2.0840    -2.5272     0.3449 H       
  32 H32            4.4136    -4.1669     0.9048 H       
  33 H33            3.9811    -3.9594    -1.5689 H       
  34 H34            1.5838    -2.3865    -2.0180 H       
  35 H35            1.0846    -4.5478    -0.8065 H       
  36 H36            3.5147    -6.0612    -0.3232 H       
  37 H37            1.6629    -4.9176    -3.2233 H       
  38 H38            2.9764    -6.0025    -2.7075 H       
  39 H39            0.9556    -7.1979    -3.1470 H       
  40 H40            8.1233     1.2207    -0.7419 H       
  41 H41            7.9204     1.4786    -2.4913 H       
  42 H42            6.2266     1.5658     0.4650 H       
  43 H43            6.2622    -0.2105     0.3568 H       
  44 H44            5.7726     1.5933    -1.9224 H       
@<TRIPOS>BOND
   1    1    2 ar
   2    1    6 ar
   3    2    3 ar
   4    2   28 1
   5    3    4 ar
   6    4    5 ar
   7    4    7 1
   8    5    6 ar
   9    5    9 1
  10    6   10 1
  11    7    8 1
  12    7   16 am
  13    8    9 2
  14    8   26 1
  15   10   29 1
  16   10   30 1
  17   11   12 ar
  18   11   13 ar
  19   11   14 ar
  20   11   25 1
  21   15   16 2
  22   16   17 1
  23   17   18 1
  24   17   19 1
  25   17   31 1
  26   18   32 1
  27   19   20 1
  28   19   21 1
  29   19   33 1
  30   20   34 1
  31   21   22 1
  32   21   23 1
  33   21   35 1
  34   22   36 1
  35   23   24 1
  36   23   37 1
  37   23   38 1
  38   24   39 1
  39   25   27 1
  40   25   40 1
  41   25   41 1
  42   26   27 1
  43   26   42 1
  44   26   43 1
  45   27   44 1

#	End of record

