#	Name: ASD03331395
#	Creating user name:	WinNT
#	Creation time:	15. 06. 2019 20:39

#	Modifying user name:	WinNT
#	Modification time:	15. 06. 2019 20:39

#	Program:	/corina/corina34_cracker 3.40 0067  02.08.2006

@<TRIPOS>MOLECULE
ASD03331395
  57   59    0    0    0
SMALL
NO_CHARGES


@<TRIPOS>ATOM
   1 O1            -0.4642     0.5665     0.5822 O.3     
   2 C2            -0.5263    -0.8437     0.3537 C.3     
   3 C3             0.0639    -1.1704    -1.0273 C.3     
   4 C4             1.3708    -0.4354    -1.1491 C.2     
   5 C5             1.7349     0.5815    -0.3244 C.2     
   6 C6             0.8590     1.0779     0.7967 C.3     
   7 C7             2.4304    -0.6007    -2.0515 C.2     
   8 N8             3.3489     0.2970    -1.7302 N.2     
   9 N9             2.9552     0.9956    -0.7201 N.pl3   
  10 C10            2.5075    -1.5858    -3.1487 C.2     
  11 O11            1.5882    -2.3588    -3.3373 O.2     
  12 N12            3.5968    -1.6281    -3.9411 N.am    
  13 C13            3.6733    -2.6055    -5.0297 C.3     
  14 C14            2.9741    -2.0439    -6.2694 C.3     
  15 C15            5.1183    -2.8864    -5.3521 C.2     
  16 C16            3.6867     2.0316    -0.1234 C.ar    
  17 C17            3.7330     2.1423     1.2597 C.ar    
  18 C18            4.4538     3.1640     1.8471 C.ar    
  19 C19            5.1306     4.0778     1.0582 C.ar    
  20 C20            5.0866     3.9695    -0.3242 C.ar    
  21 C21            4.3704     2.9450    -0.9149 C.ar    
  22 F22            5.8345     5.0764     1.6348 F       
  23 C23            3.6387    -0.7276    -6.6774 C.3     
  24 C24            3.0861    -3.0492    -7.4174 C.3     
  25 C25            1.4982    -1.7935    -5.9530 C.3     
  26 N26            5.4531    -4.0025    -6.0294 N.am    
  27 O27            5.9801    -2.1082    -5.0020 O.2     
  28 C28            6.8636    -4.3240    -6.2601 C.3     
  29 F29            5.7478     4.8622    -1.0931 F       
  30 C30            6.9664    -5.6325    -7.0464 C.3     
  31 O31            6.4021    -5.4524    -8.3468 O.3     
  32 H32            0.0450    -1.3616     1.1241 H       
  33 H33           -1.5651    -1.1718     0.3911 H       
  34 H34            0.2340    -2.2437    -1.1122 H       
  35 H35           -0.6201    -0.8406    -1.8092 H       
  36 H36            0.8381     2.1677     0.7935 H       
  37 H37            1.2429     0.7185     1.7515 H       
  38 H38            4.3302    -1.0113    -3.7907 H       
  39 H39            3.1831    -3.5296    -4.7234 H       
  40 H40            3.2052     1.4299     1.8764 H       
  41 H41            4.4888     3.2500     2.9231 H       
  42 H42            4.3358     2.8602    -1.9910 H       
  43 H43            4.6901    -0.9060    -6.9028 H       
  44 H44            3.1406    -0.3276    -7.5605 H       
  45 H45            3.5589    -0.0115    -5.8595 H       
  46 H46            2.6109    -3.9863    -7.1275 H       
  47 H47            2.5898    -2.6482    -8.3011 H       
  48 H48            4.1376    -3.2291    -7.6414 H       
  49 H49            1.4184    -1.0774    -5.1351 H       
  50 H50            1.0001    -1.3935    -6.8361 H       
  51 H51            1.0248    -2.7313    -5.6623 H       
  52 H52            4.7600    -4.5929    -6.3641 H       
  53 H53            7.3310    -3.5205    -6.8293 H       
  54 H54            7.3724    -4.4346    -5.3025 H       
  55 H55            8.0141    -5.9180    -7.1413 H       
  56 H56            6.4225    -6.4166    -6.5196 H       
  57 H57            6.4331    -6.2436    -8.9020 H       
@<TRIPOS>BOND
   1    1    2 1
   2    1    6 1
   3    2    3 1
   4    2   32 1
   5    2   33 1
   6    3    4 1
   7    3   34 1
   8    3   35 1
   9    4    5 2
  10    4    7 1
  11    5    6 1
  12    5    9 1
  13    6   36 1
  14    6   37 1
  15    7    8 2
  16    7   10 1
  17    8    9 1
  18    9   16 1
  19   10   11 2
  20   10   12 am
  21   12   13 1
  22   12   38 1
  23   13   14 1
  24   13   15 1
  25   13   39 1
  26   14   23 1
  27   14   24 1
  28   14   25 1
  29   15   26 am
  30   15   27 2
  31   16   17 ar
  32   16   21 ar
  33   17   18 ar
  34   17   40 1
  35   18   19 ar
  36   18   41 1
  37   19   20 ar
  38   19   22 1
  39   20   21 ar
  40   20   29 1
  41   21   42 1
  42   23   43 1
  43   23   44 1
  44   23   45 1
  45   24   46 1
  46   24   47 1
  47   24   48 1
  48   25   49 1
  49   25   50 1
  50   25   51 1
  51   26   28 1
  52   26   52 1
  53   28   30 1
  54   28   53 1
  55   28   54 1
  56   30   31 1
  57   30   55 1
  58   30   56 1
  59   31   57 1

#	End of record

