#	Name: ASD01230317
#	Creating user name:	WinNT
#	Creation time:	15. 06. 2019 19:14

#	Modifying user name:	WinNT
#	Modification time:	15. 06. 2019 19:14

#	Program:	/corina/corina34_cracker 3.40 0067  02.08.2006

@<TRIPOS>MOLECULE
ASD01230317
  29   30    0    0    0
SMALL
NO_CHARGES


@<TRIPOS>ATOM
   1 C1            -0.0689     1.4032    -0.1627 C.ar    
   2 C2            -0.0836     0.0297    -0.2652 C.ar    
   3 C3             1.1033    -0.6814    -0.2992 C.ar    
   4 C4             2.3077    -0.0051    -0.2163 C.ar    
   5 C5             2.3231     1.3694    -0.1000 C.ar    
   6 C6             1.1429     2.0974    -0.0918 C.ar    
   7 N7             1.0895     3.4843    -0.0546 N.3     
   8 S8             3.8705     2.2106     0.0719 S.o2    
   9 N9             3.4585     3.8284    -0.0008 N.am    
  10 C10            2.1718     4.1685     0.6409 C.3     
  11 Cl11           1.0812    -2.4112    -0.4445 Cl      
  12 O12            4.3325     1.9607     1.3922 O.2     
  13 O13            4.6285     1.9243    -1.0955 O.2     
  14 C14            1.9492     5.6806     0.5697 C.3     
  15 C15           -0.2197     3.9481     0.4237 C.3     
  16 C16           -0.3685     3.6119     1.9088 C.3     
  17 F17           -0.2711     2.2276     2.0856 F       
  18 F18            0.6449     4.2472     2.6346 F       
  19 H19           -1.0008     1.9487    -0.1415 H       
  20 H20           -1.0260    -0.4950    -0.3188 H       
  21 H21            3.2373    -0.5543    -0.2423 H       
  22 H22            4.0194     4.4922    -0.4315 H       
  23 H23            2.1916     3.8520     1.6837 H       
  24 H24            0.9990     5.9306     1.0416 H       
  25 H25            2.7590     6.1919     1.0900 H       
  26 H26            1.9310     5.9964    -0.4734 H       
  27 H27           -0.2957     5.0267     0.2859 H       
  28 H28           -1.0093     3.4531    -0.1418 H       
  29 H29           -1.3400     3.9560     2.2637 H       
@<TRIPOS>BOND
   1    1    2 ar
   2    1    6 ar
   3    1   19 1
   4    2    3 ar
   5    2   20 1
   6    3    4 ar
   7    3   11 1
   8    4    5 ar
   9    4   21 1
  10    5    6 ar
  11    5    8 1
  12    6    7 1
  13    7   10 1
  14    7   15 1
  15    8    9 am
  16    8   12 2
  17    8   13 2
  18    9   10 1
  19    9   22 1
  20   10   14 1
  21   10   23 1
  22   14   24 1
  23   14   25 1
  24   14   26 1
  25   15   16 1
  26   15   27 1
  27   15   28 1
  28   16   17 1
  29   16   18 1
  30   16   29 1

#	End of record

