#	Name: ASD01150663
#	Creating user name:	WinNT
#	Creation time:	15. 06. 2019 19:04

#	Modifying user name:	WinNT
#	Modification time:	15. 06. 2019 19:04

#	Program:	/corina/corina34_cracker 3.40 0067  02.08.2006

@<TRIPOS>MOLECULE
ASD01150663
  54   56    0    0    0
SMALL
NO_CHARGES


@<TRIPOS>ATOM
   1 C1             1.9143     1.4016     0.9687 C.ar    
   2 C2             1.9596     0.0213     0.9430 C.ar    
   3 C3             0.4926     0.0046    -0.9573 C.ar    
   4 C4             0.4445     1.3911    -0.9341 C.ar    
   5 C5             1.1563     2.0910     0.0298 C.ar    
   6 N6             1.1105     3.4892     0.0567 N.am    
   7 C7            -0.0780     4.1147    -0.0078 C.2     
   8 N8            -0.1589     5.4581     0.0161 N.am    
   9 C9             0.9636     6.2013     0.1061 C.2     
  10 C10            2.2667     5.5231     0.1770 C.2     
  11 N11            2.3023     4.2168     0.1563 N.2     
  12 O12            0.8987     7.4163     0.1278 O.2     
  13 C13           -1.4670     6.1139    -0.0561 C.3     
  14 O14           -1.0968     3.4557    -0.0895 O.2     
  15 C15           -2.0092     6.3079     1.3365 C.ar    
  16 O16            3.4151     6.2432     0.2677 O.3     
  17 C17            4.6386     5.5078     0.3321 C.3     
  18 C18            1.2518    -0.6785    -0.0157 C.ar    
  19 N19           -0.2233    -0.7049    -1.9279 N.am    
  20 C20            0.2667    -1.8622    -2.4149 C.2     
  21 O21            1.3684    -2.2429    -2.0799 O.2     
  22 C22           -0.5545    -2.6831    -3.3755 C.3     
  23 C23           -1.7246     7.4671     2.0338 C.ar    
  24 C24           -2.2219     7.6450     3.3112 C.ar    
  25 C25           -3.0043     6.6640     3.8912 C.ar    
  26 C26           -3.2896     5.5052     3.1936 C.ar    
  27 C27           -2.7959     5.3292     1.9145 C.ar    
  28 C28            5.8145     6.4817     0.4301 C.3     
  29 O29            5.7384     7.1978     1.6643 O.3     
  30 C30            6.7962     8.1392     1.8563 C.3     
  31 N31           -3.5360     6.8541     5.2595 N.pl3   
  32 O32           -3.2843     7.8750     5.8743 O.2     
  33 O33           -4.2253     5.9897     5.7705 O.2     
  34 H34            2.4650     1.9454     1.7220 H       
  35 H35            2.5496    -0.5122     1.6735 H       
  36 H36           -0.1453     1.9245    -1.6649 H       
  37 H37           -1.3610     7.0833    -0.5431 H       
  38 H38           -2.1540     5.4921    -0.6301 H       
  39 H39            4.6282     4.8614     1.2097 H       
  40 H40            4.7446     4.8993    -0.5660 H       
  41 H41            1.2893    -1.7577    -0.0331 H       
  42 H42           -1.0722    -0.3638    -2.2503 H       
  43 H43           -0.3365    -2.3725    -4.3973 H       
  44 H44           -0.3069    -3.7379    -3.2557 H       
  45 H45           -1.6140    -2.5328    -3.1682 H       
  46 H46           -1.1134     8.2336     1.5807 H       
  47 H47           -1.9990     8.5504     3.8563 H       
  48 H48           -3.9005     4.7386     3.6469 H       
  49 H49           -3.0188     4.4238     1.3695 H       
  50 H50            6.7512     5.9257     0.3898 H       
  51 H51            5.7737     7.1854    -0.4014 H       
  52 H52            7.7532     7.6175     1.8456 H       
  53 H53            6.7758     8.8773     1.0544 H       
  54 H54            6.6666     8.6409     2.8153 H       
@<TRIPOS>BOND
   1    1    2 ar
   2    1    5 ar
   3    1   34 1
   4    2   18 ar
   5    2   35 1
   6    3    4 ar
   7    3   19 1
   8    3   18 ar
   9    4    5 ar
  10    4   36 1
  11    5    6 1
  12    6    7 am
  13    6   11 1
  14    7    8 am
  15    7   14 2
  16    8    9 am
  17    8   13 1
  18    9   10 1
  19    9   12 2
  20   10   11 2
  21   10   16 1
  22   13   15 1
  23   13   37 1
  24   13   38 1
  25   15   23 ar
  26   15   27 ar
  27   16   17 1
  28   17   28 1
  29   17   39 1
  30   17   40 1
  31   18   41 1
  32   19   20 am
  33   19   42 1
  34   20   21 2
  35   20   22 1
  36   22   43 1
  37   22   44 1
  38   22   45 1
  39   23   24 ar
  40   23   46 1
  41   24   25 ar
  42   24   47 1
  43   25   26 ar
  44   25   31 1
  45   26   27 ar
  46   26   48 1
  47   27   49 1
  48   28   29 1
  49   28   50 1
  50   28   51 1
  51   29   30 1
  52   30   52 1
  53   30   53 1
  54   30   54 1
  55   31   32 2
  56   31   33 2

#	End of record

