#	Name: ASD01910743
#	Creating user name:	WinNT
#	Creation time:	15. 06. 2019 19:56

#	Modifying user name:	WinNT
#	Modification time:	15. 06. 2019 19:56

#	Program:	/corina/corina34_cracker 3.40 0067  02.08.2006

@<TRIPOS>MOLECULE
ASD01910743
  52   55    0    0    0
SMALL
NO_CHARGES


@<TRIPOS>ATOM
   1 C1            12.4929    -1.8925     4.2627 C.ar    
   2 C2            13.1109    -2.0556     3.0302 C.ar    
   3 C3            12.3988    -1.7380     1.8874 C.ar    
   4 C4            11.0953    -1.2687     2.0112 C.ar    
   5 N5            10.5408    -1.1264     3.2053 N.ar    
   6 C6            11.1959    -1.4218     4.3119 C.ar    
   7 N7            10.3683    -0.9458     0.8712 N.3     
   8 C8             9.0225    -0.4726     1.2216 C.3     
   9 C9             8.3209     0.0418    -0.0399 C.3     
  10 N10            8.3620    -1.0157    -1.0614 N.am    
  11 C11            9.6596    -1.6361    -1.3689 C.3     
  12 C12           10.3084    -2.0844    -0.0550 C.3     
  13 C13            7.2404    -1.4055    -1.6989 C.2     
  14 C14            7.3212    -2.3800    -2.8082 C.ar    
  15 O15            6.1624    -0.9561    -1.3622 O.2     
  16 C16            6.3483    -3.3735    -2.9390 C.ar    
  17 C17            6.4215    -4.2849    -3.9742 C.ar    
  18 C18            7.4551    -4.2215    -4.8866 C.ar    
  19 C19            8.4361    -3.2319    -4.7683 C.ar    
  20 C20            8.3647    -2.3054    -3.7281 C.ar    
  21 C21            9.5082    -3.1668    -5.7153 C.1     
  22 C22           10.3872    -3.1135    -6.4918 C.1     
  23 C23           11.4593    -3.0485    -7.4389 C.ar    
  24 C24            7.5271    -5.2210    -6.0121 C.3     
  25 C25           12.4400    -2.0602    -7.3218 C.ar    
  26 C26           13.4704    -2.0025    -8.2372 C.ar    
  27 C27           13.5353    -2.9200    -9.2702 C.ar    
  28 C28           12.5665    -3.9037    -9.3938 C.ar    
  29 C29           11.5325    -3.9765    -8.4808 C.ar    
  30 F30           12.6366    -4.7960   -10.4058 F       
  31 H31           13.0198    -2.1356     5.1736 H       
  32 H32           14.1248    -2.4218     2.9651 H       
  33 H33           12.8491    -1.8525     0.9125 H       
  34 H34           10.7114    -1.2931     5.2685 H       
  35 H35            8.4475    -1.2945     1.6481 H       
  36 H36            9.0990     0.3347     1.9500 H       
  37 H37            7.2844     0.2871     0.1917 H       
  38 H38            8.8361     0.9283    -0.4097 H       
  39 H39            9.5081    -2.5001    -2.0159 H       
  40 H40           10.3034    -0.9109    -1.8665 H       
  41 H41           11.3175    -2.4460    -0.2525 H       
  42 H42            9.7155    -2.8839     0.3892 H       
  43 H43            5.5368    -3.4295    -2.2286 H       
  44 H44            5.6664    -5.0512    -4.0700 H       
  45 H45            9.1193    -1.5389    -3.6316 H       
  46 H46            6.9838    -4.8360    -6.8751 H       
  47 H47            8.5694    -5.3878    -6.2838 H       
  48 H48            7.0801    -6.1620    -5.6916 H       
  49 H49           12.3913    -1.3425    -6.5163 H       
  50 H50           14.2285    -1.2385    -8.1472 H       
  51 H51           14.3442    -2.8696    -9.9840 H       
  52 H52           10.7778    -4.7430    -8.5773 H       
@<TRIPOS>BOND
   1    1    2 ar
   2    1    6 ar
   3    1   31 1
   4    2    3 ar
   5    2   32 1
   6    3    4 ar
   7    3   33 1
   8    4    5 ar
   9    4    7 1
  10    5    6 ar
  11    6   34 1
  12    7    8 1
  13    7   12 1
  14    8    9 1
  15    8   35 1
  16    8   36 1
  17    9   10 1
  18    9   37 1
  19    9   38 1
  20   10   11 1
  21   10   13 am
  22   11   12 1
  23   11   39 1
  24   11   40 1
  25   12   41 1
  26   12   42 1
  27   13   14 1
  28   13   15 2
  29   14   16 ar
  30   14   20 ar
  31   16   17 ar
  32   16   43 1
  33   17   18 ar
  34   17   44 1
  35   18   19 ar
  36   18   24 1
  37   19   20 ar
  38   19   21 1
  39   20   45 1
  40   21   22 3
  41   22   23 1
  42   23   25 ar
  43   23   29 ar
  44   24   46 1
  45   24   47 1
  46   24   48 1
  47   25   26 ar
  48   25   49 1
  49   26   27 ar
  50   26   50 1
  51   27   28 ar
  52   27   51 1
  53   28   29 ar
  54   28   30 1
  55   29   52 1

#	End of record

