#	Name: ASD01900440
#	Creating user name:	WinNT
#	Creation time:	15. 06. 2019 19:51

#	Modifying user name:	WinNT
#	Modification time:	15. 06. 2019 19:51

#	Program:	/corina/corina34_cracker 3.40 0067  02.08.2006

@<TRIPOS>MOLECULE
ASD01900440
  27   29    0    0    0
SMALL
NO_CHARGES


@<TRIPOS>ATOM
   1 C1            -0.0155     1.3866     0.0397 C.ar    
   2 C2             0.0468     0.0945    -0.4674 C.ar    
   3 C3             1.2529    -0.5803    -0.4926 C.ar    
   4 C4             2.4019     0.0344    -0.0109 C.ar    
   5 C5             2.3375     1.3257     0.4954 C.ar    
   6 C6             1.1313     1.9992     0.5201 C.ar    
   7 O7            -1.2015     2.0529     0.0594 O.3     
   8 F8            -1.0713    -0.5023    -0.9351 F       
   9 N9             3.6232    -0.6477    -0.0355 N.pl3   
  10 C10            6.1711    -0.4960    -0.0751 C.ar    
  11 C11            7.0542     0.5881    -0.2406 C.ar    
  12 C12            8.4282     0.3510    -0.2207 C.ar    
  13 C13            8.8648    -0.9464    -0.0381 C.ar    
  14 C14            7.9368    -1.9676     0.1188 C.ar    
  15 N15            6.6456    -1.7273     0.0979 N.ar    
  16 N16            4.9347     1.3549    -0.3300 N.2     
  17 N17            6.2856     1.7114    -0.3951 N.pl3   
  18 C18            4.8204     0.0660    -0.1486 C.2     
  19 H19            1.3020    -1.5848    -0.8863 H       
  20 H20            3.2305     1.8038     0.8700 H       
  21 H21            1.0820     3.0037     0.9137 H       
  22 H22           -1.7129     1.9217     0.8696 H       
  23 H23            3.6396    -1.6156     0.0260 H       
  24 H24            9.1322     1.1605    -0.3450 H       
  25 H25            9.9221    -1.1656    -0.0178 H       
  26 H26            8.2840    -2.9803     0.2612 H       
  27 H27            6.6242     2.6106    -0.5281 H       
@<TRIPOS>BOND
   1    1    2 ar
   2    1    6 ar
   3    1    7 1
   4    2    3 ar
   5    2    8 1
   6    3    4 ar
   7    3   19 1
   8    4    5 ar
   9    4    9 1
  10    5    6 ar
  11    5   20 1
  12    6   21 1
  13    7   22 1
  14    9   18 1
  15    9   23 1
  16   10   11 ar
  17   10   15 ar
  18   10   18 1
  19   11   12 ar
  20   11   17 1
  21   12   13 ar
  22   12   24 1
  23   13   14 ar
  24   13   25 1
  25   14   15 ar
  26   14   26 1
  27   16   17 1
  28   16   18 2
  29   17   27 1

#	End of record

