#	Name: ASD07300298
#	Creating user name:	WinNT
#	Creation time:	15. 06. 2019 21:09

#	Modifying user name:	WinNT
#	Modification time:	15. 06. 2019 21:09

#	Program:	/corina/corina34_cracker 3.40 0067  02.08.2006

@<TRIPOS>MOLECULE
ASD07300298
  46   49    0    0    0
SMALL
NO_CHARGES


@<TRIPOS>ATOM
   1 C1            -0.0169     1.3940     0.0097 C.ar    
   2 C2             0.0021    -0.0041     0.0020 C.ar    
   3 C3             1.2191    -0.6684    -0.0132 C.ar    
   4 C4             2.3836     0.0929    -0.0202 C.ar    
   5 C5             2.2881     1.4765    -0.0119 C.ar    
   6 N6             1.1146     2.0785     0.0026 N.ar    
   7 C7            -2.1147     0.6611     0.0347 C.2     
   8 N8            -1.3563     1.7730     0.0302 N.am    
   9 N9            -1.3233    -0.4283     0.0129 N.am    
  10 O10           -3.3312     0.6429     0.0520 O.2     
  11 O11            3.6012    -0.5125    -0.0347 O.3     
  12 C12           -1.7792    -1.8205     0.0099 C.3     
  13 C13           -1.9236    -2.3129     1.4513 C.3     
  14 C14           -1.8349     3.0917     0.0445 C.ar    
  15 C15           -3.2017     3.3342     0.0645 C.ar    
  16 C16           -3.6722     4.6324     0.0785 C.ar    
  17 C17           -2.7794     5.6941     0.0726 C.ar    
  18 C18           -1.4136     5.4524     0.0526 C.ar    
  19 C19           -0.9418     4.1546     0.0443 C.ar    
  20 O20           -3.2433     6.9721     0.0860 O.3     
  21 C21           -2.2678     8.0164     0.0789 C.3     
  22 C22           -2.9631     9.3533     0.0956 C.ar    
  23 C23           -3.2661     9.9598     1.3004 C.ar    
  24 C24           -3.9039    11.1861     1.3157 C.ar    
  25 C25           -4.2383    11.8062     0.1264 C.ar    
  26 C26           -3.9346    11.2002    -1.0783 C.ar    
  27 C27           -3.2929     9.9759    -1.0937 C.ar    
  28 H28            1.2619    -1.7476    -0.0190 H       
  29 H29            3.1898     2.0710    -0.0170 H       
  30 H30            3.9451    -0.6831    -0.9222 H       
  31 H31           -2.7431    -1.8862    -0.4948 H       
  32 H32           -1.0515    -2.4399    -0.5145 H       
  33 H33           -0.9597    -2.2473     1.9560 H       
  34 H34           -2.6512    -1.6935     1.9757 H       
  35 H35           -2.2627    -3.3488     1.4491 H       
  36 H36           -3.8968     2.5077     0.0687 H       
  37 H37           -4.7355     4.8211     0.0937 H       
  38 H38           -0.7189     6.2794     0.0476 H       
  39 H39            0.1216     3.9665     0.0333 H       
  40 H40           -1.6325     7.9262     0.9600 H       
  41 H41           -1.6562     7.9362    -0.8198 H       
  42 H42           -3.0048     9.4753     2.2296 H       
  43 H43           -4.1412    11.6596     2.2570 H       
  44 H44           -4.7373    12.7640     0.1384 H       
  45 H45           -4.1962    11.6845    -2.0075 H       
  46 H46           -3.0522     9.5041    -2.0350 H       
@<TRIPOS>BOND
   1    1    2 ar
   2    1    6 ar
   3    1    8 1
   4    2    3 ar
   5    2    9 1
   6    3    4 ar
   7    3   28 1
   8    4    5 ar
   9    4   11 1
  10    5    6 ar
  11    5   29 1
  12    7    8 am
  13    7    9 am
  14    7   10 2
  15    8   14 1
  16    9   12 1
  17   11   30 1
  18   12   13 1
  19   12   31 1
  20   12   32 1
  21   13   33 1
  22   13   34 1
  23   13   35 1
  24   14   15 ar
  25   14   19 ar
  26   15   16 ar
  27   15   36 1
  28   16   17 ar
  29   16   37 1
  30   17   18 ar
  31   17   20 1
  32   18   19 ar
  33   18   38 1
  34   19   39 1
  35   20   21 1
  36   21   22 1
  37   21   40 1
  38   21   41 1
  39   22   23 ar
  40   22   27 ar
  41   23   24 ar
  42   23   42 1
  43   24   25 ar
  44   24   43 1
  45   25   26 ar
  46   25   44 1
  47   26   27 ar
  48   26   45 1
  49   27   46 1

#	End of record

