#	Name: ASD01028109
#	Creating user name:	WinNT
#	Creation time:	15. 06. 2019 18:56

#	Modifying user name:	WinNT
#	Modification time:	15. 06. 2019 18:56

#	Program:	/corina/corina34_cracker 3.40 0067  02.08.2006

@<TRIPOS>MOLECULE
ASD01028109
 101  106    0    0    0
SMALL
NO_CHARGES


@<TRIPOS>ATOM
   1 C1            -0.0186     1.5214     0.0104 C.3     
   2 C2             0.0021    -0.0041     0.0020 C.3     
   3 C3            -0.9800    -0.5391     1.0472 C.3     
   4 C4             2.0366     2.0312     1.3309 C.3     
   5 N5             1.3780     2.0306    -0.0002 N.am    
   6 N6             4.1197     1.3873     2.5173 N.3     
   7 N7             2.5097    -2.1026     4.1259 N.pl3   
   8 C8             3.4040    -1.4124     4.9219 C.ar    
   9 C9             3.9155    -0.2262     4.3907 C.ar    
  10 C10            3.4766     0.1313     2.9981 C.3     
  11 C11            3.8121    -1.8487     6.1760 C.ar    
  12 C12            4.6997    -1.0750     6.9180 C.ar    
  13 C13            5.1677     0.1250     6.3960 C.ar    
  14 C14            4.7689     0.5456     5.1405 C.ar    
  15 O15           -1.2101    -1.9329     0.8335 O.3     
  16 C16           -0.8738    -2.7932     1.8280 C.ar    
  17 C17            0.2703    -2.5702     2.5460 C.ar    
  18 C18            0.6194    -3.4533     3.5738 C.ar    
  19 C19            1.7734    -3.2181     4.3812 C.ar    
  20 N20            2.0633    -4.1068     5.3147 N.ar    
  21 O21            3.4991    -2.9701     6.8848 O.3     
  22 C22            4.2266    -2.9127     8.1165 C.3     
  23 O23            4.9651    -1.6890     8.1053 O.3     
  24 C24           -1.6904    -3.8951     2.1126 C.ar    
  25 C25           -1.3474    -4.7913     3.1054 C.ar    
  26 C26           -0.1739    -4.5926     3.8441 C.ar    
  27 N27            0.2330    -5.4420     4.8008 N.ar    
  28 C28            1.3152    -5.1872     5.4969 C.ar    
  29 O29           -2.8360    -4.0798     1.4061 O.3     
  30 C30           -3.6279    -5.2211     1.7411 C.3     
  31 C31           -4.8684    -5.2616     0.8464 C.3     
  32 C32           -5.7163    -6.4836     1.2052 C.3     
  33 C33            5.5371     0.9941     2.1840 C.3     
  34 N34           -6.9073    -6.5224     0.3461 N.3     
  35 C35           -7.6211    -7.7972     0.4935 C.3     
  36 C36           -8.7679    -7.8612    -0.5179 C.3     
  37 C37           -9.7226    -6.6891    -0.2744 C.3     
  38 C38           -8.9442    -5.3753    -0.3859 C.3     
  39 C39           -7.7923    -5.3834     0.6216 C.3     
  40 S40          -11.0456    -6.7171    -1.5152 S.o2    
  41 O41          -10.4603    -6.5913    -2.8039 O.2     
  42 O42          -11.8968    -7.8223    -1.2446 O.2     
  43 C43          -11.9459    -5.1882    -1.1376 C.3     
  44 C44            3.5011     1.6507     1.1684 C.3     
  45 C45            1.9764     2.4570    -1.1311 C.2     
  46 O46            1.3088     2.4235    -2.2998 O.3     
  47 O47            3.1181     2.8713    -1.0953 O.2     
  48 C48            2.0152     2.8980    -3.4763 C.3     
  49 C49            3.2694     2.0493    -3.6949 C.3     
  50 C50            1.1029     2.7842    -4.6993 C.3     
  51 C51            2.4176     4.3602    -3.2745 C.3     
  52 H52           -0.5345     1.8842    -0.8801 H       
  53 H53           -0.5258     1.8775     0.9054 H       
  54 H54           -0.2998    -0.3564    -0.9858 H       
  55 H55            1.0012    -0.3670     0.2363 H       
  56 H56           -0.5754    -0.3747     2.0435 H       
  57 H57           -1.9241     0.0005     0.9487 H       
  58 H58            1.9637     3.0344     1.7567 H       
  59 H59            1.5307     1.3252     1.9889 H       
  60 H60            2.4056    -1.7460     3.2249 H       
  61 H61            2.3996     0.2737     2.9852 H       
  62 H62            3.7589    -0.6658     2.3123 H       
  63 H63            5.8472     0.7377     6.9735 H       
  64 H64            5.1227     1.4960     4.7603 H       
  65 H65            0.8925    -1.7166     2.3167 H       
  66 H66            3.5333    -2.9208     8.9564 H       
  67 H67            4.9046    -3.7623     8.1816 H       
  68 H68           -1.9839    -5.6379     3.3184 H       
  69 H69            1.6233    -5.8975     6.2499 H       
  70 H70           -3.0414    -6.1274     1.5902 H       
  71 H71           -3.9348    -5.1566     2.7850 H       
  72 H72           -5.4550    -4.3553     0.9973 H       
  73 H73           -4.5615    -5.3261    -0.1975 H       
  74 H74           -5.1298    -7.3898     1.0543 H       
  75 H75           -6.0232    -6.4190     2.2491 H       
  76 H76            6.0265     1.8125     1.6558 H       
  77 H77            6.0804     0.7791     3.1041 H       
  78 H78            5.5287     0.1067     1.5511 H       
  79 H79           -6.9319    -8.6223     0.3137 H       
  80 H80           -8.0232    -7.8737     1.5037 H       
  81 H81           -8.3654    -7.7987    -1.5289 H       
  82 H82           -9.3071    -8.8008    -0.3977 H       
  83 H83          -10.1552    -6.7727     0.7226 H       
  84 H84           -8.5444    -5.2737    -1.3948 H       
  85 H85           -9.6094    -4.5389    -0.1714 H       
  86 H86           -8.1936    -5.4712     1.6313 H       
  87 H87           -7.2274    -4.4553     0.5349 H       
  88 H88          -11.2755    -4.3355    -1.2462 H       
  89 H89          -12.7845    -5.0810    -1.8255 H       
  90 H90          -12.3185    -5.2293    -0.1140 H       
  91 H91            3.5921     0.7419     0.5852 H       
  92 H92            4.0526     2.4639     0.7047 H       
  93 H93            2.9827     1.0076    -3.8387 H       
  94 H94            3.7996     2.4055    -4.5781 H       
  95 H95            3.9193     2.1304    -2.8236 H       
  96 H96            0.2094     3.3888    -4.5436 H       
  97 H97            1.6332     3.1404    -5.5825 H       
  98 H98            0.8162     1.7425    -4.8432 H       
  99 H99            3.0675     4.4412    -2.4032 H       
 100 H100           2.9479     4.7164    -4.1577 H       
 101 H101           1.5241     4.9648    -3.1187 H       
@<TRIPOS>BOND
   1    1    2 1
   2    1    5 1
   3    1   52 1
   4    1   53 1
   5    2    3 1
   6    2   54 1
   7    2   55 1
   8    3   15 1
   9    3   56 1
  10    3   57 1
  11    4    5 1
  12    4   44 1
  13    4   58 1
  14    4   59 1
  15    5   45 am
  16    6   33 1
  17    6   44 1
  18    6   10 1
  19    7    8 1
  20    7   19 1
  21    7   60 1
  22    8    9 ar
  23    8   11 ar
  24    9   10 1
  25    9   14 ar
  26   10   61 1
  27   10   62 1
  28   11   12 ar
  29   11   21 1
  30   12   13 ar
  31   12   23 1
  32   13   14 ar
  33   13   63 1
  34   14   64 1
  35   15   16 1
  36   16   17 ar
  37   16   24 ar
  38   17   18 ar
  39   17   65 1
  40   18   19 ar
  41   18   26 ar
  42   19   20 ar
  43   20   28 ar
  44   21   22 1
  45   22   23 1
  46   22   66 1
  47   22   67 1
  48   24   25 ar
  49   24   29 1
  50   25   26 ar
  51   25   68 1
  52   26   27 ar
  53   27   28 ar
  54   28   69 1
  55   29   30 1
  56   30   31 1
  57   30   70 1
  58   30   71 1
  59   31   32 1
  60   31   72 1
  61   31   73 1
  62   32   34 1
  63   32   74 1
  64   32   75 1
  65   33   76 1
  66   33   77 1
  67   33   78 1
  68   34   35 1
  69   34   39 1
  70   35   36 1
  71   35   79 1
  72   35   80 1
  73   36   37 1
  74   36   81 1
  75   36   82 1
  76   37   38 1
  77   37   40 1
  78   37   83 1
  79   38   39 1
  80   38   84 1
  81   38   85 1
  82   39   86 1
  83   39   87 1
  84   40   41 2
  85   40   42 2
  86   40   43 1
  87   43   88 1
  88   43   89 1
  89   43   90 1
  90   44   91 1
  91   44   92 1
  92   45   46 1
  93   45   47 2
  94   46   48 1
  95   48   49 1
  96   48   50 1
  97   48   51 1
  98   49   93 1
  99   49   94 1
 100   49   95 1
 101   50   96 1
 102   50   97 1
 103   50   98 1
 104   51   99 1
 105   51  100 1
 106   51  101 1

#	End of record

