#	Name: ASD01812730
#	Creating user name:	WinNT
#	Creation time:	15. 06. 2019 19:29

#	Modifying user name:	WinNT
#	Modification time:	15. 06. 2019 19:29

#	Program:	/corina/corina34_cracker 3.40 0067  02.08.2006

@<TRIPOS>MOLECULE
ASD01812730
  52   56    0    0    0
SMALL
NO_CHARGES


@<TRIPOS>ATOM
   1 N1            -0.0158     1.3147     0.0093 N.ar    
   2 C2             0.0021    -0.0041     0.0020 C.ar    
   3 C3             1.1989    -0.7033    -0.0127 C.ar    
   4 C4             2.3829    -0.0013    -0.0202 C.ar    
   5 C5             2.3448     1.3978    -0.0128 C.ar    
   6 C6             1.0955     2.0332     0.0025 C.ar    
   7 C7             3.8373    -0.3889    -0.0363 C.3     
   8 N8             4.5955     0.8684    -0.0373 N.am    
   9 C9             3.7280     1.8961    -0.0237 C.2     
  10 C10            6.0558     0.9844    -0.0504 C.3     
  11 C11            6.5432     1.0311    -1.4757 C.ar    
  12 C12            6.6712     2.2480    -2.1207 C.ar    
  13 C13            7.1171     2.2964    -3.4260 C.ar    
  14 C14            7.4386     1.1168    -4.0938 C.ar    
  15 C15            7.3079    -0.1061    -3.4394 C.ar    
  16 C16            6.8664    -0.1427    -2.1322 C.ar    
  17 O17            1.0255     3.3856     0.0100 O.3     
  18 O18            4.0429     3.0706    -0.0212 O.2     
  19 C19           -0.2795     3.9677     0.0251 C.3     
  20 C20           -0.1576     5.4928     0.0317 C.3     
  21 C21           -1.5548     6.1160     0.0479 C.3     
  22 C22            8.2697     0.1001    -6.2791 C.2     
  23 C23            7.9183     1.1627    -5.4979 C.2     
  24 N24            8.0932     2.2598    -6.2562 N.2     
  25 N25            8.5195     1.8988    -7.4147 N.2     
  26 N26            8.6390     0.6191    -7.4718 N.pl3   
  27 C27            9.0975    -0.1467    -8.6335 C.3     
  28 C28           -1.6482     7.6379     0.1747 C.3     
  29 C29           -1.9657     6.9606    -1.1599 C.3     
  30 H30           -0.9309    -0.5480     0.0080 H       
  31 H31            1.2023    -1.7833    -0.0178 H       
  32 H32            4.0797    -0.9721     0.8522 H       
  33 H33            4.0624    -0.9631    -0.9351 H       
  34 H34            6.3524     1.8979     0.4651 H       
  35 H35            6.4932     0.1235     0.4552 H       
  36 H36            6.4214     3.1618    -1.6021 H       
  37 H37            7.2164     3.2470    -3.9288 H       
  38 H38            7.5554    -1.0235    -3.9527 H       
  39 H39            6.7692    -1.0898    -1.6224 H       
  40 H40           -0.8289     3.6509    -0.8614 H       
  41 H41           -0.8123     3.6419     0.9185 H       
  42 H42            0.3918     5.8096     0.9182 H       
  43 H43            0.3752     5.8186    -0.8617 H       
  44 H44           -2.3289     5.5221     0.5339 H       
  45 H45            8.2593    -0.9431    -5.9998 H       
  46 H46            8.2419    -0.4120    -9.2545 H       
  47 H47            9.7949     0.4569    -9.2144 H       
  48 H48            9.5968    -1.0549    -8.2959 H       
  49 H49           -2.4838     8.0452     0.7438 H       
  50 H50           -0.7141     8.1951     0.2466 H       
  51 H51           -1.2406     7.0722    -1.9661 H       
  52 H52           -3.0103     6.9223    -1.4689 H       
@<TRIPOS>BOND
   1    1    2 ar
   2    1    6 ar
   3    2    3 ar
   4    2   30 1
   5    3    4 ar
   6    3   31 1
   7    4    7 1
   8    4    5 ar
   9    5    6 ar
  10    5    9 1
  11    6   17 1
  12    7    8 1
  13    7   32 1
  14    7   33 1
  15    8    9 am
  16    8   10 1
  17    9   18 2
  18   10   11 1
  19   10   34 1
  20   10   35 1
  21   11   12 ar
  22   11   16 ar
  23   12   13 ar
  24   12   36 1
  25   13   14 ar
  26   13   37 1
  27   14   15 ar
  28   14   23 1
  29   15   16 ar
  30   15   38 1
  31   16   39 1
  32   17   19 1
  33   19   20 1
  34   19   40 1
  35   19   41 1
  36   20   21 1
  37   20   42 1
  38   20   43 1
  39   21   28 1
  40   21   29 1
  41   21   44 1
  42   22   23 2
  43   22   26 1
  44   22   45 1
  45   23   24 1
  46   24   25 2
  47   25   26 1
  48   26   27 1
  49   27   46 1
  50   27   47 1
  51   27   48 1
  52   28   29 1
  53   28   49 1
  54   28   50 1
  55   29   51 1
  56   29   52 1

#	End of record

