#	Name: ASD08178095
#	Creating user name:	WinNT
#	Creation time:	15. 06. 2019 21:18

#	Modifying user name:	WinNT
#	Modification time:	15. 06. 2019 21:18

#	Program:	/corina/corina34_cracker 3.40 0067  02.08.2006

@<TRIPOS>MOLECULE
ASD08178095
  61   64    0    0    0
SMALL
NO_CHARGES


@<TRIPOS>ATOM
   1 N1            -0.0150     1.2583     0.0090 N.2     
   2 N2             0.0021    -0.0041     0.0020 N.2     
   3 C3             1.1271     1.8769     0.0014 C.2     
   4 S4             2.3826     0.7116    -0.0169 S.3     
   5 C5             1.1681    -0.5677    -0.0121 C.2     
   6 N6             1.3017     3.2566     0.0067 N.am    
   7 C7             0.2284     4.0717     0.0214 C.2     
   8 O8            -0.8897     3.6019     0.0299 O.2     
   9 C9             1.4387    -2.0502    -0.0227 C.3     
  10 C10            1.5165    -2.5442    -1.4687 C.3     
  11 C11            2.1699    -6.2152    -3.4347 C.3     
  12 C12            2.2167    -6.5408    -4.9053 C.2     
  13 N13            3.2694    -6.5184    -5.6596 N.2     
  14 S14            0.8491    -7.0282    -5.9071 S.3     
  15 C15            1.9000    -7.1354    -7.2557 C.2     
  16 N16            3.1017    -6.8250    -6.8728 N.2     
  17 N17            1.5289    -7.4992    -8.5457 N.am    
  18 C18            2.4537    -7.5464    -9.5250 C.2     
  19 O19            3.6096    -7.2716    -9.2812 O.2     
  20 C20            2.0516    -7.9407   -10.9228 C.3     
  21 C21            0.4176     5.5667     0.0272 C.3     
  22 C22            1.0890     5.9832     1.3105 C.ar    
  23 C23            1.5836    -9.3731   -10.9257 C.ar    
  24 C24            1.8986    -4.7206    -3.2516 C.3     
  25 C25            0.2310    -9.6584   -10.9158 C.ar    
  26 C26           -0.1983   -10.9724   -10.9185 C.ar    
  27 C27            0.7250   -12.0011   -10.9315 C.ar    
  28 C28            2.0776   -11.7159   -10.9422 C.ar    
  29 C29            2.5068   -10.4019   -10.9440 C.ar    
  30 C30            2.4470     6.2410     1.3280 C.ar    
  31 C31            3.0628     6.6229     2.5052 C.ar    
  32 C32            2.3206     6.7475     3.6647 C.ar    
  33 C33            0.9625     6.4905     3.6470 C.ar    
  34 C34            0.3458     6.1128     2.4688 C.ar    
  35 O35           -0.8552     6.2084    -0.0745 O.3     
  36 O36            3.1733    -7.8042   -11.7975 O.3     
  37 S37            1.8422    -4.3286    -1.4814 S.3     
  38 H38            2.1959     3.6323    -0.0001 H       
  39 H39            2.3843    -2.2506     0.4811 H       
  40 H40            0.6334    -2.5702     0.4961 H       
  41 H41            0.5709    -2.3438    -1.9724 H       
  42 H42            2.3218    -2.0242    -1.9874 H       
  43 H43            1.3741    -6.7896    -2.9605 H       
  44 H44            3.1250    -6.4700    -2.9755 H       
  45 H45            0.6045    -7.7190    -8.7407 H       
  46 H46            1.2436    -7.2938   -11.2645 H       
  47 H47            1.0397     5.8575    -0.8193 H       
  48 H48            2.6943    -4.1461    -3.7258 H       
  49 H49            0.9434    -4.4658    -3.7108 H       
  50 H50           -0.4903    -8.8547   -10.9057 H       
  51 H51           -1.2550   -11.1953   -10.9101 H       
  52 H52            0.3896   -13.0277   -10.9328 H       
  53 H53            2.7989   -12.5196   -10.9520 H       
  54 H54            3.5635   -10.1790   -10.9524 H       
  55 H55            3.0268     6.1437     0.4221 H       
  56 H56            4.1239     6.8237     2.5191 H       
  57 H57            2.8019     7.0452     4.5846 H       
  58 H58            0.3826     6.5874     4.5530 H       
  59 H59           -0.7153     5.9120     2.4550 H       
  60 H60           -1.4621     5.9948     0.6474 H       
  61 H61            3.9315    -8.3526   -11.5533 H       
@<TRIPOS>BOND
   1    1    2 1
   2    1    3 2
   3    2    5 2
   4    3    4 1
   5    3    6 1
   6    4    5 1
   7    5    9 1
   8    6    7 am
   9    6   38 1
  10    7    8 2
  11    7   21 1
  12    9   10 1
  13    9   39 1
  14    9   40 1
  15   10   37 1
  16   10   41 1
  17   10   42 1
  18   11   12 1
  19   11   24 1
  20   11   43 1
  21   11   44 1
  22   12   13 2
  23   12   14 1
  24   13   16 1
  25   14   15 1
  26   15   16 2
  27   15   17 1
  28   17   18 am
  29   17   45 1
  30   18   19 2
  31   18   20 1
  32   20   36 1
  33   20   23 1
  34   20   46 1
  35   21   22 1
  36   21   35 1
  37   21   47 1
  38   22   30 ar
  39   22   34 ar
  40   23   25 ar
  41   23   29 ar
  42   24   37 1
  43   24   48 1
  44   24   49 1
  45   25   26 ar
  46   25   50 1
  47   26   27 ar
  48   26   51 1
  49   27   28 ar
  50   27   52 1
  51   28   29 ar
  52   28   53 1
  53   29   54 1
  54   30   31 ar
  55   30   55 1
  56   31   32 ar
  57   31   56 1
  58   32   33 ar
  59   32   57 1
  60   33   34 ar
  61   33   58 1
  62   34   59 1
  63   35   60 1
  64   36   61 1

#	End of record

