#	Name: ASD00310489
#	Creating user name:	WinNT
#	Creation time:	15. 06. 2019 18:34

#	Modifying user name:	WinNT
#	Modification time:	15. 06. 2019 18:34

#	Program:	/corina/corina34_cracker 3.40 0067  02.08.2006

@<TRIPOS>MOLECULE
ASD00310489
  44   47    0    0    0
SMALL
NO_CHARGES


@<TRIPOS>ATOM
   1 N1             0.3995    -0.0913    -0.8756 N.pl3   
   2 C2             0.5798    -1.3856    -0.5209 C.2     
   3 C3             1.8956    -1.6073    -0.2354 C.2     
   4 C4             2.5886    -0.3202    -0.4356 C.ar    
   5 C5             3.9105     0.0929    -0.3082 C.ar    
   6 C6             4.2457     1.4132    -0.5800 C.ar    
   7 C7             3.2564     2.3187    -0.9791 C.ar    
   8 C8             1.9477     1.9120    -1.1052 C.ar    
   9 C9             1.5981     0.5913    -0.8364 C.ar    
  10 C10            2.5016    -2.8750     0.1871 C.2     
  11 O11            3.6953    -2.9335     0.4110 O.2     
  12 O12            1.7346    -3.9752     0.3271 O.3     
  13 Cl13           3.6829     3.9672    -1.3170 Cl      
  14 C14            5.6529     1.8636    -0.4465 C.ar    
  15 C15            6.2614     2.5695    -1.4829 C.ar    
  16 C16            7.5698     2.9869    -1.3559 C.ar    
  17 C17            8.2807     2.7041    -0.1976 C.ar    
  18 C18            7.6774     2.0012     0.8363 C.ar    
  19 C19            6.3673     1.5866     0.7177 C.ar    
  20 O20            9.5700     3.1158    -0.0758 O.3     
  21 N21           11.8928     4.5124    -2.0031 N.am    
  22 C22           11.2807     4.8131    -0.7001 C.3     
  23 C23           10.0886     3.9420    -1.1201 C.3     
  24 C24           11.1342     3.2525    -2.0075 C.3     
  25 C25           12.7620     5.1247    -2.8314 C.2     
  26 O26           13.2258     6.2048    -2.5329 O.2     
  27 C27           13.1575     4.4673    -4.1284 C.3     
  28 H28           -0.4519     0.3001    -1.1261 H       
  29 H29           -0.2006    -2.1306    -0.4714 H       
  30 H30            4.6717    -0.6084     0.0004 H       
  31 H31            1.1909     2.6182    -1.4132 H       
  32 H32            2.1787    -4.7871     0.6076 H       
  33 H33            5.7090     2.7892    -2.3846 H       
  34 H34            8.0418     3.5339    -2.1586 H       
  35 H35            8.2331     1.7823     1.7361 H       
  36 H36            5.8971     1.0436     1.5242 H       
  37 H37           11.8376     4.4084     0.1449 H       
  38 H38           11.0258     5.8652    -0.5727 H       
  39 H39            9.3150     4.4781    -1.6697 H       
  40 H40           10.7549     2.9777    -2.9917 H       
  41 H41           11.6522     2.4322    -1.5106 H       
  42 H42           12.6433     3.5108    -4.2225 H       
  43 H43           12.8803     5.1124    -4.9621 H       
  44 H44           14.2350     4.3031    -4.1388 H       
@<TRIPOS>BOND
   1    1    2 1
   2    1    9 1
   3    1   28 1
   4    2    3 2
   5    2   29 1
   6    3    4 1
   7    3   10 1
   8    4    5 ar
   9    4    9 ar
  10    5    6 ar
  11    5   30 1
  12    6    7 ar
  13    6   14 1
  14    7    8 ar
  15    7   13 1
  16    8    9 ar
  17    8   31 1
  18   10   11 2
  19   10   12 1
  20   12   32 1
  21   14   15 ar
  22   14   19 ar
  23   15   16 ar
  24   15   33 1
  25   16   17 ar
  26   16   34 1
  27   17   18 ar
  28   17   20 1
  29   18   19 ar
  30   18   35 1
  31   19   36 1
  32   20   23 1
  33   21   22 1
  34   21   24 1
  35   21   25 am
  36   22   23 1
  37   22   37 1
  38   22   38 1
  39   23   24 1
  40   23   39 1
  41   24   40 1
  42   24   41 1
  43   25   26 2
  44   25   27 1
  45   27   42 1
  46   27   43 1
  47   27   44 1

#	End of record

