#	Name: ASD02198507
#	Creating user name:	WinNT
#	Creation time:	15. 06. 2019 20:19

#	Modifying user name:	WinNT
#	Modification time:	15. 06. 2019 20:19

#	Program:	/corina/corina34_cracker 3.40 0067  02.08.2006

@<TRIPOS>MOLECULE
ASD02198507
  53   57    0    0    0
SMALL
NO_CHARGES


@<TRIPOS>ATOM
   1 C1             0.0932     1.0132    -0.1343 C.2     
   2 C2             0.3501    -0.3164    -0.2184 C.2     
   3 N3             1.6209    -0.7781    -0.2194 N.pl3   
   4 N4             2.6475    -0.0143    -0.1436 N.2     
   5 C5             2.5402     1.2944    -0.0578 C.2     
   6 C6             1.1969     1.8954    -0.0487 C.2     
   7 C7             1.8258    -2.1594    -0.3073 C.ar    
   8 C8             3.3133    -4.0245    -0.5538 C.ar    
   9 C9             2.2312    -4.8934    -0.4812 C.ar    
  10 C10            0.9452    -4.3901    -0.3271 C.ar    
  11 C11            0.7432    -3.0280    -0.2405 C.ar    
  12 C12            3.7452     2.1441     0.0285 C.2     
  13 N13            4.8808     1.8729     0.7389 N.pl3   
  14 N14            5.7697     2.9376     0.5450 N.2     
  15 C15            5.2072     3.8172    -0.2448 C.2     
  16 C16            3.9385     3.3564    -0.5968 C.2     
  17 C17            5.1138     0.7344     1.5208 C.ar    
  18 C18            4.1127     0.2411     2.3473 C.ar    
  19 O19            1.0408     3.1050     0.0289 O.2     
  20 C20            6.3443     0.0931     1.4668 C.ar    
  21 C21            6.5707    -1.0296     2.2387 C.ar    
  22 C22            5.5735    -1.5155     3.0643 C.ar    
  23 C23            4.3454    -0.8820     3.1167 C.ar    
  24 C24            3.1112    -2.6624    -0.4671 C.ar    
  25 N25            2.4358    -6.2725    -0.5689 N.3     
  26 C26            1.1643    -7.0005    -0.4696 C.3     
  27 C27            1.4080    -8.4913    -0.7146 C.3     
  28 C28            2.4019    -9.0185     0.3241 C.3     
  29 C29            3.7001    -8.2117     0.2322 C.3     
  30 C30            3.3899    -6.7289     0.4497 C.3     
  31 H31           -0.9202     1.3865    -0.1372 H       
  32 H32           -0.4709    -1.0149    -0.2849 H       
  33 H33            4.3129    -4.4156    -0.6732 H       
  34 H34            0.1042    -5.0654    -0.2707 H       
  35 H35           -0.2563    -2.6369    -0.1203 H       
  36 H36            5.6533     4.7444    -0.5729 H       
  37 H37            3.2324     3.8620    -1.2387 H       
  38 H38            3.1534     0.7355     2.3886 H       
  39 H39            7.1233     0.4717     0.8217 H       
  40 H40            7.5276    -1.5288     2.1971 H       
  41 H41            5.7528    -2.3940     3.6663 H       
  42 H42            3.5685    -1.2639     3.7624 H       
  43 H43            3.9522    -1.9870    -0.5239 H       
  44 H44            0.7423    -6.8602     0.5255 H       
  45 H45            0.4680    -6.6188    -1.2163 H       
  46 H46            0.4666    -9.0335    -0.6254 H       
  47 H47            1.8172    -8.6336    -1.7148 H       
  48 H48            1.9767    -8.9119     1.3220 H       
  49 H49            2.6117   -10.0697     0.1268 H       
  50 H50            4.3963    -8.5540     0.9979 H       
  51 H51            4.1453    -8.3496    -0.7531 H       
  52 H52            4.3101    -6.1500     0.3708 H       
  53 H53            2.9575    -6.5899     1.4406 H       
@<TRIPOS>BOND
   1    1    2 2
   2    1    6 1
   3    1   31 1
   4    2    3 1
   5    2   32 1
   6    3    4 1
   7    3    7 1
   8    4    5 2
   9    5    6 1
  10    5   12 1
  11    6   19 2
  12    7   24 ar
  13    7   11 ar
  14    8    9 ar
  15    8   24 ar
  16    8   33 1
  17    9   10 ar
  18    9   25 1
  19   10   11 ar
  20   10   34 1
  21   11   35 1
  22   12   13 1
  23   12   16 2
  24   13   14 1
  25   13   17 1
  26   14   15 2
  27   15   16 1
  28   15   36 1
  29   16   37 1
  30   17   20 ar
  31   17   18 ar
  32   18   23 ar
  33   18   38 1
  34   20   21 ar
  35   20   39 1
  36   21   22 ar
  37   21   40 1
  38   22   23 ar
  39   22   41 1
  40   23   42 1
  41   24   43 1
  42   25   26 1
  43   25   30 1
  44   26   27 1
  45   26   44 1
  46   26   45 1
  47   27   28 1
  48   27   46 1
  49   27   47 1
  50   28   29 1
  51   28   48 1
  52   28   49 1
  53   29   30 1
  54   29   50 1
  55   29   51 1
  56   30   52 1
  57   30   53 1

#	End of record

