#	Name: ASD01410063
#	Creating user name:	WinNT
#	Creation time:	15. 06. 2019 19:16

#	Modifying user name:	WinNT
#	Modification time:	15. 06. 2019 19:16

#	Program:	/corina/corina34_cracker 3.40 0067  02.08.2006

@<TRIPOS>MOLECULE
ASD01410063
  44   47    0    0    0
SMALL
NO_CHARGES


@<TRIPOS>ATOM
   1 C1           -10.0354    -3.3948     0.2687 C.ar    
   2 C2            -8.9701    -4.2839     0.1969 C.ar    
   3 C3            -7.6743    -3.8048     0.1237 C.ar    
   4 C4            -7.4461    -2.4227     0.1225 C.ar    
   5 C5            -8.5231    -1.5239     0.1950 C.ar    
   6 C6            -9.8158    -2.0253     0.2626 C.ar    
   7 C7            -6.2247    -1.6046     0.0572 C.2     
   8 C8            -6.7071    -0.2165     0.0988 C.2     
   9 O9            -8.0581    -0.2554     0.1790 O.3     
  10 O10           -5.0707    -1.9915    -0.0145 O.2     
  11 C11           -5.9375     0.9014     0.0640 C.2     
  12 C12           -6.5675     2.2231    -0.0335 C.ar    
  13 O13          -11.3044    -3.8713     0.3399 O.3     
  14 O14           -6.6304    -4.6686     0.0539 O.3     
  15 C15           -7.9506     2.3295    -0.2313 C.ar    
  16 C16           -8.5327     3.5620    -0.3210 C.ar    
  17 C17           -7.7539     4.7117    -0.2162 C.ar    
  18 C18           -6.3788     4.6109    -0.0200 C.ar    
  19 C19           -5.7887     3.3827     0.0767 C.ar    
  20 N20           -8.3513     5.9649    -0.3081 N.3     
  21 C21           -7.3543     7.0344    -0.1718 C.3     
  22 C22           -9.4248     6.1101     0.6832 C.3     
  23 C23          -10.1526     7.4374     0.4582 C.3     
  24 C24           -9.1533     8.5902     0.5880 C.3     
  25 C25           -8.0203     8.3893    -0.4223 C.3     
  26 H26           -9.1534    -5.3483     0.1987 H       
  27 H27          -10.6537    -1.3462     0.3184 H       
  28 H28           -4.8616     0.8180     0.1080 H       
  29 H29          -11.6196    -4.0175     1.2424 H       
  30 H30           -6.3805    -4.9114    -0.8481 H       
  31 H31           -8.5554     1.4384    -0.3131 H       
  32 H32           -9.5986     3.6450    -0.4738 H       
  33 H33           -5.7788     5.5052     0.0604 H       
  34 H34           -4.7223     3.3055     0.2292 H       
  35 H35           -6.9369     7.0155     0.8349 H       
  36 H36           -6.5564     6.8820    -0.8986 H       
  37 H37          -10.1308     5.2863     0.5774 H       
  38 H38           -8.9976     6.0956     1.6859 H       
  39 H39          -10.5918     7.4471    -0.5393 H       
  40 H40          -10.9393     7.5521     1.2040 H       
  41 H41           -9.6584     9.5347     0.3857 H       
  42 H42           -8.7427     8.6045     1.5976 H       
  43 H43           -7.2835     9.1840    -0.3056 H       
  44 H44           -8.4260     8.4139    -1.4337 H       
@<TRIPOS>BOND
   1    1    2 ar
   2    1   13 1
   3    1    6 ar
   4    2    3 ar
   5    2   26 1
   6    3    4 ar
   7    3   14 1
   8    4    5 ar
   9    4    7 1
  10    5    6 ar
  11    5    9 1
  12    6   27 1
  13    7    8 1
  14    7   10 2
  15    8    9 1
  16    8   11 2
  17   11   12 1
  18   11   28 1
  19   12   15 ar
  20   12   19 ar
  21   13   29 1
  22   14   30 1
  23   15   16 ar
  24   15   31 1
  25   16   17 ar
  26   16   32 1
  27   17   18 ar
  28   17   20 1
  29   18   19 ar
  30   18   33 1
  31   19   34 1
  32   20   21 1
  33   20   22 1
  34   21   25 1
  35   21   35 1
  36   21   36 1
  37   22   23 1
  38   22   37 1
  39   22   38 1
  40   23   24 1
  41   23   39 1
  42   23   40 1
  43   24   25 1
  44   24   41 1
  45   24   42 1
  46   25   43 1
  47   25   44 1

#	End of record

