#	Name: ASD01816619
#	Creating user name:	WinNT
#	Creation time:	15. 06. 2019 19:35

#	Modifying user name:	WinNT
#	Modification time:	15. 06. 2019 19:35

#	Program:	/corina/corina34_cracker 3.40 0067  02.08.2006

@<TRIPOS>MOLECULE
ASD01816619
  62   67    0    0    0
SMALL
NO_CHARGES


@<TRIPOS>ATOM
   1 C1             1.7031     1.1219     0.6839 C.ar    
   2 C2             1.7329    -0.2622     0.6304 C.ar    
   3 C3             2.8850    -0.9270     0.2646 C.ar    
   4 C4             4.0320    -0.2089    -0.0547 C.ar    
   5 C5             3.9985     1.1945     0.0005 C.ar    
   6 C6             2.8306     1.8532     0.3704 C.ar    
   7 N7             5.1915    -0.8699    -0.4216 N.pl3   
   8 C8             6.3282    -0.2302    -0.7404 C.2     
   9 C9             6.4151     1.1397    -0.7227 C.2     
  10 C10            5.2266     1.9368    -0.3423 C.2     
  11 C11            7.4581     2.1215    -1.0030 C.2     
  12 N12            6.8988     3.3336    -0.7978 N.am    
  13 N13            5.5657     3.1923    -0.4040 N.2     
  14 O14            8.6048     1.8932    -1.3521 O.2     
  15 C15            7.5605     4.5568    -0.9563 C.ar    
  16 C16            7.5959     5.4697     0.0902 C.ar    
  17 C17            8.1879     4.8580    -2.1581 C.ar    
  18 C18            8.8404     6.0657    -2.3110 C.ar    
  19 C19            8.8697     6.9742    -1.2691 C.ar    
  20 C20            8.2500     6.6753    -0.0693 C.ar    
  21 C21            5.1780    -2.3343    -0.4636 C.3     
  22 C22            4.7671    -2.7936    -1.8389 C.ar    
  23 C23            5.7275    -3.0046    -2.8112 C.ar    
  24 C24            5.3544    -3.4255    -4.0726 C.ar    
  25 C25            4.0128    -3.6369    -4.3639 C.ar    
  26 C26            3.0507    -3.4240    -3.3848 C.ar    
  27 C27            3.4312    -3.0085    -2.1239 C.ar    
  28 N28            3.6319    -4.0622    -5.6387 N.am    
  29 S29            2.5437    -5.2988    -5.8083 S.o2    
  30 O30            1.4192    -4.9561    -5.0099 O.2     
  31 O31            2.4553    -5.5674    -7.2008 O.2     
  32 C32            3.2605    -6.7292    -5.0702 C.ar    
  33 C33            2.9570    -7.0578    -3.7622 C.ar    
  34 C34            3.5194    -8.1800    -3.1831 C.ar    
  35 C35            4.3849    -8.9739    -3.9122 C.ar    
  36 C36            4.6876    -8.6458    -5.2205 C.ar    
  37 C37            4.1219    -7.5260    -5.8009 C.ar    
  38 C38            6.9210     5.1449     1.3978 C.3     
  39 H39            0.7934     1.6303     0.9675 H       
  40 H40            0.8457    -0.8262     0.8779 H       
  41 H41            2.8961    -2.0063     0.2266 H       
  42 H42            2.8063     2.9321     0.4120 H       
  43 H43            7.1971    -0.8086    -1.0176 H       
  44 H44            8.1659     4.1485    -2.9721 H       
  45 H45            9.3285     6.3006    -3.2454 H       
  46 H46            9.3812     7.9176    -1.3910 H       
  47 H47            8.2744     7.3872     0.7425 H       
  48 H48            6.1744    -2.7135    -0.2365 H       
  49 H49            4.4688    -2.7124     0.2727 H       
  50 H50            6.7704    -2.8397    -2.5842 H       
  51 H51            6.1049    -3.5898    -4.8316 H       
  52 H52            2.0067    -3.5875    -3.6080 H       
  53 H53            2.6837    -2.8431    -1.3620 H       
  54 H54            4.0049    -3.6331    -6.4247 H       
  55 H55            2.2808    -6.4376    -3.1926 H       
  56 H56            3.2828    -8.4363    -2.1610 H       
  57 H57            4.8248    -9.8502    -3.4596 H       
  58 H58            5.3641    -9.2659    -5.7900 H       
  59 H59            4.3555    -7.2718    -6.8243 H       
  60 H60            7.6279     4.6397     2.0560 H       
  61 H61            6.5801     6.0665     1.8696 H       
  62 H62            6.0666     4.4935     1.2137 H       
@<TRIPOS>BOND
   1    1    2 ar
   2    1    6 ar
   3    1   39 1
   4    2    3 ar
   5    2   40 1
   6    3    4 ar
   7    3   41 1
   8    4    5 ar
   9    4    7 1
  10    5    6 ar
  11    5   10 1
  12    6   42 1
  13    7    8 1
  14    7   21 1
  15    8    9 2
  16    8   43 1
  17    9   10 1
  18    9   11 1
  19   10   13 2
  20   11   12 am
  21   11   14 2
  22   12   13 1
  23   12   15 1
  24   15   16 ar
  25   15   17 ar
  26   16   38 1
  27   16   20 ar
  28   17   18 ar
  29   17   44 1
  30   18   19 ar
  31   18   45 1
  32   19   20 ar
  33   19   46 1
  34   20   47 1
  35   21   22 1
  36   21   48 1
  37   21   49 1
  38   22   23 ar
  39   22   27 ar
  40   23   24 ar
  41   23   50 1
  42   24   25 ar
  43   24   51 1
  44   25   26 ar
  45   25   28 1
  46   26   27 ar
  47   26   52 1
  48   27   53 1
  49   28   29 am
  50   28   54 1
  51   29   30 2
  52   29   31 2
  53   29   32 1
  54   32   33 ar
  55   32   37 ar
  56   33   34 ar
  57   33   55 1
  58   34   35 ar
  59   34   56 1
  60   35   36 ar
  61   35   57 1
  62   36   37 ar
  63   36   58 1
  64   37   59 1
  65   38   60 1
  66   38   61 1
  67   38   62 1

#	End of record

