#	Name: ASD08170098
#	Creating user name:	WinNT
#	Creation time:	15. 06. 2019 21:17

#	Modifying user name:	WinNT
#	Modification time:	15. 06. 2019 21:17

#	Program:	/corina/corina34_cracker 3.40 0067  02.08.2006

@<TRIPOS>MOLECULE
ASD08170098
  66   69    0    0    0
SMALL
NO_CHARGES


@<TRIPOS>ATOM
   1 C1            -0.0187     1.5258     0.0104 C.3     
   2 C2             0.0021    -0.0041     0.0020 C.3     
   3 C3             1.4167     2.0553    -0.0004 C.3     
   4 C4             1.3960     3.5852     0.0080 C.3     
   5 C5             2.8098     4.1068    -0.0027 C.2     
   6 C6            -1.4117    -0.5257     0.0127 C.2     
   7 S7             3.7994     4.4593     1.4143 S.3     
   8 C8             5.0770     4.9390     0.3786 C.2     
   9 N9             4.6867     4.8059    -0.8531 N.2     
  10 N10            3.5185     4.3715    -1.0541 N.2     
  11 S11           -2.3742    -0.8935     1.4445 S.3     
  12 N12           -2.1404    -0.7792    -1.0277 N.2     
  13 N13           -3.3061    -1.2119    -0.8091 N.2     
  14 C14           -3.6713    -1.3622     0.4283 C.2     
  15 N15           -4.9107    -1.8251     0.8572 N.am    
  16 C16           -5.8536    -2.1613    -0.0452 C.2     
  17 O17           -5.6213    -2.0602    -1.2312 O.2     
  18 N18            6.3249     5.3958     0.7887 N.am    
  19 C19            7.2495     5.7444    -0.1278 C.2     
  20 C20            8.6017     6.2394     0.3166 C.3     
  21 O21            6.9932     5.6598    -1.3102 O.2     
  22 C22           -7.1965    -2.6628     0.4196 C.3     
  23 C23           -7.9247    -1.5477     1.1726 C.3     
  24 C24           -9.2124    -2.0842     1.7427 C.ar    
  25 C25            9.3446     5.1139     1.0392 C.3     
  26 C26           10.6438     5.6425     1.5904 C.ar    
  27 C27           -9.2304    -2.6358     3.0101 C.ar    
  28 C28           10.6876     6.1764     2.8648 C.ar    
  29 C29          -10.3768    -2.0198     1.0003 C.ar    
  30 C30          -11.5579    -2.5119     1.5232 C.ar    
  31 C31          -11.5747    -3.0690     2.7882 C.ar    
  32 C32          -10.4116    -3.1280     3.5330 C.ar    
  33 C33           11.8793     6.6613     3.3704 C.ar    
  34 C34           13.0272     6.6118     2.6018 C.ar    
  35 C35           12.9836     6.0770     1.3279 C.ar    
  36 C36           11.7928     5.5882     0.8239 C.ar    
  37 O37           -7.9741    -3.0602    -0.7116 O.3     
  38 O38            9.3564     6.6524    -0.8245 O.3     
  39 H39           -0.5459     1.8868    -0.8726 H       
  40 H40           -0.5289     1.8773     0.9072 H       
  41 H41            0.5123    -0.3556    -0.8948 H       
  42 H42            0.5293    -0.3651     0.8851 H       
  43 H43            1.9439     1.6943     0.8826 H       
  44 H44            1.9269     1.7038    -0.8972 H       
  45 H45            0.8688     3.9463    -0.8751 H       
  46 H46            0.8858     3.9367     0.9048 H       
  47 H47           -5.0964    -1.9059     1.8058 H       
  48 H48            6.5298     5.4635     1.7344 H       
  49 H49            8.4749     7.0843     0.9935 H       
  50 H50           -7.0560    -3.5169     1.0821 H       
  51 H51           -7.2927    -1.1834     1.9826 H       
  52 H52           -8.1441    -0.7293     0.4869 H       
  53 H53            8.7290     4.7386     1.8567 H       
  54 H54            9.5498     4.3051     0.3379 H       
  55 H55           -8.3216    -2.6824     3.5917 H       
  56 H56            9.7907     6.2150     3.4652 H       
  57 H57          -10.3636    -1.5845     0.0120 H       
  58 H58          -12.4678    -2.4609     0.9435 H       
  59 H59          -12.4976    -3.4533     3.1969 H       
  60 H60          -10.4247    -3.5632     4.5213 H       
  61 H61           11.9134     7.0791     4.3657 H       
  62 H62           13.9581     6.9913     2.9966 H       
  63 H63           13.8804     6.0387     0.7273 H       
  64 H64           11.7587     5.1704    -0.1714 H       
  65 H65           -8.1389    -2.3485    -1.3452 H       
  66 H66            9.5081     5.9495    -1.4711 H       
@<TRIPOS>BOND
   1    1    2 1
   2    1    3 1
   3    1   39 1
   4    1   40 1
   5    2    6 1
   6    2   41 1
   7    2   42 1
   8    3    4 1
   9    3   43 1
  10    3   44 1
  11    4    5 1
  12    4   45 1
  13    4   46 1
  14    5    7 1
  15    5   10 2
  16    6   11 1
  17    6   12 2
  18    7    8 1
  19    8    9 2
  20    8   18 1
  21    9   10 1
  22   11   14 1
  23   12   13 1
  24   13   14 2
  25   14   15 1
  26   15   16 am
  27   15   47 1
  28   16   17 2
  29   16   22 1
  30   18   19 am
  31   18   48 1
  32   19   20 1
  33   19   21 2
  34   20   25 1
  35   20   38 1
  36   20   49 1
  37   22   23 1
  38   22   37 1
  39   22   50 1
  40   23   24 1
  41   23   51 1
  42   23   52 1
  43   24   27 ar
  44   24   29 ar
  45   25   26 1
  46   25   53 1
  47   25   54 1
  48   26   28 ar
  49   26   36 ar
  50   27   32 ar
  51   27   55 1
  52   28   33 ar
  53   28   56 1
  54   29   30 ar
  55   29   57 1
  56   30   31 ar
  57   30   58 1
  58   31   32 ar
  59   31   59 1
  60   32   60 1
  61   33   34 ar
  62   33   61 1
  63   34   35 ar
  64   34   62 1
  65   35   36 ar
  66   35   63 1
  67   36   64 1
  68   37   65 1
  69   38   66 1

#	End of record

