#	Name: ASD03740011
#	Creating user name:	WinNT
#	Creation time:	15. 06. 2019 20:46

#	Modifying user name:	WinNT
#	Modification time:	15. 06. 2019 20:46

#	Program:	/corina/corina34_cracker 3.40 0067  02.08.2006

@<TRIPOS>MOLECULE
ASD03740011
  34   36    0    0    0
SMALL
NO_CHARGES


@<TRIPOS>ATOM
   1 C1            -0.0167     1.3781     0.0096 C.ar    
   2 C2             0.0021    -0.0041     0.0020 C.ar    
   3 C3            -1.1855    -0.7115     0.0095 C.ar    
   4 C4            -2.3919    -0.0367     0.0251 C.ar    
   5 C5            -2.4106     1.3455     0.0336 C.ar    
   6 C6            -1.2230     2.0529     0.0305 C.ar    
   7 S7             1.4971     2.2798     0.0000 S.o2    
   8 N8             1.9031     2.5392    -1.5844 N.am    
   9 O9             1.2076     3.5559     0.5541 O.2     
  10 O10            2.4865     1.4086     0.5303 O.2     
  11 C11            1.5372     3.6078    -2.3384 C.2     
  12 C12            2.0752     3.4396    -3.5774 C.2     
  13 C13            2.7888     2.2331    -3.5749 C.2     
  14 N14            2.6897     1.6982    -2.3818 N.2     
  15 N15            0.7537     4.6796    -1.9205 N.pl3   
  16 O16            3.4714     1.7096    -4.6279 O.3     
  17 C17            4.0978     0.5319    -4.4272 C.2     
  18 C18            4.8520    -0.0909    -5.5163 C.2     
  19 O19            4.0359    -0.0125    -3.3412 O.2     
  20 S20            5.0362     0.5673    -7.1363 S.3     
  21 C21            5.9927    -0.7610    -7.6178 C.2     
  22 C22            6.1493    -1.6285    -6.6105 C.2     
  23 C23            5.5312    -1.2751    -5.4351 C.2     
  24 H24            0.9446    -0.5313    -0.0101 H       
  25 H25           -1.1709    -1.7913     0.0029 H       
  26 H26           -3.3198    -0.5893     0.0302 H       
  27 H27           -3.3531     1.8728     0.0454 H       
  28 H28           -1.2376     3.1328     0.0372 H       
  29 H29            1.9706     4.1152    -4.4135 H       
  30 H30            0.4150     4.7076    -1.0120 H       
  31 H31            0.5464     5.3986    -2.5378 H       
  32 H32            6.4154    -0.8853    -8.6038 H       
  33 H33            6.7234    -2.5376    -6.7127 H       
  34 H34            5.5711    -1.8766    -4.5390 H       
@<TRIPOS>BOND
   1    1    2 ar
   2    1    7 1
   3    1    6 ar
   4    2    3 ar
   5    2   24 1
   6    3    4 ar
   7    3   25 1
   8    4    5 ar
   9    4   26 1
  10    5    6 ar
  11    5   27 1
  12    6   28 1
  13    7    8 am
  14    7    9 2
  15    7   10 2
  16    8   11 1
  17    8   14 1
  18   11   12 2
  19   11   15 1
  20   12   13 1
  21   12   29 1
  22   13   14 2
  23   13   16 1
  24   15   30 1
  25   15   31 1
  26   16   17 1
  27   17   18 1
  28   17   19 2
  29   18   20 1
  30   18   23 2
  31   20   21 1
  32   21   22 2
  33   21   32 1
  34   22   23 1
  35   22   33 1
  36   23   34 1

#	End of record

