#	Name: ASD01940452
#	Creating user name:	WinNT
#	Creation time:	15. 06. 2019 20:12

#	Modifying user name:	WinNT
#	Modification time:	15. 06. 2019 20:12

#	Program:	/corina/corina34_cracker 3.40 0067  02.08.2006

@<TRIPOS>MOLECULE
ASD01940452
  30   30    0    0    0
SMALL
NO_CHARGES


@<TRIPOS>ATOM
   1 C1            -0.0179     1.4715     0.0101 C.2     
   2 C2             0.0021    -0.0041     0.0020 C.ar    
   3 C3             1.2207    -0.6902    -0.0133 C.ar    
   4 C4             1.2296    -2.0751    -0.0203 C.ar    
   5 C5             0.0363    -2.7766    -0.0127 C.ar    
   6 C6            -1.1716    -2.1008     0.0020 C.ar    
   7 C7            -1.1961    -0.7223     0.0154 C.ar    
   8 O8             1.0258     2.0932     0.0035 O.2     
   9 O9            -1.1937     2.1292     0.0193 O.3     
  10 C10            0.0523    -4.2835    -0.0209 C.3     
  11 F11            2.4043    -2.7422    -0.0351 F       
  12 F12            2.3848    -0.0046    -0.0217 F       
  13 C13           -1.1374     3.5801     0.0269 C.3     
  14 C14           -0.4029     4.0685    -1.2232 C.3     
  15 C15           -2.5590     4.1456     0.0367 C.3     
  16 C16           -0.3910     4.0550     1.2752 C.3     
  17 H17           -2.0983    -2.6553     0.0072 H       
  18 H18           -2.1403    -0.1985     0.0314 H       
  19 H19            0.0659    -4.6523     1.0047 H       
  20 H20           -0.8387    -4.6535    -0.5282 H       
  21 H21            0.9411    -4.6346    -0.5452 H       
  22 H22           -0.9346     3.7302    -2.1125 H       
  23 H23           -0.3606     5.1577    -1.2175 H       
  24 H24            0.6099     3.6657    -1.2302 H       
  25 H25           -3.0824     3.7976     0.9273 H       
  26 H26           -2.5168     5.2348     0.0424 H       
  27 H27           -3.0908     3.8073    -0.8526 H       
  28 H28            0.6218     3.6521     1.2682 H       
  29 H29           -0.3488     5.1441     1.2809 H       
  30 H30           -0.9143     3.7070     2.1658 H       
@<TRIPOS>BOND
   1    1    2 1
   2    1    8 2
   3    1    9 1
   4    2    3 ar
   5    2    7 ar
   6    3    4 ar
   7    3   12 1
   8    4    5 ar
   9    4   11 1
  10    5    6 ar
  11    5   10 1
  12    6    7 ar
  13    6   17 1
  14    7   18 1
  15    9   13 1
  16   10   19 1
  17   10   20 1
  18   10   21 1
  19   13   14 1
  20   13   16 1
  21   13   15 1
  22   14   22 1
  23   14   23 1
  24   14   24 1
  25   15   25 1
  26   15   26 1
  27   15   27 1
  28   16   28 1
  29   16   29 1
  30   16   30 1

#	End of record

