#	Name: ASD00310359
#	Creating user name:	WinNT
#	Creation time:	15. 06. 2019 18:34

#	Modifying user name:	WinNT
#	Modification time:	15. 06. 2019 18:34

#	Program:	/corina/corina34_cracker 3.40 0067  02.08.2006

@<TRIPOS>MOLECULE
ASD00310359
  35   37    0    0    0
SMALL
NO_CHARGES


@<TRIPOS>ATOM
   1 N1            -0.0153     1.2794     0.0091 N.pl3   
   2 N2             0.0021    -0.0041     0.0020 N.2     
   3 C3             1.2292    -0.4800    -0.0123 C.2     
   4 C4             2.1243     0.6858    -0.0145 C.ar    
   5 C5             3.5012     0.8765    -0.0267 C.ar    
   6 C6             4.0085     2.1688    -0.0246 C.ar    
   7 C7             3.1373     3.2656    -0.0104 C.ar    
   8 C8             1.7845     3.0822     0.0016 C.ar    
   9 C9             1.2548     1.7947    -0.0003 C.ar    
  10 C10            1.6260    -1.8977    -0.0232 C.2     
  11 O11            2.8034    -2.1991    -0.0357 O.2     
  12 O12            0.6837    -2.8615    -0.0195 O.3     
  13 Cl13           3.7851     4.8762    -0.0073 Cl      
  14 C14            5.4758     2.3885    -0.0369 C.ar    
  15 C15            6.0442     3.2630    -0.9609 C.ar    
  16 C16            7.4097     3.4636    -0.9679 C.ar    
  17 C17            8.2137     2.7983    -0.0600 C.ar    
  18 C18            7.6549     1.9287     0.8592 C.ar    
  19 C19            6.2899     1.7253     0.8792 C.ar    
  20 C20            9.7041     3.0214    -0.0726 C.3     
  21 C21           10.0482     4.1674     0.8436 C.2     
  22 O22            9.1697     4.7460     1.4473 O.2     
  23 N23           11.3321     4.5493     0.9921 N.am    
  24 H24           -0.8235     1.8157     0.0160 H       
  25 H25            4.1694     0.0281    -0.0372 H       
  26 H26            1.1244     3.9369     0.0128 H       
  27 H27            0.9927    -3.7777    -0.0270 H       
  28 H28            5.4175     3.7827    -1.6705 H       
  29 H29            7.8514     4.1409    -1.6839 H       
  30 H30            8.2873     1.4116     1.5656 H       
  31 H31            5.8541     1.0498     1.6004 H       
  32 H32           10.2095     2.1183     0.2696 H       
  33 H33           10.0276     3.2570    -1.0864 H       
  34 H34           12.0347     4.0865     0.5093 H       
  35 H35           11.5536     5.2869     1.5818 H       
@<TRIPOS>BOND
   1    1    2 1
   2    1    9 1
   3    1   24 1
   4    2    3 2
   5    3    4 1
   6    3   10 1
   7    4    5 ar
   8    4    9 ar
   9    5    6 ar
  10    5   25 1
  11    6    7 ar
  12    6   14 1
  13    7    8 ar
  14    7   13 1
  15    8    9 ar
  16    8   26 1
  17   10   11 2
  18   10   12 1
  19   12   27 1
  20   14   15 ar
  21   14   19 ar
  22   15   16 ar
  23   15   28 1
  24   16   17 ar
  25   16   29 1
  26   17   18 ar
  27   17   20 1
  28   18   19 ar
  29   18   30 1
  30   19   31 1
  31   20   21 1
  32   20   32 1
  33   20   33 1
  34   21   22 2
  35   21   23 am
  36   23   34 1
  37   23   35 1

#	End of record

