#	Name: ASD00310149
#	Creating user name:	WinNT
#	Creation time:	15. 06. 2019 18:33

#	Modifying user name:	WinNT
#	Modification time:	15. 06. 2019 18:33

#	Program:	/corina/corina34_cracker 3.40 0067  02.08.2006

@<TRIPOS>MOLECULE
ASD00310149
  48   50    0    0    0
SMALL
NO_CHARGES


@<TRIPOS>ATOM
   1 N1            -0.0164     1.3576     0.0095 N.am    
   2 C2             0.0021    -0.0041     0.0020 C.2     
   3 C3             1.2898    -0.4463    -0.0127 C.2     
   4 C4             2.1488     0.7547    -0.0144 C.ar    
   5 C5             3.5249     0.9529    -0.0272 C.ar    
   6 C6             4.0320     2.2465    -0.0257 C.ar    
   7 C7             3.1597     3.3397    -0.0115 C.ar    
   8 C8             1.7965     3.1445     0.0016 C.ar    
   9 C9             1.2766     1.8544    -0.0002 C.ar    
  10 C10           -1.1324     2.1133     0.0191 C.2     
  11 O11           -1.0454     3.3246     0.0248 O.2     
  12 O12           -2.3429     1.5255     0.0224 O.3     
  13 C13            1.7370    -1.8449    -0.0237 C.2     
  14 O14            2.9251    -2.1032    -0.0361 O.2     
  15 O15            0.8303    -2.8428    -0.0201 O.3     
  16 C16            5.4989     2.4682    -0.0388 C.ar    
  17 C17            6.0646     3.3438    -0.9641 C.ar    
  18 C18            7.4285     3.5482    -0.9734 C.ar    
  19 C19            8.2378     2.8826    -0.0628 C.ar    
  20 C20            7.6773     2.0100     0.8600 C.ar    
  21 C21            6.3134     1.8058     0.8780 C.ar    
  22 O22            9.5814     3.0853    -0.0751 O.3     
  23 Cl23           3.7996     4.9535    -0.0098 Cl      
  24 C24            1.3443    -4.2007    -0.0316 C.3     
  25 C25           -3.5010     2.4014     0.0328 C.3     
  26 C26           -3.4791     3.2907    -1.2120 C.3     
  27 C27           -4.7779     1.5586     0.0352 C.3     
  28 C28           -3.4661     3.2780     1.2864 C.3     
  29 H29           -0.8726    -0.6375     0.0073 H       
  30 H30            4.1956     0.1064    -0.0378 H       
  31 H31            1.1302     3.9944     0.0132 H       
  32 H32            5.4355     3.8613    -1.6732 H       
  33 H33            7.8674     4.2265    -1.6902 H       
  34 H34            8.3094     1.4933     1.5669 H       
  35 H35            5.8774     1.1303     1.5990 H       
  36 H36            9.8749     3.8105     0.4933 H       
  37 H37            1.9451    -4.3542    -0.9280 H       
  38 H38            1.9618    -4.3629     0.8518 H       
  39 H39            0.5119    -4.9043    -0.0273 H       
  40 H40           -3.5039     2.6662    -2.1051 H       
  41 H41           -4.3484     3.9482    -1.2042 H       
  42 H42           -2.5693     3.8911    -1.2137 H       
  43 H43           -4.7935     0.9251     0.9220 H       
  44 H44           -5.6472     2.2162     0.0430 H       
  45 H45           -4.8027     0.9342    -0.8579 H       
  46 H46           -2.5564     3.8784     1.2847 H       
  47 H47           -4.3354     3.9355     1.2942 H       
  48 H48           -3.4817     2.6445     2.1732 H       
@<TRIPOS>BOND
   1    1    2 1
   2    1    9 1
   3    1   10 am
   4    2    3 2
   5    2   29 1
   6    3    4 1
   7    3   13 1
   8    4    5 ar
   9    4    9 ar
  10    5    6 ar
  11    5   30 1
  12    6    7 ar
  13    6   16 1
  14    7    8 ar
  15    7   23 1
  16    8    9 ar
  17    8   31 1
  18   10   11 2
  19   10   12 1
  20   12   25 1
  21   13   14 2
  22   13   15 1
  23   15   24 1
  24   16   17 ar
  25   16   21 ar
  26   17   18 ar
  27   17   32 1
  28   18   19 ar
  29   18   33 1
  30   19   20 ar
  31   19   22 1
  32   20   21 ar
  33   20   34 1
  34   21   35 1
  35   22   36 1
  36   24   37 1
  37   24   38 1
  38   24   39 1
  39   25   26 1
  40   25   28 1
  41   25   27 1
  42   26   40 1
  43   26   41 1
  44   26   42 1
  45   27   43 1
  46   27   44 1
  47   27   45 1
  48   28   46 1
  49   28   47 1
  50   28   48 1

#	End of record

