#	Name: ASD00170785
#	Creating user name:	WinNT
#	Creation time:	15. 06. 2019 18:32

#	Modifying user name:	WinNT
#	Modification time:	15. 06. 2019 18:32

#	Program:	/corina/corina34_cracker 3.40 0067  02.08.2006

@<TRIPOS>MOLECULE
ASD00170785
  60   64    0    0    0
SMALL
NO_CHARGES


@<TRIPOS>ATOM
   1 C1             0.0182     1.2808     0.0229 C.2     
   2 C2            -0.0289    -0.0566    -0.0157 C.2     
   3 S3            -1.6902    -0.6209    -0.0095 S.3     
   4 C4            -2.3109     0.9652     0.0456 C.2     
   5 C5            -1.2897     1.8901     0.0644 C.2     
   6 N6            -3.6524     1.2800     0.0729 N.pl3   
   7 C7            -1.5081     3.3366     0.1121 C.2     
   8 C8            -1.4851     4.0454     1.4095 C.ar    
   9 O9            -1.7087     3.9563    -0.9167 O.2     
  10 C10           -1.7960     5.4052     1.4709 C.ar    
  11 C11           -1.7728     6.0608     2.6838 C.ar    
  12 C12           -1.4414     5.3732     3.8397 C.ar    
  13 C13           -1.1320     4.0242     3.7850 C.ar    
  14 C14           -1.1578     3.3563     2.5789 C.ar    
  15 Cl15          -1.4132     6.2057     5.3628 Cl      
  16 C16            1.1568    -0.9376    -0.0583 C.ar    
  17 C17            1.3032     2.0681     0.0288 C.3     
  18 N18            1.7839     2.2310    -1.3497 N.3     
  19 C19            2.8980     3.1876    -1.4093 C.3     
  20 C20            3.4207     3.2690    -2.8455 C.3     
  21 N21            2.3288     3.6802    -3.7389 N.3     
  22 C22            1.2148     2.7236    -3.6793 C.3     
  23 C23            0.6920     2.6423    -2.2432 C.3     
  24 C24            2.7861     3.8352    -5.0502 C.ar    
  25 C25            1.2692    -2.0055     0.8338 C.ar    
  26 C26            2.3785    -2.8243     0.7883 C.ar    
  27 C27            3.3785    -2.5888    -0.1385 C.ar    
  28 C28            3.2736    -1.5318    -1.0253 C.ar    
  29 C29            2.1667    -0.7091    -0.9947 C.ar    
  30 C30            1.9061     4.2215    -6.0527 C.ar    
  31 C31            2.3602     4.3742    -7.3484 C.ar    
  32 C32            3.6905     4.1422    -7.6485 C.ar    
  33 C33            4.5709     3.7563    -6.6511 C.ar    
  34 C34            4.1229     3.6087    -5.3521 C.ar    
  35 Cl35           4.2575     4.3344    -9.2780 Cl      
  36 Cl36           6.2395     3.4656    -7.0316 Cl      
  37 H37           -4.3170     0.5785    -0.0120 H       
  38 H38           -3.9320     2.2030     0.1769 H       
  39 H39           -2.0539     5.9424     0.5702 H       
  40 H40           -2.0131     7.1126     2.7325 H       
  41 H41           -0.8740     3.4934     4.6895 H       
  42 H42           -0.9167     2.3044     2.5375 H       
  43 H43            1.1264     3.0489     0.4702 H       
  44 H44            2.0527     1.5358     0.6145 H       
  45 H45            2.5502     4.1709    -1.0927 H       
  46 H46            3.6988     2.8547    -0.7491 H       
  47 H47            4.2280     3.9994    -2.8978 H       
  48 H48            3.7935     2.2918    -3.1527 H       
  49 H49            0.4139     3.0565    -4.3395 H       
  50 H50            1.5625     1.7403    -3.9960 H       
  51 H51           -0.1153     1.9118    -2.1909 H       
  52 H52            0.3193     3.6194    -1.9359 H       
  53 H53            0.4897    -2.1900     1.5582 H       
  54 H54            2.4668    -3.6508     1.4779 H       
  55 H55            4.2451    -3.2326    -0.1697 H       
  56 H56            4.0581    -1.3531    -1.7458 H       
  57 H57            2.0859     0.1154    -1.6877 H       
  58 H58            0.8671     4.4022    -5.8196 H       
  59 H59            1.6758     4.6746    -8.1280 H       
  60 H60            4.8093     3.3079    -4.5744 H       
@<TRIPOS>BOND
   1    1    2 2
   2    1   17 1
   3    1    5 1
   4    2    3 1
   5    2   16 1
   6    3    4 1
   7    4    5 2
   8    4    6 1
   9    5    7 1
  10    6   37 1
  11    6   38 1
  12    7    8 1
  13    7    9 2
  14    8   10 ar
  15    8   14 ar
  16   10   11 ar
  17   10   39 1
  18   11   12 ar
  19   11   40 1
  20   12   13 ar
  21   12   15 1
  22   13   14 ar
  23   13   41 1
  24   14   42 1
  25   16   25 ar
  26   16   29 ar
  27   17   18 1
  28   17   43 1
  29   17   44 1
  30   18   19 1
  31   18   23 1
  32   19   20 1
  33   19   45 1
  34   19   46 1
  35   20   21 1
  36   20   47 1
  37   20   48 1
  38   21   22 1
  39   21   24 1
  40   22   23 1
  41   22   49 1
  42   22   50 1
  43   23   51 1
  44   23   52 1
  45   24   30 ar
  46   24   34 ar
  47   25   26 ar
  48   25   53 1
  49   26   27 ar
  50   26   54 1
  51   27   28 ar
  52   27   55 1
  53   28   29 ar
  54   28   56 1
  55   29   57 1
  56   30   31 ar
  57   30   58 1
  58   31   32 ar
  59   31   59 1
  60   32   33 ar
  61   32   35 1
  62   33   34 ar
  63   33   36 1
  64   34   60 1

#	End of record

