#	Name: ASD01911031
#	Creating user name:	WinNT
#	Creation time:	15. 06. 2019 19:57

#	Modifying user name:	WinNT
#	Modification time:	15. 06. 2019 19:57

#	Program:	/corina/corina34_cracker 3.40 0067  02.08.2006

@<TRIPOS>MOLECULE
ASD01911031
  53   56    0    0    0
SMALL
NO_CHARGES


@<TRIPOS>ATOM
   1 N1            -4.4860    -3.3047     1.1933 N.3     
   2 C2            -3.1146    -2.8182     1.3942 C.3     
   3 C3            -2.4440    -2.6136     0.0316 C.3     
   4 N4            -3.3007    -1.7396    -0.7842 N.am    
   5 C5            -4.7231    -2.0888    -0.9191 C.3     
   6 C6            -5.3039    -2.3140     0.4809 C.3     
   7 C7            -2.7957    -0.6481    -1.3924 C.2     
   8 C8            -3.6396     0.1424    -2.3104 C.ar    
   9 C9            -3.5682     1.5388    -2.2982 C.ar    
  10 C10           -4.3542     2.2815    -3.1527 C.ar    
  11 C11           -5.2217     1.6497    -4.0316 C.ar    
  12 C12           -5.3021     0.2477    -4.0529 C.ar    
  13 C13           -4.5039    -0.5036    -3.1936 C.ar    
  14 C14           -6.1972    -0.4070    -4.9588 C.1     
  15 O15           -1.6451    -0.3144    -1.1851 O.2     
  16 C16           -6.9311    -0.9438    -5.7015 C.1     
  17 C17           -7.8262    -1.5986    -6.6074 C.ar    
  18 C18           -7.9067    -2.9936    -6.6291 C.ar    
  19 C19           -8.7711    -3.6177    -7.5036 C.ar    
  20 C20           -9.5581    -2.8652    -8.3595 C.ar    
  21 C21           -9.4830    -1.4823    -8.3435 C.ar    
  22 C22           -8.6274    -0.8453    -7.4697 C.ar    
  23 C23           -5.0722    -3.6569     2.4043 C.ar    
  24 O24           -5.9927     2.3860    -4.8701 O.3     
  25 C25           -5.9283    -4.7530     2.4634 C.ar    
  26 C26           -6.5042    -5.0921     3.6756 C.ar    
  27 C27           -6.2035    -4.3213     4.7905 C.ar    
  28 C28           -5.3458    -3.2476     4.6592 C.ar    
  29 N29           -4.8069    -2.9501     3.4919 N.ar    
  30 C30           -5.8598     3.8068    -4.7941 C.3     
  31 Cl31          -6.2693    -5.6813     1.0366 Cl      
  32 Cl32         -10.6433    -3.6590    -9.4577 Cl      
  33 H33           -3.1399    -1.8710     1.9330 H       
  34 H34           -2.5497    -3.5503     1.9713 H       
  35 H35           -1.4694    -2.1454     0.1697 H       
  36 H36           -2.3238    -3.5761    -0.4656 H       
  37 H37           -5.2553    -1.2737    -1.4095 H       
  38 H38           -4.8220    -3.0009    -1.5077 H       
  39 H39           -6.3269    -2.6806     0.3957 H       
  40 H40           -5.2988    -1.3739     1.0324 H       
  41 H41           -2.8949     2.0371    -1.6165 H       
  42 H42           -4.2946     3.3598    -3.1377 H       
  43 H43           -4.5606    -1.5821    -3.2052 H       
  44 H44           -7.2930    -3.5816    -5.9627 H       
  45 H45           -8.8343    -4.6957    -7.5214 H       
  46 H46          -10.0992    -0.9015    -9.0138 H       
  47 H47           -8.5697     0.2331    -7.4583 H       
  48 H48           -7.1727    -5.9369     3.7522 H       
  49 H49           -6.6366    -4.5590     5.7509 H       
  50 H50           -5.1096    -2.6453     5.5240 H       
  51 H51           -6.5304     4.2735    -5.5157 H       
  52 H52           -6.1167     4.1425    -3.7894 H       
  53 H53           -4.8311     4.0880    -5.0193 H       
@<TRIPOS>BOND
   1    1    2 1
   2    1   23 1
   3    1    6 1
   4    2    3 1
   5    2   33 1
   6    2   34 1
   7    3    4 1
   8    3   35 1
   9    3   36 1
  10    4    5 1
  11    4    7 am
  12    5    6 1
  13    5   37 1
  14    5   38 1
  15    6   39 1
  16    6   40 1
  17    7    8 1
  18    7   15 2
  19    8    9 ar
  20    8   13 ar
  21    9   10 ar
  22    9   41 1
  23   10   11 ar
  24   10   42 1
  25   11   12 ar
  26   11   24 1
  27   12   13 ar
  28   12   14 1
  29   13   43 1
  30   14   16 3
  31   16   17 1
  32   17   18 ar
  33   17   22 ar
  34   18   19 ar
  35   18   44 1
  36   19   20 ar
  37   19   45 1
  38   20   21 ar
  39   20   32 1
  40   21   22 ar
  41   21   46 1
  42   22   47 1
  43   23   25 ar
  44   23   29 ar
  45   24   30 1
  46   25   26 ar
  47   25   31 1
  48   26   27 ar
  49   26   48 1
  50   27   28 ar
  51   27   49 1
  52   28   29 ar
  53   28   50 1
  54   30   51 1
  55   30   52 1
  56   30   53 1

#	End of record

