#	Name: ASD03430746
#	Creating user name:	WinNT
#	Creation time:	15. 06. 2019 20:41

#	Modifying user name:	WinNT
#	Modification time:	15. 06. 2019 20:41

#	Program:	/corina/corina34_cracker 3.40 0067  02.08.2006

@<TRIPOS>MOLECULE
ASD03430746
  66   72    0    0    0
SMALL
NO_CHARGES


@<TRIPOS>ATOM
   1 C1             3.9695    -1.2815    -3.1787 C.ar    
   2 C2             3.1225    -2.1563    -2.5159 C.ar    
   3 C3             3.5190    -3.4539    -2.2695 C.ar    
   4 C4             4.7743    -3.8994    -2.6724 C.ar    
   5 C5             5.6200    -3.0203    -3.3414 C.ar    
   6 C6             5.2225    -1.7179    -3.5932 C.ar    
   7 O7             4.9782    -5.1979    -2.3084 O.3     
   8 C8             2.8397    -4.6241    -1.6104 C.3     
   9 C9             3.7085    -5.8182    -2.0294 C.3     
  10 C10            1.4179    -4.5597     0.2049 C.ar    
  11 C11            2.7697    -4.4784    -0.1191 C.ar    
  12 C12            1.4165    -4.7856    -2.0617 C.2     
  13 N13            0.6542    -4.7400    -0.9510 N.am    
  14 O14            1.0290    -4.9290    -3.2020 O.2     
  15 C15            3.7207    -4.2976     0.8673 C.ar    
  16 C16            3.3326    -4.1973     2.1960 C.ar    
  17 C17            1.9887    -4.2788     2.5279 C.ar    
  18 C18            1.0354    -4.4587     1.5395 C.ar    
  19 C19           -0.8054    -4.8657    -0.9553 C.3     
  20 C20           -1.4056    -3.7231    -1.7333 C.ar    
  21 C21           -2.6736    -3.8435    -2.2706 C.ar    
  22 C22           -3.2242    -2.7954    -2.9842 C.ar    
  23 C23           -2.5070    -1.6268    -3.1602 C.ar    
  24 C24           -1.2394    -1.5061    -2.6221 C.ar    
  25 C25           -0.6906    -2.5526    -1.9048 C.ar    
  26 C26           -1.1952    -6.1713    -1.5990 C.ar    
  27 C27           -1.5998    -7.2351    -0.8145 C.ar    
  28 C28           -1.9574    -8.4328    -1.4049 C.ar    
  29 C29           -1.9108    -8.5665    -2.7800 C.ar    
  30 C30           -1.5070    -7.5025    -3.5646 C.ar    
  31 C31           -1.1536    -6.3034    -2.9744 C.ar    
  32 O32            6.0714    -0.8754    -4.2441 O.3     
  33 O33            5.0363    -4.2186     0.5361 O.3     
  34 C34            5.9646    -4.0314     1.6063 C.3     
  35 O35            1.6055    -4.1822     3.8281 O.3     
  36 C36            2.6395    -3.9978     4.7971 C.3     
  37 O37            3.5592    -0.0058    -3.4200 O.3     
  38 C38            4.5760     0.9439    -3.7579 C.3     
  39 C39            5.4964     0.3080    -4.8083 C.3     
  40 H40            2.1489    -1.8203    -2.1910 H       
  41 H41            6.5936    -3.3559    -3.6665 H       
  42 H42            3.3060    -6.2951    -2.9231 H       
  43 H43            3.7992    -6.5358    -1.2139 H       
  44 H44            4.0741    -4.0561     2.9683 H       
  45 H45           -0.0095    -4.5212     1.8054 H       
  46 H46           -1.1752    -4.8413     0.0697 H       
  47 H47           -3.2339    -4.7565    -2.1331 H       
  48 H48           -4.2145    -2.8897    -3.4046 H       
  49 H49           -2.9369    -0.8083    -3.7184 H       
  50 H50           -0.6790    -0.5932    -2.7599 H       
  51 H51            0.2998    -2.4583    -1.4844 H       
  52 H52           -1.6363    -7.1306     0.2599 H       
  53 H53           -2.2728    -9.2641    -0.7919 H       
  54 H54           -2.1895    -9.5025    -3.2412 H       
  55 H55           -1.4703    -7.6071    -4.6389 H       
  56 H56           -0.8382    -5.4721    -3.5875 H       
  57 H57            6.9771    -3.9853     1.2052 H       
  58 H58            5.7370    -3.1007     2.1261 H       
  59 H59            5.8878    -4.8653     2.3040 H       
  60 H60            3.3296    -4.8406     4.7570 H       
  61 H61            3.1793    -3.0757     4.5816 H       
  62 H62            2.1984    -3.9365     5.7920 H       
  63 H63            4.1172     1.8437    -4.1678 H       
  64 H64            5.1529     1.1971    -2.8684 H       
  65 H65            6.2868     1.0089    -5.0770 H       
  66 H66            4.9179     0.0481    -5.6948 H       
@<TRIPOS>BOND
   1    1    2 ar
   2    1    6 ar
   3    1   37 1
   4    2    3 ar
   5    2   40 1
   6    3    4 ar
   7    3    8 1
   8    4    5 ar
   9    4    7 1
  10    5    6 ar
  11    5   41 1
  12    6   32 1
  13    7    9 1
  14    8    9 1
  15    8   11 1
  16    8   12 1
  17    9   42 1
  18    9   43 1
  19   10   11 ar
  20   10   13 1
  21   10   18 ar
  22   11   15 ar
  23   12   13 am
  24   12   14 2
  25   13   19 1
  26   15   16 ar
  27   15   33 1
  28   16   17 ar
  29   16   44 1
  30   17   18 ar
  31   17   35 1
  32   18   45 1
  33   19   20 1
  34   19   26 1
  35   19   46 1
  36   20   21 ar
  37   20   25 ar
  38   21   22 ar
  39   21   47 1
  40   22   23 ar
  41   22   48 1
  42   23   24 ar
  43   23   49 1
  44   24   25 ar
  45   24   50 1
  46   25   51 1
  47   26   27 ar
  48   26   31 ar
  49   27   28 ar
  50   27   52 1
  51   28   29 ar
  52   28   53 1
  53   29   30 ar
  54   29   54 1
  55   30   31 ar
  56   30   55 1
  57   31   56 1
  58   32   39 1
  59   33   34 1
  60   34   57 1
  61   34   58 1
  62   34   59 1
  63   35   36 1
  64   36   60 1
  65   36   61 1
  66   36   62 1
  67   37   38 1
  68   38   39 1
  69   38   63 1
  70   38   64 1
  71   39   65 1
  72   39   66 1

#	End of record

