#	Name: ASD03090422
#	Creating user name:	WinNT
#	Creation time:	15. 06. 2019 20:28

#	Modifying user name:	WinNT
#	Modification time:	15. 06. 2019 20:28

#	Program:	/corina/corina34_cracker 3.40 0067  02.08.2006

@<TRIPOS>MOLECULE
ASD03090422
  36   38    0    0    0
SMALL
NO_CHARGES


@<TRIPOS>ATOM
   1 C1            -0.0168     1.3905     0.0097 C.ar    
   2 C2             0.0021    -0.0041     0.0020 C.ar    
   3 C3             1.2193    -0.6609    -0.0132 C.ar    
   4 C4             2.3843     0.1015    -0.0203 C.ar    
   5 C5             2.2880     1.4904    -0.0119 C.ar    
   6 N6             1.1158     2.0836     0.0026 N.ar    
   7 C7            -1.3121     2.1049     0.0197 C.2     
   8 O8            -2.3527     1.4767     0.0212 O.2     
   9 N9            -1.3385     3.4524     0.0271 N.am    
  10 O10            3.5997    -0.5023    -0.0347 O.3     
  11 C11            4.7471     0.3494    -0.0412 C.3     
  12 C12           -2.6213     4.1599     0.0370 C.3     
  13 N13           -1.7054     9.7121    -0.2104 N.pl3   
  14 C14           -1.6841     9.8858    -1.5674 C.2     
  15 C15           -1.8812     8.7090    -2.1825 C.2     
  16 C16           -2.0419     7.6992    -1.1335 C.ar    
  17 C17           -2.2697     6.3216    -1.1392 C.ar    
  18 C18           -2.3749     5.6466     0.0440 C.ar    
  19 C19           -2.2571     6.3194     1.2526 C.ar    
  20 C20           -2.0327     7.6782     1.2813 C.ar    
  21 C21           -1.9222     8.3856     0.0884 C.ar    
  22 H22           -0.9216    -0.5638     0.0082 H       
  23 H23            1.2649    -1.7399    -0.0191 H       
  24 H24            3.1879     2.0875    -0.0169 H       
  25 H25           -0.5081     3.9537     0.0259 H       
  26 H26            4.7243     0.9830    -0.9278 H       
  27 H27            4.7410     0.9740     0.8521 H       
  28 H28            5.6513    -0.2593    -0.0527 H       
  29 H29           -3.1918     3.8903    -0.8517 H       
  30 H30           -3.1834     3.8806     0.9282 H       
  31 H31           -1.5819    10.4177     0.4437 H       
  32 H32           -1.5316    10.8298    -2.0693 H       
  33 H33           -1.9150     8.5390    -3.2485 H       
  34 H34           -2.3633     5.7916    -2.0756 H       
  35 H35           -2.3426     5.7721     2.1797 H       
  36 H36           -1.9429     8.1927     2.2266 H       
@<TRIPOS>BOND
   1    1    2 ar
   2    1    6 ar
   3    1    7 1
   4    2    3 ar
   5    2   22 1
   6    3    4 ar
   7    3   23 1
   8    4    5 ar
   9    4   10 1
  10    5    6 ar
  11    5   24 1
  12    7    8 2
  13    7    9 am
  14    9   12 1
  15    9   25 1
  16   10   11 1
  17   11   26 1
  18   11   27 1
  19   11   28 1
  20   12   18 1
  21   12   29 1
  22   12   30 1
  23   13   14 1
  24   13   21 1
  25   13   31 1
  26   14   15 2
  27   14   32 1
  28   15   16 1
  29   15   33 1
  30   16   17 ar
  31   16   21 ar
  32   17   18 ar
  33   17   34 1
  34   18   19 ar
  35   19   20 ar
  36   19   35 1
  37   20   21 ar
  38   20   36 1

#	End of record

