#	Name: ASD01912561
#	Creating user name:	WinNT
#	Creation time:	15. 06. 2019 19:59

#	Modifying user name:	WinNT
#	Modification time:	15. 06. 2019 19:59

#	Program:	/corina/corina34_cracker 3.40 0067  02.08.2006

@<TRIPOS>MOLECULE
ASD01912561
  60   64    0    0    0
SMALL
NO_CHARGES


@<TRIPOS>ATOM
   1 C1             0.0003     1.4165    -0.3877 C.ar    
   2 C2            -1.2144     1.9577     0.0336 C.ar    
   3 C3             1.2604     2.1624    -0.1728 C.2     
   4 N4             1.3790     3.5089     0.0077 N.pl3   
   5 C5             2.5138     1.6274    -0.1133 C.2     
   6 C6             3.4194     2.6794     0.1040 C.2     
   7 N7             2.7379     3.8036     0.1760 N.2     
   8 C8             4.8920     2.5457     0.2346 C.ar    
   9 C9             5.6797     3.6740     0.4493 C.ar    
  10 C10            5.4903     1.2902     0.1484 C.ar    
  11 C11            6.8597     1.1708     0.2709 C.ar    
  12 C12            7.6389     2.2945     0.4789 C.ar    
  13 C13            7.0499     3.5437     0.5706 C.ar    
  14 C14            0.2792     4.4765     0.0230 C.3     
  15 C15           -0.1668     4.7078     1.4438 C.2     
  16 N16           -1.1736     5.5655     1.7029 N.am    
  17 O17            0.3803     4.1220     2.3540 O.2     
  18 C18           -1.6244     5.8058     3.0822 C.3     
  19 C19           -1.6536     7.3180     3.3283 C.3     
  20 N20           -2.4647     7.9646     2.2881 N.3     
  21 C21           -1.8709     7.7794     0.9573 C.3     
  22 C22           -1.8465     6.2907     0.6146 C.3     
  23 C23           -2.6494     9.3098     2.5668 C.ar    
  24 C24           -3.3917    10.1142     1.7062 C.ar    
  25 C25           -3.5477    11.4561     2.0301 C.ar    
  26 N26           -2.9866    11.9219     3.1424 N.ar    
  27 C27           -2.2907    11.1296     3.9326 C.ar    
  28 N28           -2.1241     9.8508     3.6641 N.ar    
  29 C29           -2.3858     1.2573    -0.1697 C.ar    
  30 C30           -2.3571     0.0208    -0.7894 C.ar    
  31 C31           -1.1556    -0.5212    -1.2094 C.ar    
  32 C32            0.0232     0.1669    -1.0071 C.ar    
  33 Cl33           8.0346     4.9494     0.8312 Cl      
  34 O34           -4.2612    12.2793     1.2236 O.3     
  35 C35           -4.3743    13.6453     1.6275 C.3     
  36 H36           -1.2380     2.9226     0.5181 H       
  37 H37            2.7650     0.5820    -0.2148 H       
  38 H38            5.2206     4.6490     0.5206 H       
  39 H39            4.8832     0.4118    -0.0136 H       
  40 H40            7.3239     0.1978     0.2046 H       
  41 H41            8.7102     2.1964     0.5746 H       
  42 H42            0.6176     5.4181    -0.4094 H       
  43 H43           -0.5550     4.0876    -0.5609 H       
  44 H44           -2.6243     5.3934     3.2176 H       
  45 H45           -0.9331     5.3344     3.7807 H       
  46 H46           -2.0896     7.5189     4.3068 H       
  47 H47           -0.6377     7.7117     3.2945 H       
  48 H48           -2.4645     8.3149     0.2164 H       
  49 H49           -0.8520     8.1666     0.9566 H       
  50 H50           -1.3045     6.1386    -0.3188 H       
  51 H51           -2.8671     5.9216     0.5129 H       
  52 H52           -3.8346     9.7056     0.8100 H       
  53 H53           -1.8478    11.5396     4.8282 H       
  54 H54           -3.3269     1.6752     0.1560 H       
  55 H55           -3.2765    -0.5238    -0.9456 H       
  56 H56           -1.1396    -1.4871    -1.6923 H       
  57 H57            0.9605    -0.2571    -1.3358 H       
  58 H58           -3.3806    14.0884     1.6927 H       
  59 H59           -4.9688    14.1926     0.8959 H       
  60 H60           -4.8598    13.6970     2.6020 H       
@<TRIPOS>BOND
   1    1    2 ar
   2    1    3 1
   3    1   32 ar
   4    2   29 ar
   5    2   36 1
   6    3    4 1
   7    3    5 2
   8    4   14 1
   9    4    7 1
  10    5    6 1
  11    5   37 1
  12    6    7 2
  13    6    8 1
  14    8    9 ar
  15    8   10 ar
  16    9   13 ar
  17    9   38 1
  18   10   11 ar
  19   10   39 1
  20   11   12 ar
  21   11   40 1
  22   12   13 ar
  23   12   41 1
  24   13   33 1
  25   14   15 1
  26   14   42 1
  27   14   43 1
  28   15   16 am
  29   15   17 2
  30   16   18 1
  31   16   22 1
  32   18   19 1
  33   18   44 1
  34   18   45 1
  35   19   20 1
  36   19   46 1
  37   19   47 1
  38   20   21 1
  39   20   23 1
  40   21   22 1
  41   21   48 1
  42   21   49 1
  43   22   50 1
  44   22   51 1
  45   23   24 ar
  46   23   28 ar
  47   24   25 ar
  48   24   52 1
  49   25   26 ar
  50   25   34 1
  51   26   27 ar
  52   27   28 ar
  53   27   53 1
  54   29   30 ar
  55   29   54 1
  56   30   31 ar
  57   30   55 1
  58   31   32 ar
  59   31   56 1
  60   32   57 1
  61   34   35 1
  62   35   58 1
  63   35   59 1
  64   35   60 1

#	End of record

