#	Name: ASD01890094
#	Creating user name:	WinNT
#	Creation time:	15. 06. 2019 19:50

#	Modifying user name:	WinNT
#	Modification time:	15. 06. 2019 19:50

#	Program:	/corina/corina34_cracker 3.40 0067  02.08.2006

@<TRIPOS>MOLECULE
ASD01890094
  39   41    0    0    0
SMALL
NO_CHARGES


@<TRIPOS>ATOM
   1 C1             0.3040     2.1697     0.4166 C.2     
   2 C2             0.6179     0.8527    -0.1372 C.2     
   3 C3             1.8751     0.3672    -0.0534 C.2     
   4 O4             1.1764     2.8282     0.9531 O.2     
   5 C5             2.1908    -0.9574    -0.6104 C.ar    
   6 C6             3.4921    -1.4638    -0.5255 C.ar    
   7 C7             3.7799    -2.7060    -1.0500 C.ar    
   8 C8             2.7854    -3.4513    -1.6596 C.ar    
   9 C9             1.4956    -2.9570    -1.7480 C.ar    
  10 C10            1.1901    -1.7194    -1.2225 C.ar    
  11 C11           -1.0695     2.7033     0.3195 C.ar    
  12 C12           -1.3715     3.9615     0.8480 C.ar    
  13 C13           -2.6532     4.4556     0.7551 C.ar    
  14 C14           -3.6467     3.7045     0.1369 C.ar    
  15 C15           -3.3503     2.4524    -0.3901 C.ar    
  16 C16           -2.0698     1.9538    -0.3063 C.ar    
  17 O17           -4.9090     4.1946     0.0481 O.3     
  18 C18           -5.2235     4.9548    -1.0334 C.ar    
  19 C19           -6.4662     5.5667    -1.1151 C.ar    
  20 C20           -6.7833     6.3394    -2.2154 C.ar    
  21 C21           -5.8637     6.5029    -3.2350 C.ar    
  22 C22           -4.6247     5.8943    -3.1561 C.ar    
  23 C23           -4.3004     5.1253    -2.0553 C.ar    
  24 H24           -0.1559     0.2686    -0.6131 H       
  25 H25            2.6489     0.9513     0.4225 H       
  26 H26            4.2692    -0.8832    -0.0508 H       
  27 H27            4.7839    -3.0985    -0.9853 H       
  28 H28            3.0173    -4.4235    -2.0688 H       
  29 H29            0.7253    -3.5444    -2.2255 H       
  30 H30            0.1821    -1.3372    -1.2879 H       
  31 H31           -0.6005     4.5452     1.3290 H       
  32 H32           -2.8873     5.4278     1.1632 H       
  33 H33           -4.1248     1.8720    -0.8696 H       
  34 H34           -1.8393     0.9831    -0.7199 H       
  35 H35           -7.1851     5.4387    -0.3193 H       
  36 H36           -7.7504     6.8158    -2.2795 H       
  37 H37           -6.1138     7.1069    -4.0947 H       
  38 H38           -3.9084     6.0234    -3.9540 H       
  39 H39           -3.3310     4.6535    -1.9922 H       
@<TRIPOS>BOND
   1    1    2 1
   2    1    4 2
   3    1   11 1
   4    2    3 2
   5    2   24 1
   6    3    5 1
   7    3   25 1
   8    5    6 ar
   9    5   10 ar
  10    6    7 ar
  11    6   26 1
  12    7    8 ar
  13    7   27 1
  14    8    9 ar
  15    8   28 1
  16    9   10 ar
  17    9   29 1
  18   10   30 1
  19   11   12 ar
  20   11   16 ar
  21   12   13 ar
  22   12   31 1
  23   13   14 ar
  24   13   32 1
  25   14   15 ar
  26   14   17 1
  27   15   16 ar
  28   15   33 1
  29   16   34 1
  30   17   18 1
  31   18   19 ar
  32   18   23 ar
  33   19   20 ar
  34   19   35 1
  35   20   21 ar
  36   20   36 1
  37   21   22 ar
  38   21   37 1
  39   22   23 ar
  40   22   38 1
  41   23   39 1

#	End of record

