#	Name: ASD01917969
#	Creating user name:	WinNT
#	Creation time:	15. 06. 2019 20:10

#	Modifying user name:	WinNT
#	Modification time:	15. 06. 2019 20:10

#	Program:	/corina/corina34_cracker 3.40 0067  02.08.2006

@<TRIPOS>MOLECULE
ASD01917969
  41   44    0    0    0
SMALL
NO_CHARGES


@<TRIPOS>ATOM
   1 N1             4.8198    -0.4121    -2.1417 N.ar    
   2 C2             5.2870     0.2860    -3.1582 C.ar    
   3 C3             5.1751     1.6647    -3.1837 C.ar    
   4 C4             4.5621     2.3135    -2.1224 C.ar    
   5 C5             4.0811     1.5453    -1.0672 C.ar    
   6 C6             4.2308     0.1663    -1.1141 C.ar    
   7 O7             3.4735     2.1366    -0.0052 O.3     
   8 C8             3.4548     3.4957     0.0443 C.2     
   9 N9             2.2049     5.5090    -0.0207 N.pl3   
  10 C10            2.2723     4.1531    -0.0651 C.2     
  11 C11            4.6548     4.1968     0.2133 C.2     
  12 C12            4.6275     5.5861     0.2634 C.2     
  13 C13            3.3353     6.2596     0.1364 C.2     
  14 C14            5.8679     6.3597     0.4404 C.2     
  15 N15            5.8218     7.7059     0.4867 N.am    
  16 C16            6.9796     8.4345     0.7597 C.ar    
  17 N17            8.1392     7.8055     0.8649 N.ar    
  18 C18            6.9036     9.8139     0.9127 C.ar    
  19 C19            8.0582    10.5269     1.1829 C.ar    
  20 C20            9.2581     9.8296     1.2915 C.ar    
  21 C21            9.2587     8.4543     1.1215 C.ar    
  22 O22            6.9342     5.7838     0.5448 O.2     
  23 N23            1.1424     6.4205    -0.1064 N.2     
  24 C24            1.6576     7.6231    -0.0090 C.2     
  25 N25            2.9727     7.5326     0.1429 N.2     
  26 Cl26           5.7950     2.5716    -4.5279 Cl      
  27 O27           10.4166    10.4907     1.5561 O.3     
  28 C28           11.6054     9.7036     1.6522 C.3     
  29 H29            5.7636    -0.2252    -3.9815 H       
  30 H30            4.4610     3.3887    -2.1151 H       
  31 H31            3.8605    -0.4393    -0.3002 H       
  32 H32            1.3629     3.5842    -0.1908 H       
  33 H33            5.5904     3.6650     0.3039 H       
  34 H34            4.9835     8.1681     0.3301 H       
  35 H35            5.9553    10.3228     0.8215 H       
  36 H36            8.0292    11.5995     1.3063 H       
  37 H37           10.1865     7.9071     1.2006 H       
  38 H38            1.0963     8.5453    -0.0393 H       
  39 H39           11.4944     8.9743     2.4547 H       
  40 H40           11.7739     9.1834     0.7093 H       
  41 H41           12.4546    10.3526     1.8658 H       
@<TRIPOS>BOND
   1    1    2 ar
   2    1    6 ar
   3    2    3 ar
   4    2   29 1
   5    3    4 ar
   6    3   26 1
   7    4    5 ar
   8    4   30 1
   9    5    6 ar
  10    5    7 1
  11    6   31 1
  12    7    8 1
  13    8   11 1
  14    8   10 2
  15    9   10 1
  16    9   23 1
  17    9   13 1
  18   10   32 1
  19   11   12 2
  20   11   33 1
  21   12   13 1
  22   12   14 1
  23   13   25 2
  24   14   15 am
  25   14   22 2
  26   15   16 1
  27   15   34 1
  28   16   18 ar
  29   16   17 ar
  30   17   21 ar
  31   18   19 ar
  32   18   35 1
  33   19   20 ar
  34   19   36 1
  35   20   21 ar
  36   20   27 1
  37   21   37 1
  38   23   24 2
  39   24   25 1
  40   24   38 1
  41   27   28 1
  42   28   39 1
  43   28   40 1
  44   28   41 1

#	End of record

