#	Name: ASD01708053
#	Creating user name:	WinNT
#	Creation time:	15. 06. 2019 19:22

#	Modifying user name:	WinNT
#	Modification time:	15. 06. 2019 19:22

#	Program:	/corina/corina34_cracker 3.40 0067  02.08.2006

@<TRIPOS>MOLECULE
ASD01708053
  72   76    0    0    0
SMALL
NO_CHARGES


@<TRIPOS>ATOM
   1 C1            -0.0162     1.3436     0.0094 C.2     
   2 N2            -0.0735    -0.0025     0.0464 N.am    
   3 O3             1.0629     1.9065    -0.0096 O.2     
   4 C4            -1.3494    -0.7078     0.2065 C.3     
   5 C5            -1.1928    -1.8197     1.2143 C.ar    
   6 C6             0.0401    -2.2219     1.6809 C.ar    
   7 C7            -2.3481    -2.4434     1.6703 C.ar    
   8 C8            -2.2795    -3.4715     2.5851 C.ar    
   9 C9            -1.0330    -3.8913     3.0578 C.ar    
  10 C10            0.1223    -3.2599     2.5995 C.ar    
  11 Cl11           1.6747    -3.7755     3.1808 Cl      
  12 Cl12          -3.7314    -4.2397     3.1470 Cl      
  13 C13           -0.9405    -4.9946     4.0353 C.2     
  14 N14           -0.9711    -4.7289     5.3563 N.am    
  15 O15           -0.8368    -6.1424     3.6484 O.2     
  16 C16           -0.8794    -5.8233     6.3259 C.3     
  17 C17           -2.2501    -6.4050     6.5579 C.2     
  18 O18           -2.4096    -7.4265     7.4140 O.3     
  19 O19           -3.2056    -5.9519     5.9734 O.2     
  20 C20           -1.2531     2.1293    -0.0139 C.2     
  21 C21           -0.3218    -5.2891     7.6467 C.3     
  22 C22           -1.3028     3.4866     0.0768 C.2     
  23 N23            0.9569    -4.6177     7.4009 N.pl3   
  24 C24            1.6453    -4.0582     8.4398 C.2     
  25 C25            1.3295    -1.5781     1.2428 C.3     
  26 C26            1.1416    -0.8246    -0.0786 C.3     
  27 N27            1.1578    -4.1226     9.6664 N.2     
  28 C28           -2.6336     3.8950    -0.0704 C.2     
  29 C29           -3.3653     2.6532    -0.5678 C.3     
  30 O30           -2.5019     1.5950    -0.1352 O.3     
  31 C31           -3.2496     5.0763     0.1436 C.2     
  32 C32           -4.7153     5.0889     0.0343 C.2     
  33 C33           -5.3960     3.9443     0.0241 C.2     
  34 C34           -4.7182     2.6033     0.1409 C.3     
  35 C35           -0.1227     4.3971     0.2990 C.3     
  36 N36            2.8376    -3.4322     8.2106 N.pl3   
  37 C37            3.6787    -2.7906     9.2317 C.3     
  38 C38            3.4972    -3.2935     6.8995 C.3     
  39 C39            4.4096    -2.0500     7.0441 C.3     
  40 C40            4.9062    -2.1981     8.5080 C.3     
  41 C41            1.8407    -3.5677    10.6968 C.1     
  42 N42            2.4131    -3.1024    11.5607 N.1     
  43 H43           -2.1095    -0.0081     0.5538 H       
  44 H44           -1.6546    -1.1275    -0.7520 H       
  45 H45           -3.3105    -2.1183     1.3037 H       
  46 H46           -1.0539    -3.8131     5.6650 H       
  47 H47           -0.2171    -6.5974     5.9384 H       
  48 H48           -3.3075    -7.7660     7.5300 H       
  49 H49           -1.0276    -4.5796     8.0786 H       
  50 H50           -0.1701    -6.1175     8.3386 H       
  51 H51            1.3147    -4.5704     6.5006 H       
  52 H52            1.6609    -0.8801     2.0116 H       
  53 H53            2.0880    -2.3495     1.1092 H       
  54 H54            1.0289    -1.5365    -0.8964 H       
  55 H55            2.0033    -0.1831    -0.2632 H       
  56 H56           -3.4710     2.6580    -1.6527 H       
  57 H57           -2.6924     5.9696     0.3842 H       
  58 H58           -5.2418     6.0291    -0.0376 H       
  59 H59           -6.4713     3.9782    -0.0708 H       
  60 H60           -5.3428     1.8390    -0.3215 H       
  61 H61           -4.5683     2.3624     1.1933 H       
  62 H62            0.7865     3.8010     0.3767 H       
  63 H63           -0.0338     5.0878    -0.5396 H       
  64 H64           -0.2673     4.9610     1.2205 H       
  65 H65            3.1202    -1.9956     9.7259 H       
  66 H66            4.0016    -3.5303     9.9643 H       
  67 H67            4.0943    -4.1786     6.6797 H       
  68 H68            2.7558    -3.1312     6.1171 H       
  69 H69            5.2434    -2.0935     6.3434 H       
  70 H70            3.8396    -1.1300     6.9140 H       
  71 H71            5.1691    -1.2264     8.9262 H       
  72 H72            5.7521    -2.8835     8.5608 H       
@<TRIPOS>BOND
   1    1    2 am
   2    1    3 2
   3    1   20 1
   4    2    4 1
   5    2   26 1
   6    4    5 1
   7    4   43 1
   8    4   44 1
   9    5    6 ar
  10    5    7 ar
  11    6   25 1
  12    6   10 ar
  13    7    8 ar
  14    7   45 1
  15    8    9 ar
  16    8   12 1
  17    9   10 ar
  18    9   13 1
  19   10   11 1
  20   13   14 am
  21   13   15 2
  22   14   16 1
  23   14   46 1
  24   16   17 1
  25   16   21 1
  26   16   47 1
  27   17   18 1
  28   17   19 2
  29   18   48 1
  30   20   22 2
  31   20   30 1
  32   21   23 1
  33   21   49 1
  34   21   50 1
  35   22   28 1
  36   22   35 1
  37   23   24 1
  38   23   51 1
  39   24   27 2
  40   24   36 1
  41   25   26 1
  42   25   52 1
  43   25   53 1
  44   26   54 1
  45   26   55 1
  46   27   41 1
  47   28   29 1
  48   28   31 2
  49   29   30 1
  50   29   34 1
  51   29   56 1
  52   31   32 1
  53   31   57 1
  54   32   33 2
  55   32   58 1
  56   33   34 1
  57   33   59 1
  58   34   60 1
  59   34   61 1
  60   35   62 1
  61   35   63 1
  62   35   64 1
  63   36   37 1
  64   36   38 1
  65   37   40 1
  66   37   65 1
  67   37   66 1
  68   38   39 1
  69   38   67 1
  70   38   68 1
  71   39   40 1
  72   39   69 1
  73   39   70 1
  74   40   71 1
  75   40   72 1
  76   41   42 3

#	End of record

