#	Name: ASD01530010
#	Creating user name:	WinNT
#	Creation time:	15. 06. 2019 19:22

#	Modifying user name:	WinNT
#	Modification time:	15. 06. 2019 19:22

#	Program:	/corina/corina34_cracker 3.40 0067  02.08.2006

@<TRIPOS>MOLECULE
ASD01530010
  32   33    0    0    0
SMALL
NO_CHARGES


@<TRIPOS>ATOM
   1 C1            -0.0186     1.5231     0.0104 C.3     
   2 C2             0.0021    -0.0041     0.0020 C.3     
   3 C3             0.9336    -0.4809     1.1227 C.3     
   4 C4             2.3702    -0.1388     0.7329 C.3     
   5 C5             2.4805     1.3099     0.3353 C.ar    
   6 C6             3.7473     1.8794     0.3113 C.ar    
   7 C7             3.9154     3.2004    -0.0481 C.ar    
   8 C8             2.8145     3.9647    -0.3884 C.ar    
   9 C9             1.5557     3.4014    -0.3640 C.ar    
  10 C10            1.3841     2.0719    -0.0000 C.ar    
  11 C11           -0.7545     2.0168    -1.2085 C.2     
  12 O12           -1.2129     1.2262    -1.9989 O.2     
  13 O13           -0.9006     3.3349    -1.4162 O.3     
  14 C14           -1.6205     3.7381    -2.6110 C.3     
  15 C15           -1.6852     5.2654    -2.6763 C.3     
  16 O16           -0.3661     5.7917    -2.8340 O.3     
  17 H17           -0.5339     1.8707     0.9059 H       
  18 H18           -1.0043    -0.3859     0.1738 H       
  19 H19            0.3716    -0.3610    -0.9593 H       
  20 H20            0.6758     0.0235     2.0539 H       
  21 H21            0.8342    -1.5590     1.2489 H       
  22 H22            3.0279    -0.3299     1.5808 H       
  23 H23            2.6742    -0.7657    -0.1054 H       
  24 H24            4.6077     1.2830     0.5766 H       
  25 H25            4.9033     3.6363    -0.0634 H       
  26 H26            2.9400     4.9990    -0.6727 H       
  27 H27            0.6963     3.9992    -0.6294 H       
  28 H28           -1.1035     3.3584    -3.4922 H       
  29 H29           -2.6318     3.3326    -2.5801 H       
  30 H30           -2.3005     5.5670    -3.5239 H       
  31 H31           -2.1222     5.6503    -1.7549 H       
  32 H32           -0.3310     6.7568    -2.8830 H       
@<TRIPOS>BOND
   1    1    2 1
   2    1   10 1
   3    1   11 1
   4    1   17 1
   5    2    3 1
   6    2   18 1
   7    2   19 1
   8    3    4 1
   9    3   20 1
  10    3   21 1
  11    4    5 1
  12    4   22 1
  13    4   23 1
  14    5    6 ar
  15    5   10 ar
  16    6    7 ar
  17    6   24 1
  18    7    8 ar
  19    7   25 1
  20    8    9 ar
  21    8   26 1
  22    9   10 ar
  23    9   27 1
  24   11   12 2
  25   11   13 1
  26   13   14 1
  27   14   15 1
  28   14   28 1
  29   14   29 1
  30   15   16 1
  31   15   30 1
  32   15   31 1
  33   16   32 1

#	End of record

