#	Name: ASD01814589
#	Creating user name:	WinNT
#	Creation time:	15. 06. 2019 19:32

#	Modifying user name:	WinNT
#	Modification time:	15. 06. 2019 19:32

#	Program:	/corina/corina34_cracker 3.40 0067  02.08.2006

@<TRIPOS>MOLECULE
ASD01814589
  60   64    0    0    0
SMALL
NO_CHARGES


@<TRIPOS>ATOM
   1 C1             0.5351     0.2502     3.2076 C.2     
   2 N2            -0.5674     0.2639     4.0228 N.pl3   
   3 N3            -1.3578    -0.8394     3.6850 N.2     
   4 C4            -0.7710    -1.5016     2.7086 C.2     
   5 C5             0.4107    -0.8587     2.3796 C.2     
   6 C6            -0.9270    -2.7116     1.8206 C.3     
   7 N7             0.2361    -2.7642     0.9294 N.am    
   8 C8             1.0810    -1.6121     1.2595 C.3     
   9 C9            -0.7129     1.2554     4.9502 C.2     
  10 C10            0.2416     2.2127     5.0473 C.2     
  11 C11            1.3552     2.1652     4.1961 C.2     
  12 N12            1.4698     1.2046     3.3095 N.2     
  13 C13            0.4799    -3.6925    -0.0168 C.2     
  14 C14           -0.4160    -4.8563    -0.1566 C.ar    
  15 O15            1.4382    -3.5708    -0.7552 O.2     
  16 C16            0.1184    -6.1449    -0.2932 C.ar    
  17 C17           -0.7330    -7.2316    -0.4240 C.ar    
  18 C18           -2.1011    -7.0435    -0.4195 C.ar    
  19 C19           -2.6331    -5.7717    -0.2851 C.ar    
  20 C20           -1.8017    -4.6811    -0.1479 C.ar    
  21 O21            1.4625    -6.3281    -0.2979 O.3     
  22 C22            1.9334    -7.6771    -0.3263 C.3     
  23 C23            2.0221    -8.1577    -1.7774 C.3     
  24 C24            3.3232    -7.7474     0.3124 C.3     
  25 C25            3.8476    -9.1825     0.2244 C.3     
  26 N26            3.9147    -9.5950    -1.1833 N.3     
  27 C27            2.5843    -9.5808    -1.8048 C.3     
  28 C28            0.1072     3.3193     6.0614 C.3     
  29 C29            2.4219     3.2250     4.2963 C.3     
  30 C30           -1.9189     1.2852     5.8534 C.3     
  31 C31            4.5433   -10.9161    -1.3154 C.3     
  32 H32           -0.9665    -3.6144     2.4300 H       
  33 H33           -1.8398    -2.6223     1.2316 H       
  34 H34            1.1825    -0.9653     0.3881 H       
  35 H35            2.0638    -1.9561     1.5819 H       
  36 H36           -0.3258    -8.2262    -0.5298 H       
  37 H37           -2.7601    -7.8930    -0.5216 H       
  38 H38           -3.7044    -5.6346    -0.2834 H       
  39 H39           -2.2209    -3.6918    -0.0386 H       
  40 H40            1.2450    -8.3148     0.2282 H       
  41 H41            1.0281    -8.1503    -2.2246 H       
  42 H42            2.6800    -7.4956    -2.3404 H       
  43 H43            4.0016    -7.0789    -0.2177 H       
  44 H44            3.2588    -7.4470     1.3582 H       
  45 H45            4.8431    -9.2330     0.6655 H       
  46 H46            3.1761    -9.8484     0.7664 H       
  47 H47            1.9187   -10.2449    -1.2532 H       
  48 H48            2.6621    -9.9207    -2.8375 H       
  49 H49            0.5777     3.0147     6.9962 H       
  50 H50            0.5954     4.2183     5.6850 H       
  51 H51           -0.9488     3.5255     6.2364 H       
  52 H52            3.1822     2.9088     5.0105 H       
  53 H53            2.8807     3.3722     3.3186 H       
  54 H54            1.9744     4.1603     4.6323 H       
  55 H55           -1.7069     0.7205     6.7613 H       
  56 H56           -2.1524     2.3175     6.1138 H       
  57 H57           -2.7696     0.8390     5.3384 H       
  58 H58            3.9603   -11.6528    -0.7627 H       
  59 H59            4.5803   -11.1973    -2.3678 H       
  60 H60            5.5559   -10.8784    -0.9136 H       
@<TRIPOS>BOND
   1    1    5 2
   2    1   12 1
   3    1    2 1
   4    2    3 1
   5    2    9 1
   6    3    4 2
   7    4    6 1
   8    4    5 1
   9    5    8 1
  10    6    7 1
  11    6   32 1
  12    6   33 1
  13    7    8 1
  14    7   13 am
  15    8   34 1
  16    8   35 1
  17    9   10 2
  18    9   30 1
  19   10   11 1
  20   10   28 1
  21   11   12 2
  22   11   29 1
  23   13   14 1
  24   13   15 2
  25   14   16 ar
  26   14   20 ar
  27   16   17 ar
  28   16   21 1
  29   17   18 ar
  30   17   36 1
  31   18   19 ar
  32   18   37 1
  33   19   20 ar
  34   19   38 1
  35   20   39 1
  36   21   22 1
  37   22   24 1
  38   22   23 1
  39   22   40 1
  40   23   27 1
  41   23   41 1
  42   23   42 1
  43   24   25 1
  44   24   43 1
  45   24   44 1
  46   25   26 1
  47   25   45 1
  48   25   46 1
  49   26   27 1
  50   26   31 1
  51   27   47 1
  52   27   48 1
  53   28   49 1
  54   28   50 1
  55   28   51 1
  56   29   52 1
  57   29   53 1
  58   29   54 1
  59   30   55 1
  60   30   56 1
  61   30   57 1
  62   31   58 1
  63   31   59 1
  64   31   60 1

#	End of record

