#	Name: ASD00120072
#	Creating user name:	WinNT
#	Creation time:	15. 06. 2019 18:31

#	Modifying user name:	WinNT
#	Modification time:	15. 06. 2019 18:31

#	Program:	/corina/corina34_cracker 3.40 0067  02.08.2006

@<TRIPOS>MOLECULE
ASD00120072
  55   58    0    0    0
SMALL
NO_CHARGES


@<TRIPOS>ATOM
   1 C1            -0.0188     1.5384     0.0105 C.3     
   2 C2             0.0021    -0.0041     0.0020 C.3     
   3 C3             1.3534    -0.4220    -0.6038 C.3     
   4 C4             2.1065     0.8811    -0.9423 C.3     
   5 C5             1.4774     1.9387    -0.0016 C.3     
   6 C6             1.6573     3.3470    -0.5719 C.3     
   7 C7             1.1385     4.3752     0.4353 C.3     
   8 C8             1.9909     4.3361     1.6775 C.ar    
   9 C9             1.4190     4.0334     2.8990 C.ar    
  10 C10            2.2009     3.9976     4.0384 C.ar    
  11 C11            3.5548     4.2640     3.9562 C.ar    
  12 C12            4.1270     4.5657     2.7345 C.ar    
  13 C13            3.3458     4.5973     1.5944 C.ar    
  14 S14            4.5513     4.2195     5.4087 S.o2    
  15 N15            5.1159     2.6709     5.5685 N.am    
  16 O16            5.6847     5.0344     5.1429 O.2     
  17 O17            3.6739     4.4417     6.5041 O.2     
  18 C18            1.2019     5.7519    -0.1743 C.2     
  19 N19            0.5126     6.0227    -1.3004 N.am    
  20 O20            1.8732     6.6161     0.3483 O.2     
  21 C21            0.5710     7.2888    -1.8610 C.2     
  22 N22           -0.0480     7.6475    -2.9311 N.2     
  23 S23            1.4948     8.6339    -1.2072 S.3     
  24 C24            0.9491     9.6691    -2.5259 C.ar    
  25 C25            0.1088     8.9178    -3.3528 C.ar    
  26 C26           -0.4525     9.5549    -4.4824 C.ar    
  27 C27           -0.1491    10.8754    -4.7201 C.ar    
  28 C28            0.6989    11.5536    -3.8493 C.ar    
  29 N29            1.2105    10.9454    -2.7974 N.ar    
  30 O30            0.9992    12.8564    -4.0833 O.3     
  31 C31            1.8750    13.4975    -3.1537 C.3     
  32 H32           -0.5225     1.9180    -0.8785 H       
  33 H33           -0.5054     1.9084     0.9130 H       
  34 H34           -0.0844    -0.3843     1.0199 H       
  35 H35           -0.8154    -0.3852    -0.6101 H       
  36 H36            1.9228    -1.0050     0.1201 H       
  37 H37            1.1918    -1.0060    -1.5098 H       
  38 H38            3.1710     0.7713    -0.7351 H       
  39 H39            1.9461     1.1545    -1.9852 H       
  40 H40            1.9042     1.8684     0.9989 H       
  41 H41            2.7147     3.5286    -0.7645 H       
  42 H42            1.0978     3.4362    -1.5031 H       
  43 H43            0.1064     4.1402     0.6954 H       
  44 H44            0.3612     3.8253     2.9633 H       
  45 H45            1.7539     3.7618     4.9929 H       
  46 H46            5.1847     4.7742     2.6703 H       
  47 H47            3.7928     4.8331     0.6399 H       
  48 H48            5.9730     2.5086     5.9926 H       
  49 H49            4.5895     1.9262     5.2380 H       
  50 H50           -0.0243     5.3314    -1.7184 H       
  51 H51           -1.1085     9.0139    -5.1483 H       
  52 H52           -0.5661    11.3828    -5.5775 H       
  53 H53            2.0319    14.5326    -3.4568 H       
  54 H54            1.4296    13.4736    -2.1591 H       
  55 H55            2.8315    12.9751    -3.1361 H       
@<TRIPOS>BOND
   1    1    2 1
   2    1    5 1
   3    1   32 1
   4    1   33 1
   5    2    3 1
   6    2   34 1
   7    2   35 1
   8    3    4 1
   9    3   36 1
  10    3   37 1
  11    4    5 1
  12    4   38 1
  13    4   39 1
  14    5    6 1
  15    5   40 1
  16    6    7 1
  17    6   41 1
  18    6   42 1
  19    7    8 1
  20    7   18 1
  21    7   43 1
  22    8    9 ar
  23    8   13 ar
  24    9   10 ar
  25    9   44 1
  26   10   11 ar
  27   10   45 1
  28   11   12 ar
  29   11   14 1
  30   12   13 ar
  31   12   46 1
  32   13   47 1
  33   14   15 am
  34   14   16 2
  35   14   17 2
  36   15   48 1
  37   15   49 1
  38   18   19 am
  39   18   20 2
  40   19   21 1
  41   19   50 1
  42   21   22 2
  43   21   23 1
  44   22   25 1
  45   23   24 1
  46   24   25 ar
  47   24   29 ar
  48   25   26 ar
  49   26   27 ar
  50   26   51 1
  51   27   28 ar
  52   27   52 1
  53   28   29 ar
  54   28   30 1
  55   30   31 1
  56   31   53 1
  57   31   54 1
  58   31   55 1

#	End of record

