#	Name: ASD01910787
#	Creating user name:	WinNT
#	Creation time:	15. 06. 2019 19:56

#	Modifying user name:	WinNT
#	Modification time:	15. 06. 2019 19:56

#	Program:	/corina/corina34_cracker 3.40 0067  02.08.2006

@<TRIPOS>MOLECULE
ASD01910787
  52   55    0    0    0
SMALL
NO_CHARGES


@<TRIPOS>ATOM
   1 C1             0.0598     1.7636    -0.3709 C.ar    
   2 C2             0.0023     0.3768    -0.4012 C.ar    
   3 C3             1.1881    -0.3344    -0.3556 C.ar    
   4 C4             2.3909     0.3602    -0.2814 C.ar    
   5 N5             2.4041     1.6841    -0.2542 N.ar    
   6 C6             1.2890     2.3880    -0.2968 C.ar    
   7 N7             3.5899    -0.3417    -0.2349 N.3     
   8 C8             4.7345     0.5760    -0.1593 C.3     
   9 C9             6.0169    -0.2303     0.0721 C.3     
  10 N10            6.1149    -1.2620    -0.9715 N.am    
  11 C11            4.9522    -2.1333    -1.2000 C.3     
  12 C12            3.7117    -1.2521    -1.3813 C.3     
  13 C13            7.2404    -1.4055    -1.6989 C.2     
  14 C14            7.3646    -2.5262    -2.6556 C.ar    
  15 O15            8.1533    -0.6137    -1.5686 O.2     
  16 C16            7.9775    -2.3242    -3.8942 C.ar    
  17 C17            8.0951    -3.3694    -4.7894 C.ar    
  18 C18            7.6087    -4.6203    -4.4678 C.ar    
  19 C19            6.9926    -4.8373    -3.2312 C.ar    
  20 C20            6.8756    -3.7870    -2.3210 C.ar    
  21 C21            6.4879    -6.1354    -2.8985 C.1     
  22 C22            6.0740    -7.1996    -2.6258 C.1     
  23 C23            5.5692    -8.4978    -2.2930 C.ar    
  24 C24            4.9534    -8.7162    -1.0579 C.ar    
  25 C25            4.4692    -9.9690    -0.7446 C.ar    
  26 C26            4.5925   -11.0084    -1.6497 C.ar    
  27 C27            5.2015   -10.7997    -2.8746 C.ar    
  28 C28            5.6849    -9.5508    -3.2043 C.ar    
  29 C29            1.3578     3.8931    -0.2632 C.3     
  30 H30           -0.8475     2.3482    -0.4095 H       
  31 H31           -0.9468    -0.1354    -0.4586 H       
  32 H32            1.1799    -1.4141    -0.3769 H       
  33 H33            4.8177     1.1315    -1.0934 H       
  34 H34            4.5886     1.2722     0.6666 H       
  35 H35            6.8810     0.4316     0.0148 H       
  36 H36            5.9795    -0.7042     1.0530 H       
  37 H37            5.1123    -2.7295    -2.0983 H       
  38 H38            4.8124    -2.7901    -0.3413 H       
  39 H39            2.8239    -1.8817    -1.4417 H       
  40 H40            3.8091    -0.6712    -2.2984 H       
  41 H41            8.3601    -1.3479    -4.1529 H       
  42 H42            8.5698    -3.2069    -5.7458 H       
  43 H43            7.7037    -5.4331    -5.1726 H       
  44 H44            6.4008    -3.9485    -1.3644 H       
  45 H45            4.8571    -7.9060    -0.3502 H       
  46 H46            3.9930   -10.1393     0.2097 H       
  47 H47            4.2117   -11.9874    -1.3988 H       
  48 H48            5.2949   -11.6158    -3.5758 H       
  49 H49            6.1601    -9.3893    -4.1606 H       
  50 H50            1.4266     4.2765    -1.2812 H       
  51 H51            0.4604     4.2873     0.2137 H       
  52 H52            2.2362     4.2041     0.3024 H       
@<TRIPOS>BOND
   1    1    2 ar
   2    1    6 ar
   3    1   30 1
   4    2    3 ar
   5    2   31 1
   6    3    4 ar
   7    3   32 1
   8    4    5 ar
   9    4    7 1
  10    5    6 ar
  11    6   29 1
  12    7    8 1
  13    7   12 1
  14    8    9 1
  15    8   33 1
  16    8   34 1
  17    9   10 1
  18    9   35 1
  19    9   36 1
  20   10   11 1
  21   10   13 am
  22   11   12 1
  23   11   37 1
  24   11   38 1
  25   12   39 1
  26   12   40 1
  27   13   14 1
  28   13   15 2
  29   14   16 ar
  30   14   20 ar
  31   16   17 ar
  32   16   41 1
  33   17   18 ar
  34   17   42 1
  35   18   19 ar
  36   18   43 1
  37   19   20 ar
  38   19   21 1
  39   20   44 1
  40   21   22 3
  41   22   23 1
  42   23   24 ar
  43   23   28 ar
  44   24   25 ar
  45   24   45 1
  46   25   26 ar
  47   25   46 1
  48   26   27 ar
  49   26   47 1
  50   27   28 ar
  51   27   48 1
  52   28   49 1
  53   29   50 1
  54   29   51 1
  55   29   52 1

#	End of record

