#	Name: ASD03331845
#	Creating user name:	WinNT
#	Creation time:	15. 06. 2019 20:40

#	Modifying user name:	WinNT
#	Modification time:	15. 06. 2019 20:40

#	Program:	/corina/corina34_cracker 3.40 0067  02.08.2006

@<TRIPOS>MOLECULE
ASD03331845
  56   57    0    0    0
SMALL
NO_CHARGES


@<TRIPOS>ATOM
   1 C1            -0.1865     1.2318    -0.7014 C.2     
   2 N2            -0.2380    -0.0958    -0.9862 N.pl3   
   3 C3            -1.5394    -0.4495    -1.0658 C.2     
   4 N4            -2.2770     0.6040    -0.8445 N.2     
   5 C5            -1.4650     1.6706    -0.6101 C.2     
   6 C6             1.0969     2.0019    -0.5278 C.3     
   7 N7             2.1903     1.0300    -0.3459 N.3     
   8 C8             2.1575    -0.0060    -1.3879 C.3     
   9 C9             0.9541    -0.9305    -1.1641 C.3     
  10 C10           -1.8964     3.0486    -0.3177 C.2     
  11 O11           -1.0673     3.9174    -0.1252 O.2     
  12 N12           -3.2097     3.3465    -0.2637 N.am    
  13 C13           -3.6386     4.7168     0.0270 C.3     
  14 C14           -3.6782     4.9283     1.5418 C.3     
  15 C15           -2.0549    -1.8341    -1.3625 C.3     
  16 C16           -2.2340    -2.6033    -0.0521 C.3     
  17 C17            3.4948     1.7048    -0.3153 C.3     
  18 C18           -2.2613     4.8214     2.1089 C.3     
  19 C19           -5.0125     4.9459    -0.5483 C.2     
  20 C20           -4.2470     6.3152     1.8484 C.3     
  21 C21           -4.5662     3.8599     2.1829 C.3     
  22 O22           -5.6481     4.0124    -0.9905 O.2     
  23 N23           -5.5349     6.1881    -0.5714 N.am    
  24 C24           -6.9012     6.3992    -1.0560 C.3     
  25 C25           -2.7575    -4.0091    -0.3533 C.3     
  26 H26            1.2860     2.6075    -1.4141 H       
  27 H27            1.0253     2.6443     0.3498 H       
  28 H28            2.0741     0.4668    -2.3664 H       
  29 H29            3.0764    -0.5908    -1.3463 H       
  30 H30            1.1159    -1.5353    -0.2719 H       
  31 H31            0.8229    -1.5794    -2.0301 H       
  32 H32           -3.8709     2.6536    -0.4173 H       
  33 H33           -2.9358     5.4201    -0.4197 H       
  34 H34           -3.0139    -1.7625    -1.8757 H       
  35 H35           -1.3413    -2.3592    -1.9974 H       
  36 H36           -1.2751    -2.6749     0.4612 H       
  37 H37           -2.9476    -2.0782     0.5829 H       
  38 H38            3.5172     2.4148     0.5114 H       
  39 H39            4.2835     0.9647    -0.1801 H       
  40 H40            3.6515     2.2355    -1.2544 H       
  41 H41           -1.6287     5.5825     1.6523 H       
  42 H42           -2.2895     4.9720     3.1881 H       
  43 H43           -1.8561     3.8333     1.8905 H       
  44 H44           -5.2095     6.4315     1.3503 H       
  45 H45           -4.3795     6.4237     2.9249 H       
  46 H46           -3.5571     7.0785     1.4885 H       
  47 H47           -4.1610     2.8718     1.9644 H       
  48 H48           -4.5944     4.0105     3.2620 H       
  49 H49           -5.5756     3.9361     1.7788 H       
  50 H50           -5.0062     6.9423    -0.2672 H       
  51 H51           -6.9760     6.0628    -2.0901 H       
  52 H52           -7.5975     5.8322    -0.4382 H       
  53 H53           -7.1466     7.4598    -1.0003 H       
  54 H54           -3.7164    -3.9375    -0.8665 H       
  55 H55           -2.0439    -4.5342    -0.9882 H       
  56 H56           -2.8850    -4.5571     0.5803 H       
@<TRIPOS>BOND
   1    1    2 1
   2    1    6 1
   3    1    5 2
   4    2    3 1
   5    2    9 1
   6    3    4 2
   7    3   15 1
   8    4    5 1
   9    5   10 1
  10    6    7 1
  11    6   26 1
  12    6   27 1
  13    7    8 1
  14    7   17 1
  15    8    9 1
  16    8   28 1
  17    8   29 1
  18    9   30 1
  19    9   31 1
  20   10   11 2
  21   10   12 am
  22   12   13 1
  23   12   32 1
  24   13   14 1
  25   13   19 1
  26   13   33 1
  27   14   18 1
  28   14   20 1
  29   14   21 1
  30   15   16 1
  31   15   34 1
  32   15   35 1
  33   16   25 1
  34   16   36 1
  35   16   37 1
  36   17   38 1
  37   17   39 1
  38   17   40 1
  39   18   41 1
  40   18   42 1
  41   18   43 1
  42   19   22 2
  43   19   23 am
  44   20   44 1
  45   20   45 1
  46   20   46 1
  47   21   47 1
  48   21   48 1
  49   21   49 1
  50   23   24 1
  51   23   50 1
  52   24   51 1
  53   24   52 1
  54   24   53 1
  55   25   54 1
  56   25   55 1
  57   25   56 1

#	End of record

