#	Name: ASD01208599
#	Creating user name:	WinNT
#	Creation time:	15. 06. 2019 19:10

#	Modifying user name:	WinNT
#	Modification time:	15. 06. 2019 19:10

#	Program:	/corina/corina34_cracker 3.40 0067  02.08.2006

@<TRIPOS>MOLECULE
ASD01208599
  60   63    0    0    0
SMALL
NO_CHARGES


@<TRIPOS>ATOM
   1 C1            -0.7879     1.3840     1.1254 C.ar    
   2 C2            -0.7989    -0.0071     1.1409 C.ar    
   3 N3            -0.3600     2.0521     2.1869 N.ar    
   4 N4            -0.3836    -0.6567     2.2120 N.ar    
   5 C5             0.0427     0.0134     3.2694 C.ar    
   6 C6             0.0548     1.3953     3.2569 C.ar    
   7 S7             0.5958    -0.8576     4.6976 S.o2    
   8 O8             0.3795     0.0515     5.7681 O.2     
   9 O9            -0.0935    -2.0989     4.6400 O.2     
  10 C10            2.3716    -1.1022     4.4192 C.3     
  11 O11           -1.2089     2.0550     0.0239 O.3     
  12 C12           -1.2769     3.4107     0.0899 C.ar    
  13 C13           -0.1154     4.1567     0.2331 C.ar    
  14 C14           -0.1793     5.5408     0.3010 C.ar    
  15 C15           -1.4038     6.1841     0.2265 C.ar    
  16 C16           -2.5740     5.4380     0.0826 C.ar    
  17 C17           -2.5048     4.0462     0.0085 C.ar    
  18 N18           -5.0967     5.5091    -0.1380 N.pl3   
  19 C19           -3.8828     6.1203     0.0027 C.2     
  20 C20           -4.0878     7.4804     0.0580 C.2     
  21 C21           -5.4609     7.7053    -0.0516 C.2     
  22 C22           -6.0730     6.4766    -0.1722 C.2     
  23 O23           -8.0569     5.0089    -0.4285 O.3     
  24 C24           -7.5170     6.2414    -0.3137 C.2     
  25 N25           -8.3951     7.2013    -0.3401 N.2     
  26 C26           -9.7367     6.6017    -0.4765 C.3     
  27 C27           -9.4641     5.1174    -0.1315 C.3     
  28 C28          -10.7166     7.2231     0.5208 C.3     
  29 O29            0.9611     6.2666     0.4413 O.3     
  30 C30            2.0947     8.2753    -0.2804 C.3     
  31 C31            0.8385     7.6884     0.3665 C.3     
  32 C32            0.6755     8.2611     1.7759 C.3     
  33 O33            3.2217     8.0369     0.5653 O.3     
  34 C34            4.4529     8.5481     0.0507 C.3     
  35 H35           -1.1473    -0.5548     0.2777 H       
  36 H36            0.4036     1.9394     4.1221 H       
  37 H37            2.8605    -0.1332     4.3188 H       
  38 H38            2.8012    -1.6401     5.2643 H       
  39 H39            2.5201    -1.6803     3.5071 H       
  40 H40            0.8409     3.6582     0.2922 H       
  41 H41           -1.4527     7.2617     0.2802 H       
  42 H42           -3.4078     3.4652    -0.1077 H       
  43 H43           -5.2446     4.5528    -0.2064 H       
  44 H44           -3.3244     8.2365     0.1669 H       
  45 H45           -5.9536     8.6664    -0.0430 H       
  46 H46          -10.1060     6.7025    -1.4970 H       
  47 H47          -10.0504     4.4540    -0.7673 H       
  48 H48           -9.6580     4.9187     0.9225 H       
  49 H49          -10.8113     8.2903     0.3203 H       
  50 H50          -11.6913     6.7462     0.4177 H       
  51 H51          -10.3454     7.0755     1.5350 H       
  52 H52            2.2601     7.8018    -1.2482 H       
  53 H53            1.9646     9.3486    -0.4185 H       
  54 H54           -0.0339     7.9468    -0.2338 H       
  55 H55            0.5820     9.3455     1.7188 H       
  56 H56           -0.2194     7.8429     2.2367 H       
  57 H57            1.5479     8.0027     2.3761 H       
  58 H58            4.6672     8.0803    -0.9102 H       
  59 H59            4.3718     9.6271    -0.0806 H       
  60 H60            5.2589     8.3268     0.7503 H       
@<TRIPOS>BOND
   1    1    2 ar
   2    1    3 ar
   3    1   11 1
   4    2    4 ar
   5    2   35 1
   6    3    6 ar
   7    4    5 ar
   8    5    6 ar
   9    5    7 1
  10    6   36 1
  11    7    8 2
  12    7    9 2
  13    7   10 1
  14   10   37 1
  15   10   38 1
  16   10   39 1
  17   11   12 1
  18   12   13 ar
  19   12   17 ar
  20   13   14 ar
  21   13   40 1
  22   14   15 ar
  23   14   29 1
  24   15   16 ar
  25   15   41 1
  26   16   17 ar
  27   16   19 1
  28   17   42 1
  29   18   19 1
  30   18   22 1
  31   18   43 1
  32   19   20 2
  33   20   21 1
  34   20   44 1
  35   21   22 2
  36   21   45 1
  37   22   24 1
  38   23   24 1
  39   23   27 1
  40   24   25 2
  41   25   26 1
  42   26   27 1
  43   26   28 1
  44   26   46 1
  45   27   47 1
  46   27   48 1
  47   28   49 1
  48   28   50 1
  49   28   51 1
  50   29   31 1
  51   30   31 1
  52   30   33 1
  53   30   52 1
  54   30   53 1
  55   31   32 1
  56   31   54 1
  57   32   55 1
  58   32   56 1
  59   32   57 1
  60   33   34 1
  61   34   58 1
  62   34   59 1
  63   34   60 1

#	End of record

