#	Name: ASD01913015
#	Creating user name:	WinNT
#	Creation time:	15. 06. 2019 20:00

#	Modifying user name:	WinNT
#	Modification time:	15. 06. 2019 20:00

#	Program:	/corina/corina34_cracker 3.40 0067  02.08.2006

@<TRIPOS>MOLECULE
ASD01913015
  50   54    0    0    0
SMALL
NO_CHARGES


@<TRIPOS>ATOM
   1 C1            -0.1133     1.4039    -0.3560 C.ar    
   2 C2            -0.0648     0.0225    -0.2586 C.ar    
   3 C3            -1.2331    -0.7068    -0.1795 C.ar    
   4 C4            -2.4633    -0.0523    -0.1971 C.ar    
   5 C5            -2.5075     1.3372    -0.2946 C.ar    
   6 C6            -1.3342     2.0591    -0.3685 C.ar    
   7 F7             1.0332     2.1144    -0.4332 F       
   8 C8            -3.7225    -0.8326    -0.1127 C.2     
   9 N9            -4.9789    -0.3324    -0.1188 N.2     
  10 C10           -5.7715    -1.3711    -0.0275 C.2     
  11 O11           -4.9932    -2.4563     0.0307 O.3     
  12 N12           -3.8254    -2.1334    -0.0243 N.2     
  13 C13           -7.2779    -1.3472     0.0060 C.3     
  14 C14           -7.8280    -2.1458    -1.1779 C.3     
  15 C15           -9.3575    -2.0947    -1.1634 C.3     
  16 C16           -9.8734    -2.7316     0.1309 C.3     
  17 N17           -9.2364    -2.0629     1.2736 N.am    
  18 C18           -7.7702    -1.9756     1.3135 C.3     
  19 C19           -9.9827    -1.5396     2.2663 C.2     
  20 O20           -9.4450    -1.1025     3.2658 O.2     
  21 C21          -11.4499    -1.4970     2.1407 C.2     
  22 N22          -12.0765    -1.8097     1.0150 N.2     
  23 C23          -13.3719    -1.7278     1.0474 C.2     
  24 S24          -13.8837    -1.2053     2.6482 S.3     
  25 C25          -12.2554    -1.1415     3.1669 C.2     
  26 C26          -14.2762    -2.0265    -0.0844 C.ar    
  27 C27          -15.6572    -1.9021     0.0706 C.ar    
  28 C28          -16.4954    -2.1823    -0.9889 C.ar    
  29 C29          -15.9692    -2.5863    -2.2030 C.ar    
  30 C30          -14.6007    -2.7116    -2.3631 C.ar    
  31 C31          -13.7515    -2.4284    -1.3131 C.ar    
  32 H32            0.8890    -0.4839    -0.2451 H       
  33 H33           -1.1945    -1.7835    -0.1044 H       
  34 H34           -3.4588     1.8483    -0.3086 H       
  35 H35           -1.3675     3.1360    -0.4437 H       
  36 H36           -7.6269    -0.3165    -0.0568 H       
  37 H37           -7.4591    -1.7154    -2.1090 H       
  38 H38           -7.4985    -3.1820    -1.1015 H       
  39 H39           -9.6873    -1.0571    -1.2149 H       
  40 H40           -9.7480    -2.6441    -2.0200 H       
  41 H41          -10.9547    -2.6095     0.1924 H       
  42 H42           -9.6221    -3.7922     0.1416 H       
  43 H43           -7.3475    -2.9745     1.4207 H       
  44 H44           -7.4640    -1.3547     2.1554 H       
  45 H45          -11.9233    -0.8576     4.1545 H       
  46 H46          -16.0693    -1.5875     1.0181 H       
  47 H47          -17.5645    -2.0863    -0.8702 H       
  48 H48          -16.6295    -2.8051    -3.0291 H       
  49 H49          -14.1961    -3.0277    -3.3132 H       
  50 H50          -12.6834    -2.5263    -1.4395 H       
@<TRIPOS>BOND
   1    1    2 ar
   2    1    7 1
   3    1    6 ar
   4    2    3 ar
   5    2   32 1
   6    3    4 ar
   7    3   33 1
   8    4    5 ar
   9    4    8 1
  10    5    6 ar
  11    5   34 1
  12    6   35 1
  13    8    9 1
  14    8   12 2
  15    9   10 2
  16   10   11 1
  17   10   13 1
  18   11   12 1
  19   13   14 1
  20   13   18 1
  21   13   36 1
  22   14   15 1
  23   14   37 1
  24   14   38 1
  25   15   16 1
  26   15   39 1
  27   15   40 1
  28   16   17 1
  29   16   41 1
  30   16   42 1
  31   17   18 1
  32   17   19 am
  33   18   43 1
  34   18   44 1
  35   19   20 2
  36   19   21 1
  37   21   22 1
  38   21   25 2
  39   22   23 2
  40   23   24 1
  41   23   26 1
  42   24   25 1
  43   25   45 1
  44   26   27 ar
  45   26   31 ar
  46   27   28 ar
  47   27   46 1
  48   28   29 ar
  49   28   47 1
  50   29   30 ar
  51   29   48 1
  52   30   31 ar
  53   30   49 1
  54   31   50 1

#	End of record

