#	Name: ASD01150683
#	Creating user name:	WinNT
#	Creation time:	15. 06. 2019 19:04

#	Modifying user name:	WinNT
#	Modification time:	15. 06. 2019 19:04

#	Program:	/corina/corina34_cracker 3.40 0067  02.08.2006

@<TRIPOS>MOLECULE
ASD01150683
  45   48    0    0    0
SMALL
NO_CHARGES


@<TRIPOS>ATOM
   1 C1            -0.0221     1.5102    -0.0049 C.2     
   2 C2            -0.7545     1.3217     1.2986 C.3     
   3 C3             3.7165     3.4671    -0.0655 C.ar    
   4 C4             2.5715     4.2567    -0.1448 C.ar    
   5 C5             1.3015     3.6237    -0.1277 C.ar    
   6 C6             1.2609     2.2192    -0.0290 C.ar    
   7 C7             2.4684     1.5110     0.0464 C.ar    
   8 N8             3.6192     2.1345     0.0261 N.ar    
   9 C9             2.8754     5.6879    -0.2373 C.2     
  10 C10            4.1714     5.9640    -0.2295 C.2     
  11 S11            5.1400     4.4970    -0.1013 S.3     
  12 C12            4.3977     7.4702    -0.3288 C.3     
  13 C13            3.0420     8.0989     0.0495 C.3     
  14 C14            2.0609     6.9771    -0.3440 C.3     
  15 C15            2.4412     0.0081     0.1529 C.3     
  16 C16            0.0558     4.4163    -0.2108 C.ar    
  17 C17           -0.7856     4.2858    -1.3169 C.ar    
  18 C18           -1.9464     5.0278    -1.3880 C.ar    
  19 C19           -2.2771     5.9003    -0.3662 C.ar    
  20 C20           -1.4472     6.0347     0.7327 C.ar    
  21 C21           -0.2866     5.2941     0.8192 C.ar    
  22 S22           -3.7614     6.8446    -0.4653 S.o2    
  23 O23           -3.4985     7.9947     0.3269 O.2     
  24 O24           -4.0128     6.9571    -1.8593 O.2     
  25 C25           -5.0160     5.8002     0.3256 C.3     
  26 F26           -1.9788     0.6888     1.0583 F       
  27 F27            0.0178     0.5324     2.1575 F       
  28 F28           -0.9824     2.5689     1.8900 F       
  29 O29           -0.4917     1.0709    -1.0337 O.2     
  30 H30            5.1706     7.7847     0.3725 H       
  31 H31            4.6730     7.7461    -1.3467 H       
  32 H32            2.9915     8.3050     1.1187 H       
  33 H33            2.8550     9.0028    -0.5303 H       
  34 H34            1.7107     7.1209    -1.3662 H       
  35 H35            1.2178     6.9512     0.3464 H       
  36 H36            2.3601    -0.4254    -0.8439 H       
  37 H37            3.3593    -0.3393     0.6266 H       
  38 H38            1.5844    -0.2982     0.7531 H       
  39 H39           -0.5283     3.6057    -2.1154 H       
  40 H40           -2.5983     4.9278    -2.2432 H       
  41 H41           -1.7109     6.7177     1.5267 H       
  42 H42            0.3581     5.3966     1.6796 H       
  43 H43           -4.7269     5.6036     1.3580 H       
  44 H44           -5.9781     6.3122     0.3089 H       
  45 H45           -5.0970     4.8571    -0.2149 H       
@<TRIPOS>BOND
   1    1    2 1
   2    1    6 1
   3    1   29 2
   4    2   26 1
   5    2   27 1
   6    2   28 1
   7    3    4 ar
   8    3    8 ar
   9    3   11 1
  10    4    5 ar
  11    4    9 1
  12    5    6 ar
  13    5   16 1
  14    6    7 ar
  15    7    8 ar
  16    7   15 1
  17    9   10 2
  18    9   14 1
  19   10   11 1
  20   10   12 1
  21   12   13 1
  22   12   30 1
  23   12   31 1
  24   13   14 1
  25   13   32 1
  26   13   33 1
  27   14   34 1
  28   14   35 1
  29   15   36 1
  30   15   37 1
  31   15   38 1
  32   16   17 ar
  33   16   21 ar
  34   17   18 ar
  35   17   39 1
  36   18   19 ar
  37   18   40 1
  38   19   20 ar
  39   19   22 1
  40   20   21 ar
  41   20   41 1
  42   21   42 1
  43   22   23 2
  44   22   24 2
  45   22   25 1
  46   25   43 1
  47   25   44 1
  48   25   45 1

#	End of record

