#	Name: ASD08170052
#	Creating user name:	WinNT
#	Creation time:	15. 06. 2019 21:17

#	Modifying user name:	WinNT
#	Modification time:	15. 06. 2019 21:17

#	Program:	/corina/corina34_cracker 3.40 0067  02.08.2006

@<TRIPOS>MOLECULE
ASD08170052
  59   62    0    0    0
SMALL
NO_CHARGES


@<TRIPOS>ATOM
   1 N1            -0.0150     1.2583     0.0090 N.2     
   2 N2             0.0021    -0.0041     0.0020 N.2     
   3 C3             1.1271     1.8769     0.0014 C.2     
   4 S4             2.3826     0.7116    -0.0169 S.3     
   5 C5             1.1681    -0.5677    -0.0121 C.2     
   6 C6             1.4387    -2.0502    -0.0227 C.3     
   7 C7             1.5165    -2.5442    -1.4687 C.3     
   8 C8             2.1699    -6.2152    -3.4347 C.3     
   9 C9             2.2167    -6.5408    -4.9053 C.2     
  10 N10            3.2694    -6.5184    -5.6596 N.2     
  11 S11            0.8491    -7.0282    -5.9071 S.3     
  12 C12            1.9000    -7.1354    -7.2557 C.2     
  13 N13            3.1017    -6.8250    -6.8728 N.2     
  14 N14            1.5289    -7.4992    -8.5457 N.am    
  15 C15            2.4537    -7.5464    -9.5250 C.2     
  16 O16            3.6096    -7.2716    -9.2812 O.2     
  17 C17            2.0516    -7.9407   -10.9228 C.3     
  18 N18            1.3017     3.2566     0.0067 N.am    
  19 C19            0.2284     4.0717     0.0214 C.2     
  20 C20            0.4176     5.5667     0.0272 C.3     
  21 O21           -0.8897     3.6019     0.0299 O.2     
  22 C22            1.8986    -4.7206    -3.2516 C.3     
  23 C23            3.2622    -7.9149   -11.8199 C.ar    
  24 C24           -0.9288     6.2434     0.0438 C.ar    
  25 C25            4.0349    -9.0508   -11.9700 C.ar    
  26 C26           -1.5605     6.5546    -1.1459 C.ar    
  27 S27            1.8422    -4.3286    -1.4814 S.3     
  28 C28            5.1471    -9.0269   -12.7943 C.ar    
  29 C29            5.4839    -7.8646   -13.4673 C.ar    
  30 C30            4.7097    -6.7300   -13.3156 C.ar    
  31 C31            3.5962    -6.7567   -12.4967 C.ar    
  32 C32           -1.5342     6.5475     1.2483 C.ar    
  33 C33           -2.7715     7.1688     1.2633 C.ar    
  34 C34           -3.4008     7.4848     0.0712 C.ar    
  35 C35           -2.7956     7.1754    -1.1322 C.ar    
  36 F36            5.9035   -10.1366   -12.9415 F       
  37 F37           -3.3644     7.4661     2.4403 F       
  38 H38            2.3843    -2.2506     0.4811 H       
  39 H39            0.6334    -2.5702     0.4961 H       
  40 H40            0.5709    -2.3438    -1.9724 H       
  41 H41            2.3218    -2.0242    -1.9874 H       
  42 H42            1.3741    -6.7896    -2.9605 H       
  43 H43            3.1250    -6.4700    -2.9755 H       
  44 H44            0.6045    -7.7190    -8.7407 H       
  45 H45            1.6303    -8.9459   -10.9098 H       
  46 H46            1.3064    -7.2392   -11.2980 H       
  47 H47            2.1959     3.6323    -0.0001 H       
  48 H48            0.9817     5.8582     0.9132 H       
  49 H49            0.9643     5.8672    -0.8667 H       
  50 H50            2.6943    -4.1461    -3.7258 H       
  51 H51            0.9434    -4.4658    -3.7108 H       
  52 H52            3.7715    -9.9567   -11.4444 H       
  53 H53           -1.0885     6.3129    -2.0867 H       
  54 H54            6.3514    -7.8447   -14.1103 H       
  55 H55            4.9721    -5.8233   -13.8404 H       
  56 H56            2.9917    -5.8695   -12.3788 H       
  57 H57           -1.0426     6.3002     2.1776 H       
  58 H58           -4.3660     7.9691     0.0816 H       
  59 H59           -3.2863     7.4218    -2.0622 H       
@<TRIPOS>BOND
   1    1    2 1
   2    1    3 2
   3    2    5 2
   4    3    4 1
   5    3   18 1
   6    4    5 1
   7    5    6 1
   8    6    7 1
   9    6   38 1
  10    6   39 1
  11    7   27 1
  12    7   40 1
  13    7   41 1
  14    8    9 1
  15    8   22 1
  16    8   42 1
  17    8   43 1
  18    9   10 2
  19    9   11 1
  20   10   13 1
  21   11   12 1
  22   12   13 2
  23   12   14 1
  24   14   15 am
  25   14   44 1
  26   15   16 2
  27   15   17 1
  28   17   23 1
  29   17   45 1
  30   17   46 1
  31   18   19 am
  32   18   47 1
  33   19   20 1
  34   19   21 2
  35   20   24 1
  36   20   48 1
  37   20   49 1
  38   22   27 1
  39   22   50 1
  40   22   51 1
  41   23   25 ar
  42   23   31 ar
  43   24   32 ar
  44   24   26 ar
  45   25   28 ar
  46   25   52 1
  47   26   35 ar
  48   26   53 1
  49   28   29 ar
  50   28   36 1
  51   29   30 ar
  52   29   54 1
  53   30   31 ar
  54   30   55 1
  55   31   56 1
  56   32   33 ar
  57   32   57 1
  58   33   34 ar
  59   33   37 1
  60   34   35 ar
  61   34   58 1
  62   35   59 1

#	End of record

