#	Name: ASD02039407
#	Creating user name:	WinNT
#	Creation time:	15. 06. 2019 20:18

#	Modifying user name:	WinNT
#	Modification time:	15. 06. 2019 20:18

#	Program:	/corina/corina34_cracker 3.40 0067  02.08.2006

@<TRIPOS>MOLECULE
ASD02039407
  48   50    0    0    0
SMALL
NO_CHARGES


@<TRIPOS>ATOM
   1 C1            -0.1213     1.5193    -0.1785 C.ar    
   2 C2            -0.1111     0.1413    -0.0694 C.ar    
   3 C3             1.1694     2.2912    -0.0815 C.3     
   4 N4             1.8247     2.3133    -1.3915 N.am    
   5 C5             1.4059     3.2860    -2.4038 C.3     
   6 C6             2.8130     1.4388    -1.6655 C.2     
   7 C7             3.1756     0.4049    -0.6807 C.2     
   8 C8             4.1871    -0.5028    -0.7998 C.2     
   9 N9             2.5679     0.1855     0.5133 N.2     
  10 C10            3.1598    -0.8081     1.1106 C.2     
  11 N11            4.1702    -1.2594     0.3227 N.pl3   
  12 O12            3.4054     1.5033    -2.7258 O.2     
  13 C13            5.0781    -2.3669     0.6318 C.3     
  14 C14            2.5623     4.2427    -2.7011 C.3     
  15 C15            1.0104     2.5500    -3.6855 C.3     
  16 C16           -1.2930    -0.5713    -0.1582 C.ar    
  17 C17           -2.4891     0.0939    -0.3570 C.ar    
  18 C18           -2.5012     1.4799    -0.4670 C.ar    
  19 C19           -1.3124     2.1898    -0.3820 C.ar    
  20 F20           -3.6438    -0.6020    -0.4447 F       
  21 N21           -3.7126     2.1587    -0.6687 N.pl3   
  22 C22           -4.1671     3.2262     0.0371 C.2     
  23 C23           -4.6581     1.8731    -1.6193 C.2     
  24 C24           -5.6538     2.7657    -1.4596 C.2     
  25 N25           -5.3285     3.5783    -0.4434 N.2     
  26 C26           -6.9134     2.8414    -2.2834 C.3     
  27 H27            0.8220    -0.3801     0.0852 H       
  28 H28            0.9591     3.3122     0.2368 H       
  29 H29            1.8256     1.8120     0.6450 H       
  30 H30            0.5521     3.8526    -2.0320 H       
  31 H31            4.8703    -0.5994    -1.6306 H       
  32 H32            2.8927    -1.2073     2.0780 H       
  33 H33            4.6559    -3.2987     0.2554 H       
  34 H34            6.0436    -2.1881     0.1585 H       
  35 H35            5.2102    -2.4378     1.7114 H       
  36 H36            3.3833     3.6896    -3.1574 H       
  37 H37            2.2236     5.0205    -3.3855 H       
  38 H38            2.9039     4.6995    -1.7723 H       
  39 H39            0.2524     1.8014    -3.4554 H       
  40 H40            0.6096     3.2637    -4.4053 H       
  41 H41            1.8876     2.0607    -4.1089 H       
  42 H42           -1.2819    -1.6478    -0.0726 H       
  43 H43           -1.3187     3.2665    -0.4667 H       
  44 H44           -3.6538     3.7035     0.8588 H       
  45 H45           -4.6129     1.0842    -2.3555 H       
  46 H46           -7.6843     2.2211    -1.8264 H       
  47 H47           -7.2572     3.8748    -2.3273 H       
  48 H48           -6.7096     2.4832    -3.2925 H       
@<TRIPOS>BOND
   1    1    2 ar
   2    1    3 1
   3    1   19 ar
   4    2   16 ar
   5    2   27 1
   6    3    4 1
   7    3   28 1
   8    3   29 1
   9    4    5 1
  10    4    6 am
  11    5   14 1
  12    5   15 1
  13    5   30 1
  14    6    7 1
  15    6   12 2
  16    7    8 2
  17    7    9 1
  18    8   11 1
  19    8   31 1
  20    9   10 2
  21   10   11 1
  22   10   32 1
  23   11   13 1
  24   13   33 1
  25   13   34 1
  26   13   35 1
  27   14   36 1
  28   14   37 1
  29   14   38 1
  30   15   39 1
  31   15   40 1
  32   15   41 1
  33   16   17 ar
  34   16   42 1
  35   17   18 ar
  36   17   20 1
  37   18   19 ar
  38   18   21 1
  39   19   43 1
  40   21   22 1
  41   21   23 1
  42   22   25 2
  43   22   44 1
  44   23   24 2
  45   23   45 1
  46   24   25 1
  47   24   26 1
  48   26   46 1
  49   26   47 1
  50   26   48 1

#	End of record

