#	Name: ASD05250044
#	Creating user name:	WinNT
#	Creation time:	15. 06. 2019 20:58

#	Modifying user name:	WinNT
#	Modification time:	15. 06. 2019 20:58

#	Program:	/corina/corina34_cracker 3.40 0067  02.08.2006

@<TRIPOS>MOLECULE
ASD05250044
  55   57    0    0    0
SMALL
NO_CHARGES


@<TRIPOS>ATOM
   1 C1            -0.0160     1.3251     0.0093 C.ar    
   2 N2             0.0021    -0.0041     0.0020 N.ar    
   3 C3            -1.1217    -0.7076     0.0089 C.ar    
   4 C4            -2.3861     0.0300     0.0249 C.ar    
   5 C5            -2.3263     1.4459     0.0320 C.ar    
   6 N6            -1.1251     2.0372     0.0291 N.ar    
   7 N7            -3.5635    -0.5868     0.0324 N.ar    
   8 C8            -4.6693     0.1266     0.0463 C.ar    
   9 C9            -4.6161     1.5201     0.0534 C.ar    
  10 N10           -3.4606     2.1502     0.0462 N.ar    
  11 N11            1.1921     1.9958     0.0014 N.pl3   
  12 N12           -1.1002    -2.0851     0.0009 N.pl3   
  13 C13           -6.0061    -0.5691     0.0543 C.3     
  14 N14           -6.3960    -0.8934    -1.3201 N.pl3   
  15 C15           -6.0263    -2.1120    -1.8785 C.ar    
  16 C16           -7.1753     0.0662    -2.1063 C.3     
  17 C17           -6.3976    -2.4187    -3.1847 C.ar    
  18 C18           -6.0337    -3.6241    -3.7400 C.ar    
  19 C19           -5.2901    -4.5408    -2.9911 C.ar    
  20 C20           -4.9184    -4.2297    -1.6799 C.ar    
  21 C21           -5.2809    -3.0205    -1.1321 C.ar    
  22 C22           -4.8987    -5.8341    -3.5832 C.2     
  23 O23           -5.2230    -6.1036    -4.7237 O.2     
  24 N24           -4.1818    -6.7169    -2.8600 N.am    
  25 C25           -3.7931    -8.0012    -3.4479 C.3     
  26 C26           -2.5388    -8.5250    -2.7456 C.3     
  27 C27           -4.9155    -8.9922    -3.2767 C.2     
  28 O28           -5.9354    -8.6598    -2.7207 O.2     
  29 O29           -4.7822   -10.2442    -3.7420 O.3     
  30 C30           -1.3670    -7.5814    -3.0238 C.3     
  31 C31           -0.1315    -8.0972    -2.3320 C.2     
  32 O32           -0.1830    -9.1151    -1.6831 O.2     
  33 O33            1.0261    -7.4258    -2.4367 O.3     
  34 H34           -5.5340     2.0890     0.0649 H       
  35 H35            2.0239     1.4968    -0.0092 H       
  36 H36            1.2084     2.9657     0.0064 H       
  37 H37           -0.2527    -2.5568    -0.0100 H       
  38 H38           -1.9325    -2.5832     0.0061 H       
  39 H39           -5.9345    -1.4869     0.6378 H       
  40 H40           -6.7544     0.0869     0.4991 H       
  41 H41           -6.4984     0.7270    -2.6479 H       
  42 H42           -7.8038    -0.4712    -2.8163 H       
  43 H43           -7.8035     0.6569    -1.4395 H       
  44 H44           -6.9722    -1.7100    -3.7628 H       
  45 H45           -6.3227    -3.8617    -4.7531 H       
  46 H46           -4.3439    -4.9359    -1.0989 H       
  47 H47           -4.9937    -2.7794    -0.1193 H       
  48 H48           -3.9230    -6.5019    -1.9502 H       
  49 H49           -3.5858    -7.8669    -4.5096 H       
  50 H50           -2.7179    -8.5751    -1.6716 H       
  51 H51           -2.3009    -9.5202    -3.1211 H       
  52 H52           -5.5289   -10.8439    -3.6087 H       
  53 H53           -1.1879    -7.5312    -4.0978 H       
  54 H54           -1.6049    -6.5861    -2.6483 H       
  55 H55            1.7913    -7.7956    -1.9755 H       
@<TRIPOS>BOND
   1    1    2 ar
   2    1   11 1
   3    1    6 ar
   4    2    3 ar
   5    3    4 ar
   6    3   12 1
   7    4    5 ar
   8    4    7 ar
   9    5    6 ar
  10    5   10 ar
  11    7    8 ar
  12    8    9 ar
  13    8   13 1
  14    9   10 ar
  15    9   34 1
  16   11   35 1
  17   11   36 1
  18   12   37 1
  19   12   38 1
  20   13   14 1
  21   13   39 1
  22   13   40 1
  23   14   15 1
  24   14   16 1
  25   15   17 ar
  26   15   21 ar
  27   16   41 1
  28   16   42 1
  29   16   43 1
  30   17   18 ar
  31   17   44 1
  32   18   19 ar
  33   18   45 1
  34   19   20 ar
  35   19   22 1
  36   20   21 ar
  37   20   46 1
  38   21   47 1
  39   22   23 2
  40   22   24 am
  41   24   25 1
  42   24   48 1
  43   25   26 1
  44   25   27 1
  45   25   49 1
  46   26   30 1
  47   26   50 1
  48   26   51 1
  49   27   28 2
  50   27   29 1
  51   29   52 1
  52   30   31 1
  53   30   53 1
  54   30   54 1
  55   31   32 2
  56   31   33 1
  57   33   55 1

#	End of record

