#	Name: ASD06130002
#	Creating user name:	WinNT
#	Creation time:	15. 06. 2019 21:05

#	Modifying user name:	WinNT
#	Modification time:	15. 06. 2019 21:05

#	Program:	/corina/corina34_cracker 3.40 0067  02.08.2006

@<TRIPOS>MOLECULE
ASD06130002
  74   73    0    0    0
SMALL
NO_CHARGES


@<TRIPOS>ATOM
   1 O1             2.7390    -3.6441    -5.2347 O.3     
   2 C2             2.1776    -3.6228    -4.0156 C.2     
   3 O3             2.7290    -3.0489    -3.1065 O.2     
   4 C4             0.8596    -4.3149    -3.7808 C.3     
   5 C5             0.4453    -4.1403    -2.3184 C.3     
   6 C6            -0.8927    -4.8429    -2.0800 C.3     
   7 C7            -1.3070    -4.6683    -0.6175 C.3     
   8 C8            -2.7079    -5.2480    -0.4116 C.3     
   9 O9            -0.3790    -5.3540     0.2255 O.3     
  10 C10           -2.6730    -6.7378    -0.6365 C.2     
  11 S11           -3.2614    -4.9049     1.2814 S.3     
  12 C12           -4.9790    -5.4884     1.2754 C.3     
  13 C13           -5.6369    -5.1511     2.6149 C.3     
  14 N14           -5.7227    -3.6923     2.7647 N.3     
  15 C15           -7.0223    -5.7427     2.6571 C.2     
  16 H16           -5.0400    -5.5654     3.4274 H       
  17 O17           -7.9875    -5.0430     2.4341 O.2     
  18 N18           -7.1887    -7.0493     2.9427 N.am    
  19 C19           -8.5355    -7.6244     2.9837 C.3     
  20 C20           -8.4457    -9.0901     3.3224 C.2     
  21 O21           -9.5637    -9.8272     3.4155 O.3     
  22 O22           -7.3674    -9.6018     3.5103 O.2     
  23 C23           -3.4239    -7.2853    -1.5921 C.2     
  24 H24           -2.0397    -7.3618    -0.0234 H       
  25 C25           -3.3900    -8.7332    -1.8106 C.2     
  26 C26           -4.1499    -9.2873    -2.7777 C.2     
  27 C27           -4.1161   -10.7353    -2.9963 C.2     
  28 C28           -4.7839   -11.2709    -4.0180 C.2     
  29 H29           -2.7567    -9.3572    -1.1975 H       
  30 H30           -4.0572    -6.6613    -2.2052 H       
  31 H31           -4.7833    -8.6633    -3.3908 H       
  32 H32           -3.5500   -11.3689    -2.3296 H       
  33 H33           -4.6936   -12.3264    -4.2281 H       
  34 C34           -5.6648   -10.4036    -4.8799 C.3     
  35 C35           -5.1845   -10.4612    -6.3071 C.2     
  36 C36           -5.9999   -10.8454    -7.2576 C.2     
  37 H37           -5.6248   -11.0106    -8.2568 H       
  38 C38           -7.4614   -11.0568    -6.9569 C.3     
  39 C39           -8.3047   -10.1722    -7.8774 C.3     
  40 C40           -9.7885   -10.3869    -7.5720 C.3     
  41 C41          -10.6317    -9.5023    -8.4925 C.3     
  42 C42          -12.1155    -9.7169    -8.1871 C.3     
  43 H43           -4.1680   -10.1857    -6.5463 H       
  44 H44            3.5846    -3.1863    -5.3366 H       
  45 H45            0.0994    -3.8780    -4.4284 H       
  46 H46            0.9617    -5.3766    -4.0053 H       
  47 H47            1.2055    -4.5771    -1.6708 H       
  48 H48            0.3433    -3.0785    -2.0939 H       
  49 H49           -1.6529    -4.4060    -2.7276 H       
  50 H50           -0.7907    -5.9046    -2.3045 H       
  51 H51           -1.3120    -3.6079    -0.3654 H       
  52 H52           -3.3984    -4.7898    -1.1196 H       
  53 H53           -0.5802    -5.2859     1.1689 H       
  54 H54           -5.5258    -5.0000     0.4688 H       
  55 H55           -4.9955    -6.5677     1.1240 H       
  56 H56           -6.2715    -3.2842     2.0229 H       
  57 H57           -6.0947    -3.4429     3.6689 H       
  58 H58           -6.4167    -7.6089     3.1210 H       
  59 H59           -9.1265    -7.1117     3.7426 H       
  60 H60           -9.0114    -7.5049     2.0104 H       
  61 H61           -9.4557   -10.7627     3.6350 H       
  62 H62           -6.6922   -10.7638    -4.8275 H       
  63 H63           -5.6220    -9.3744    -4.5233 H       
  64 H64           -7.7188   -12.1029    -7.1224 H       
  65 H65           -7.6603   -10.7937    -5.9179 H       
  66 H66           -8.0473    -9.1261    -7.7118 H       
  67 H67           -8.1058   -10.4353    -8.9163 H       
  68 H68          -10.0459   -11.4330    -7.7376 H       
  69 H69           -9.9874   -10.1238    -6.5331 H       
  70 H70          -10.3744    -8.4562    -8.3269 H       
  71 H71          -10.4329    -9.7654    -9.5314 H       
  72 H72          -12.7163    -9.0868    -8.8429 H       
  73 H73          -12.3729   -10.7631    -8.3527 H       
  74 H74          -12.3144    -9.4539    -7.1482 H       
@<TRIPOS>BOND
   1    1    2 1
   2    1   44 1
   3    2    3 2
   4    2    4 1
   5    4    5 1
   6    4   45 1
   7    4   46 1
   8    5    6 1
   9    5   47 1
  10    5   48 1
  11    6    7 1
  12    6   49 1
  13    6   50 1
  14    7    8 1
  15    7    9 1
  16    7   51 1
  17    8   10 1
  18    8   11 1
  19    8   52 1
  20    9   53 1
  21   10   23 2
  22   10   24 1
  23   11   12 1
  24   12   13 1
  25   12   54 1
  26   12   55 1
  27   13   14 1
  28   13   15 1
  29   13   16 1
  30   14   56 1
  31   14   57 1
  32   15   17 2
  33   15   18 am
  34   18   19 1
  35   18   58 1
  36   19   20 1
  37   19   59 1
  38   19   60 1
  39   20   21 1
  40   20   22 2
  41   21   61 1
  42   23   25 1
  43   23   30 1
  44   25   26 2
  45   25   29 1
  46   26   27 1
  47   26   31 1
  48   27   28 2
  49   27   32 1
  50   28   33 1
  51   28   34 1
  52   34   35 1
  53   34   62 1
  54   34   63 1
  55   35   36 2
  56   35   43 1
  57   36   37 1
  58   36   38 1
  59   38   39 1
  60   38   64 1
  61   38   65 1
  62   39   40 1
  63   39   66 1
  64   39   67 1
  65   40   41 1
  66   40   68 1
  67   40   69 1
  68   41   42 1
  69   41   70 1
  70   41   71 1
  71   42   72 1
  72   42   73 1
  73   42   74 1

#	End of record

