#	Name: ASD03910111
#	Creating user name:	WinNT
#	Creation time:	15. 06. 2019 20:47

#	Modifying user name:	WinNT
#	Modification time:	15. 06. 2019 20:47

#	Program:	/corina/corina34_cracker 3.40 0067  02.08.2006

@<TRIPOS>MOLECULE
ASD03910111
  35   36    0    0    0
SMALL
NO_CHARGES


@<TRIPOS>ATOM
   1 C1            -0.0173     1.4248     0.0099 C.3     
   2 O2             0.0021    -0.0041     0.0020 O.3     
   3 C3             0.3338    -0.6208     1.1612 C.ar    
   4 C4             0.3724    -2.0240     1.2238 C.ar    
   5 C5             0.7140    -2.6535     2.4176 C.ar    
   6 C6             1.0156    -1.8854     3.5438 C.ar    
   7 C7             0.9736    -0.4857     3.4685 C.ar    
   8 C8             0.6414     0.1345     2.2865 C.ar    
   9 C9             1.3764    -2.5430     4.8070 C.2     
  10 O10            1.6384    -1.8753     5.7851 O.2     
  11 C11            0.0518    -2.8270     0.0294 C.2     
  12 O12           -0.2464    -2.2754    -1.0113 O.2     
  13 O13            0.0895    -4.1724     0.0921 O.3     
  14 O14            1.3233     1.9194    -0.0003 O.3     
  15 C15            1.9984     1.8453    -1.1751 C.ar    
  16 C16            3.3066     2.3091    -1.2532 C.ar    
  17 C17            3.9951     2.2358    -2.4431 C.ar    
  18 C18            3.3771     1.6936    -3.5737 C.ar    
  19 C19            2.0616     1.2280    -3.4907 C.ar    
  20 C20            1.3819     1.3006    -2.2956 C.ar    
  21 C21            4.1106     1.6136    -4.8505 C.2     
  22 O22            5.2538     2.0192    -4.9209 O.2     
  23 O23            3.5130     1.0906    -5.9392 O.3     
  24 H24           -0.5445     1.7859    -0.8732 H       
  25 H25           -0.5275     1.7763     0.9067 H       
  26 H26            0.7451    -3.7317     2.4725 H       
  27 H27            1.2071     0.1073     4.3404 H       
  28 H28            0.6154     1.2130     2.2338 H       
  29 H29            1.4084    -3.6210     4.8647 H       
  30 H30           -0.1284    -4.6559    -0.7165 H       
  31 H31            3.7833     2.7279    -0.3792 H       
  32 H32            5.0112     2.5970    -2.5032 H       
  33 H33            1.5804     0.8087    -4.3619 H       
  34 H34            0.3670     0.9373    -2.2295 H       
  35 H35            4.0338     1.0593    -6.7534 H       
@<TRIPOS>BOND
   1    1    2 1
   2    1   14 1
   3    1   24 1
   4    1   25 1
   5    2    3 1
   6    3    4 ar
   7    3    8 ar
   8    4    5 ar
   9    4   11 1
  10    5    6 ar
  11    5   26 1
  12    6    7 ar
  13    6    9 1
  14    7    8 ar
  15    7   27 1
  16    8   28 1
  17    9   10 2
  18    9   29 1
  19   11   12 2
  20   11   13 1
  21   13   30 1
  22   14   15 1
  23   15   16 ar
  24   15   20 ar
  25   16   17 ar
  26   16   31 1
  27   17   18 ar
  28   17   32 1
  29   18   19 ar
  30   18   21 1
  31   19   20 ar
  32   19   33 1
  33   20   34 1
  34   21   22 2
  35   21   23 1
  36   23   35 1

#	End of record

