#	Name: ASD03331298
#	Creating user name:	WinNT
#	Creation time:	15. 06. 2019 20:38

#	Modifying user name:	WinNT
#	Modification time:	15. 06. 2019 20:38

#	Program:	/corina/corina34_cracker 3.40 0067  02.08.2006

@<TRIPOS>MOLECULE
ASD03331298
  53   55    0    0    0
SMALL
NO_CHARGES


@<TRIPOS>ATOM
   1 N1             0.1524     1.1388    -0.3335 N.2     
   2 N2             0.1289    -0.2450    -0.0978 N.am    
   3 C3             1.3971    -0.6436     0.1558 C.2     
   4 C4             2.1999     0.4467     0.0862 C.2     
   5 C5             1.3981     1.5555    -0.2231 C.2     
   6 C6             3.6891     0.3897     0.3175 C.3     
   7 C7             1.9174    -2.0255     0.4666 C.3     
   8 C8             3.4414    -2.0043     0.2779 C.3     
   9 O9             3.9922    -0.8646     0.9433 O.3     
  10 C10           -0.9624    -1.0356    -0.1193 C.2     
  11 O11           -0.8552    -2.2254     0.1023 O.2     
  12 N12           -2.1728    -0.5064    -0.3867 N.am    
  13 C13            1.8694     2.9515    -0.3965 C.ar    
  14 C14            1.1995     4.0000     0.2358 C.ar    
  15 C15            1.6425     5.2988     0.0718 C.ar    
  16 C16            2.7492     5.5605    -0.7183 C.ar    
  17 C17            3.4182     4.5212    -1.3487 C.ar    
  18 C18            2.9856     3.2191    -1.1862 C.ar    
  19 F19            4.4970     4.7824    -2.1187 F       
  20 F20            3.1785     6.8317    -0.8762 F       
  21 F21            0.1194     3.7458     1.0065 F       
  22 C22           -4.4140    -0.7418    -1.2870 C.2     
  23 C23           -3.3590    -1.3657    -0.4102 C.3     
  24 C24           -3.9039    -1.5217     1.0110 C.3     
  25 C25           -4.3502    -0.1567     1.5387 C.3     
  26 O26           -4.4392     0.4606    -1.4433 O.2     
  27 N27           -5.3294    -1.5201    -1.8975 N.am    
  28 C28           -6.4193    -0.9076    -2.6611 C.3     
  29 C29           -5.0978    -2.4784     0.9972 C.3     
  30 C30           -2.8086    -2.0859     1.9181 C.3     
  31 H31            4.2131     0.4622    -0.6356 H       
  32 H32            3.9925     1.2094     0.9688 H       
  33 H33            1.6763    -2.2880     1.4967 H       
  34 H34            1.4708    -2.7502    -0.2143 H       
  35 H35            3.8718    -2.9132     0.6985 H       
  36 H36            3.6746    -1.9515    -0.7856 H       
  37 H37           -2.2584     0.4435    -0.5637 H       
  38 H38            1.1246     6.1109     0.5603 H       
  39 H39            3.5096     2.4103    -1.6737 H       
  40 H40           -3.0904    -2.3452    -0.8058 H       
  41 H41           -5.1305     0.2453     0.8925 H       
  42 H42           -4.7384    -0.2678     2.5512 H       
  43 H43           -3.4997     0.5249     1.5485 H       
  44 H44           -5.2667    -2.4858    -1.8312 H       
  45 H45           -7.0543    -1.6890    -3.0788 H       
  46 H46           -7.0113    -0.2715    -2.0031 H       
  47 H47           -6.0034    -0.3066    -3.4698 H       
  48 H48           -4.7661    -3.4690     0.6864 H       
  49 H49           -5.5284    -2.5365     1.9969 H       
  50 H50           -5.8497    -2.1112     0.2987 H       
  51 H51           -1.9581    -1.4044     1.9279 H       
  52 H52           -3.1968    -2.1971     2.9305 H       
  53 H53           -2.4907    -3.0584     1.5421 H       
@<TRIPOS>BOND
   1    1    2 1
   2    1    5 2
   3    2    3 1
   4    2   10 am
   5    3    4 2
   6    3    7 1
   7    4    5 1
   8    4    6 1
   9    5   13 1
  10    6    9 1
  11    6   31 1
  12    6   32 1
  13    7    8 1
  14    7   33 1
  15    7   34 1
  16    8    9 1
  17    8   35 1
  18    8   36 1
  19   10   11 2
  20   10   12 am
  21   12   23 1
  22   12   37 1
  23   13   14 ar
  24   13   18 ar
  25   14   15 ar
  26   14   21 1
  27   15   16 ar
  28   15   38 1
  29   16   17 ar
  30   16   20 1
  31   17   18 ar
  32   17   19 1
  33   18   39 1
  34   22   26 2
  35   22   27 am
  36   22   23 1
  37   23   24 1
  38   23   40 1
  39   24   25 1
  40   24   29 1
  41   24   30 1
  42   25   41 1
  43   25   42 1
  44   25   43 1
  45   27   28 1
  46   27   44 1
  47   28   45 1
  48   28   46 1
  49   28   47 1
  50   29   48 1
  51   29   49 1
  52   29   50 1
  53   30   51 1
  54   30   52 1
  55   30   53 1

#	End of record

