#	Name: ASD06020195
#	Creating user name:	WinNT
#	Creation time:	15. 06. 2019 21:04

#	Modifying user name:	WinNT
#	Modification time:	15. 06. 2019 21:04

#	Program:	/corina/corina34_cracker 3.40 0067  02.08.2006

@<TRIPOS>MOLECULE
ASD06020195
  11   11    0    0    0
SMALL
NO_CHARGES


@<TRIPOS>ATOM
   1 C1            -0.0167     1.3817     0.0096 C.ar    
   2 C2             0.0021    -0.0041     0.0020 C.ar    
   3 C3             1.2242    -0.6625    -0.0132 C.ar    
   4 C4             2.3841     0.0989    -0.0201 C.ar    
   5 C5             2.2861     1.4766    -0.0118 C.ar    
   6 N6             1.1084     2.0708     0.0026 N.ar    
   7 I7             1.3149    -2.7555    -0.0246 I       
   8 F8            -1.1531    -0.7046     0.0097 F       
   9 Cl9           -1.5369     2.2199     0.0214 Cl      
  10 H10            3.3521    -0.3800    -0.0316 H       
  11 H11            3.1851     2.0750    -0.0172 H       
@<TRIPOS>BOND
   1    1    2 ar
   2    1    6 ar
   3    1    9 1
   4    2    3 ar
   5    2    8 1
   6    3    4 ar
   7    3    7 1
   8    4    5 ar
   9    4   10 1
  10    5    6 ar
  11    5   11 1

#	End of record

