#	Name: ASD02508064
#	Creating user name:	WinNT
#	Creation time:	15. 06. 2019 20:23

#	Modifying user name:	WinNT
#	Modification time:	15. 06. 2019 20:23

#	Program:	/corina/corina34_cracker 3.40 0067  02.08.2006

@<TRIPOS>MOLECULE
ASD02508064
  41   43    0    0    0
SMALL
NO_CHARGES


@<TRIPOS>ATOM
   1 C1            -0.0118     1.3910    -0.0072 C.ar    
   2 C2             0.0073     0.0099     0.1096 C.ar    
   3 C3             1.1824     2.1001    -0.1345 C.ar    
   4 C4             2.3896     1.4197    -0.1436 C.ar    
   5 C5             2.4043     0.0376    -0.0261 C.ar    
   6 C6             1.2116    -0.6653     0.1000 C.ar    
   7 N7            -1.0409     2.3355    -0.0360 N.am    
   8 C8            -0.4715     3.5498    -0.1691 C.2     
   9 O9             0.8625     3.4140    -0.2296 O.3     
  10 N10            3.6223    -0.6505    -0.0351 N.am    
  11 S11            4.9592     0.0231     0.6729 S.o2    
  12 C12            4.5803     0.2669     2.3763 C.ar    
  13 C13            4.8523    -0.7345     3.2921 C.ar    
  14 O14           -1.0733     4.6047    -0.2295 O.2     
  15 O15            5.9790    -0.9653     0.6261 O.2     
  16 O16            5.1047     1.3175     0.1049 O.2     
  17 C17            1.2331    -2.1668     0.2273 C.3     
  18 C18           -2.4760     2.0570     0.0604 C.3     
  19 C19            4.0175     1.4610     2.7923 C.ar    
  20 C20            3.7181     1.6594     4.1235 C.ar    
  21 C21            3.9847     0.6502     5.0543 C.ar    
  22 C22            4.5583    -0.5515     4.6268 C.ar    
  23 C23            3.6682     0.8538     6.4770 C.2     
  24 O24            3.1751     1.8987     6.8449 O.2     
  25 C25            3.9570    -0.2363     7.4767 C.3     
  26 H26           -0.9186    -0.5372     0.2085 H       
  27 H27            3.3170     1.9643    -0.2423 H       
  28 H28            3.6837    -1.5223    -0.4561 H       
  29 H29            5.2956    -1.6618     2.9605 H       
  30 H30            1.2948    -2.4413     1.2804 H       
  31 H31            0.3215    -2.5811    -0.2033 H       
  32 H32            2.0986    -2.5640    -0.3030 H       
  33 H33           -2.7802     2.0754     1.1069 H       
  34 H34           -3.0310     2.8147    -0.4928 H       
  35 H35           -2.6844     1.0738    -0.3614 H       
  36 H36            3.8126     2.2395     2.0723 H       
  37 H37            3.2793     2.5918     4.4467 H       
  38 H38            4.7668    -1.3357     5.3396 H       
  39 H39            4.3956    -1.0925     6.9641 H       
  40 H40            4.6552     0.1346     8.2271 H       
  41 H41            3.0293    -0.5394     7.9619 H       
@<TRIPOS>BOND
   1    1    2 ar
   2    1    3 ar
   3    1    7 1
   4    2    6 ar
   5    2   26 1
   6    3    4 ar
   7    3    9 1
   8    4    5 ar
   9    4   27 1
  10    5    6 ar
  11    5   10 1
  12    6   17 1
  13    7    8 am
  14    7   18 1
  15    8    9 1
  16    8   14 2
  17   10   11 am
  18   10   28 1
  19   11   12 1
  20   11   15 2
  21   11   16 2
  22   12   13 ar
  23   12   19 ar
  24   13   22 ar
  25   13   29 1
  26   17   30 1
  27   17   31 1
  28   17   32 1
  29   18   33 1
  30   18   34 1
  31   18   35 1
  32   19   20 ar
  33   19   36 1
  34   20   21 ar
  35   20   37 1
  36   21   22 ar
  37   21   23 1
  38   22   38 1
  39   23   24 2
  40   23   25 1
  41   25   39 1
  42   25   40 1
  43   25   41 1

#	End of record

