#	Name: ASD03490078
#	Creating user name:	WinNT
#	Creation time:	15. 06. 2019 20:42

#	Modifying user name:	WinNT
#	Modification time:	15. 06. 2019 20:42

#	Program:	/corina/corina34_cracker 3.40 0067  02.08.2006

@<TRIPOS>MOLECULE
ASD03490078
  71   72    0    0    0
SMALL
NO_CHARGES


@<TRIPOS>ATOM
   1 C1            -0.0187     1.5251     0.0104 C.3     
   2 C2             0.0021    -0.0041     0.0020 C.3     
   3 O3             0.8082    -0.4860     1.0794 O.3     
   4 C4             2.1717    -0.0453     1.0179 C.3     
   5 C5             2.1673     1.4674     0.9218 C.2     
   6 O6             1.3496     2.0248     0.0000 O.3     
   7 C7             2.8097    -0.6079    -0.2585 C.3     
   8 C8             0.5571    -0.5127    -1.3282 C.3     
   9 C9             2.0228    -0.0930    -1.4684 C.3     
  10 O10            2.1085     1.3324    -1.5227 O.3     
  11 O11            2.9001    -0.4782     2.1970 O.3     
  12 C12            2.3906    -0.1315     3.3895 C.2     
  13 C13            3.0918    -0.5453     4.6576 C.3     
  14 O14            1.3698     0.5124     3.4461 O.2     
  15 C15            2.3094    -0.0265     5.8657 C.3     
  16 C16            3.0213    -0.4466     7.1531 C.3     
  17 C17            2.2388     0.0722     8.3612 C.3     
  18 C18            2.9507    -0.3479     9.6487 C.3     
  19 O19            2.8642     2.1462     1.6383 O.2     
  20 C20           -0.7334     2.0193     1.2697 C.3     
  21 O21           -2.0741     1.5251     1.2815 O.3     
  22 C22           -0.7537     3.5492     1.2774 C.3     
  23 O23           -1.3255     4.0193     2.5265 O.3     
  24 C24           -1.4158     5.3482     2.6933 C.2     
  25 C25           -1.9986     5.9101     3.9644 C.3     
  26 O26           -1.0299     6.0937     1.8244 O.2     
  27 C27           -1.9858     7.4387     3.8992 C.3     
  28 C28           -2.5775     8.0092     5.1896 C.3     
  29 C29           -2.5647     9.5377     5.1244 C.3     
  30 C30           -3.1564    10.1082     6.4149 C.3     
  31 N31            0.4623    -1.9741    -1.3693 N.am    
  32 O32            0.4244    -1.9769    -3.5875 O.2     
  33 C33            0.4010    -2.6123    -2.5547 C.2     
  34 C34            0.3034    -4.1156    -2.5970 C.3     
  35 H35           -0.5449     1.8867    -0.8730 H       
  36 H36           -1.0151    -0.3778     0.1193 H       
  37 H37            3.8453    -0.2749    -0.3272 H       
  38 H38            2.7741    -1.6971    -0.2357 H       
  39 H39           -0.0218    -0.0889    -2.1487 H       
  40 H40            2.4382    -0.5192    -2.3816 H       
  41 H41            3.0112     1.6693    -1.6057 H       
  42 H42            3.1501    -1.6329     4.7022 H       
  43 H43            4.0982    -0.1268     4.6695 H       
  44 H44            2.2511     1.0611     5.8210 H       
  45 H45            1.3030    -0.4450     5.8538 H       
  46 H46            3.0795    -1.5342     7.1978 H       
  47 H47            4.0276    -0.0281     7.1650 H       
  48 H48            2.1806     1.1598     8.3165 H       
  49 H49            1.2324    -0.3463     8.3493 H       
  50 H50            3.9571     0.0706     9.6606 H       
  51 H51            2.3933     0.0217    10.5093 H       
  52 H52            3.0089    -1.4354     9.6933 H       
  53 H53           -0.2054     1.6585     2.1524 H       
  54 H54           -2.6040     1.8072     0.5233 H       
  55 H55            0.2641     3.9266     1.1789 H       
  56 H56           -1.3568     3.9087     0.4436 H       
  57 H57           -3.0244     5.5599     4.0797 H       
  58 H58           -1.4035     5.5778     4.8150 H       
  59 H59           -0.9601     7.7888     3.7839 H       
  60 H60           -2.5810     7.7710     3.0486 H       
  61 H61           -3.6033     7.6590     5.3049 H       
  62 H62           -1.9824     7.6768     6.0402 H       
  63 H63           -1.5390     9.8879     5.0091 H       
  64 H64           -3.1599     9.8701     4.2738 H       
  65 H65           -4.1822     9.7581     6.5302 H       
  66 H66           -2.5613     9.7759     7.2654 H       
  67 H67           -3.1473    11.1972     6.3684 H       
  68 H68            0.4436    -2.4823    -0.5433 H       
  69 H69           -0.7455    -4.4119    -2.5897 H       
  70 H70            0.7791    -4.4851    -3.5054 H       
  71 H71            0.8061    -4.5369    -1.7264 H       
@<TRIPOS>BOND
   1    1    2 1
   2    1    6 1
   3    1   20 1
   4    1   35 1
   5    2    3 1
   6    2    8 1
   7    2   36 1
   8    3    4 1
   9    4    5 1
  10    4    7 1
  11    4   11 1
  12    5    6 1
  13    5   19 2
  14    7    9 1
  15    7   37 1
  16    7   38 1
  17    8    9 1
  18    8   31 1
  19    8   39 1
  20    9   10 1
  21    9   40 1
  22   10   41 1
  23   11   12 1
  24   12   13 1
  25   12   14 2
  26   13   15 1
  27   13   42 1
  28   13   43 1
  29   15   16 1
  30   15   44 1
  31   15   45 1
  32   16   17 1
  33   16   46 1
  34   16   47 1
  35   17   18 1
  36   17   48 1
  37   17   49 1
  38   18   50 1
  39   18   51 1
  40   18   52 1
  41   20   21 1
  42   20   22 1
  43   20   53 1
  44   21   54 1
  45   22   23 1
  46   22   55 1
  47   22   56 1
  48   23   24 1
  49   24   25 1
  50   24   26 2
  51   25   27 1
  52   25   57 1
  53   25   58 1
  54   27   28 1
  55   27   59 1
  56   27   60 1
  57   28   29 1
  58   28   61 1
  59   28   62 1
  60   29   30 1
  61   29   63 1
  62   29   64 1
  63   30   65 1
  64   30   66 1
  65   30   67 1
  66   31   33 am
  67   31   68 1
  68   32   33 2
  69   33   34 1
  70   34   69 1
  71   34   70 1
  72   34   71 1

#	End of record

