#	Name: ASD01883711
#	Creating user name:	WinNT
#	Creation time:	15. 06. 2019 19:46

#	Modifying user name:	WinNT
#	Modification time:	15. 06. 2019 19:46

#	Program:	/corina/corina34_cracker 3.40 0067  02.08.2006

@<TRIPOS>MOLECULE
ASD01883711
  53   56    0    0    0
SMALL
NO_CHARGES


@<TRIPOS>ATOM
   1 C1             0.6165     2.0415    -0.0132 C.2     
   2 C2             0.4696     0.6747     0.2638 C.2     
   3 C3            -0.8021     0.1829     0.6248 C.2     
   4 C4            -1.8659     1.0041     0.7050 C.2     
   5 N5            -1.7679     2.3399     0.4436 N.pl3   
   6 C6            -0.5658     2.8991     0.0928 C.2     
   7 C7            -2.6886     3.3552     0.4578 C.2     
   8 C8            -2.0385     4.4873     0.1149 C.2     
   9 N9            -0.7525     4.1921    -0.1017 N.2     
  10 C10           -4.1526     3.2307     0.7929 C.3     
  11 C11           -4.9585     3.0632    -0.4968 C.3     
  12 C12            1.6301    -0.2372     0.1781 C.ar    
  13 C13            2.1078    -0.8717     1.3265 C.ar    
  14 C14            3.1900    -1.7212     1.2432 C.ar    
  15 C15            3.8059    -1.9465     0.0191 C.ar    
  16 C16            3.3338    -1.3165    -1.1270 C.ar    
  17 C17            2.2478    -0.4706    -1.0527 C.ar    
  18 F18           -4.5336     1.9104    -1.1659 F       
  19 F19           -6.3176     2.9476    -0.1858 F       
  20 F20           -4.7613     4.1784    -1.3181 F       
  21 O21            4.8724    -2.7841    -0.0586 O.3     
  22 C22            5.2309    -3.4901     1.1309 C.3     
  23 C23            5.9716    -4.7757     0.7574 C.3     
  24 C24            6.3554    -5.5316     2.0310 C.3     
  25 C25            7.2637    -4.6517     2.8921 C.3     
  26 C26            6.5231    -3.3660     3.2657 C.3     
  27 C27            6.1392    -2.6102     1.9921 C.3     
  28 Cl28           4.1080    -1.6015    -2.6545 Cl      
  29 C29            7.6476    -5.4075     4.1658 C.3     
  30 O30            8.4452    -4.3245     2.1580 O.3     
  31 C31            1.8887     2.5846    -0.3836 C.1     
  32 N32            2.8980     3.0154    -0.6774 N.1     
  33 H33           -0.9244    -0.8684     0.8398 H       
  34 H34           -2.8251     0.5936     0.9840 H       
  35 H35           -2.4823     5.4685     0.0329 H       
  36 H36           -4.3062     2.3618     1.4328 H       
  37 H37           -4.4837     4.1289     1.3141 H       
  38 H38            1.6301    -0.6967     2.2791 H       
  39 H39            3.5598    -2.2121     2.1312 H       
  40 H40            1.8811     0.0183    -1.9431 H       
  41 H41            4.3297    -3.7397     1.6910 H       
  42 H42            5.3245    -5.4027     0.1439 H       
  43 H43            6.8728    -4.5262     0.1974 H       
  44 H44            5.4542    -5.7812     2.5910 H       
  45 H45            6.8831    -6.4475     1.7649 H       
  46 H46            5.6218    -3.6156     3.8257 H       
  47 H47            7.1702    -2.7391     3.8792 H       
  48 H48            7.0404    -2.3606     1.4321 H       
  49 H49            5.6115    -1.6943     2.2582 H       
  50 H50            8.1753    -6.3234     3.8996 H       
  51 H51            8.2947    -4.7806     4.7793 H       
  52 H52            6.7464    -5.6571     4.7258 H       
  53 H53            9.0684    -3.7671     2.6437 H       
@<TRIPOS>BOND
   1    1    2 2
   2    1   31 1
   3    1    6 1
   4    2    3 1
   5    2   12 1
   6    3    4 2
   7    3   33 1
   8    4    5 1
   9    4   34 1
  10    5    6 1
  11    5    7 1
  12    6    9 2
  13    7    8 2
  14    7   10 1
  15    8    9 1
  16    8   35 1
  17   10   11 1
  18   10   36 1
  19   10   37 1
  20   11   18 1
  21   11   19 1
  22   11   20 1
  23   12   13 ar
  24   12   17 ar
  25   13   14 ar
  26   13   38 1
  27   14   15 ar
  28   14   39 1
  29   15   16 ar
  30   15   21 1
  31   16   17 ar
  32   16   28 1
  33   17   40 1
  34   21   22 1
  35   22   23 1
  36   22   27 1
  37   22   41 1
  38   23   24 1
  39   23   42 1
  40   23   43 1
  41   24   25 1
  42   24   44 1
  43   24   45 1
  44   25   26 1
  45   25   29 1
  46   25   30 1
  47   26   27 1
  48   26   46 1
  49   26   47 1
  50   27   48 1
  51   27   49 1
  52   29   50 1
  53   29   51 1
  54   29   52 1
  55   30   53 1
  56   31   32 3

#	End of record

