#	Name: ASD03082037
#	Creating user name:	WinNT
#	Creation time:	15. 06. 2019 20:27

#	Modifying user name:	WinNT
#	Modification time:	15. 06. 2019 20:27

#	Program:	/corina/corina34_cracker 3.40 0067  02.08.2006

@<TRIPOS>MOLECULE
ASD03082037
  69   72    0    0    0
SMALL
NO_CHARGES


@<TRIPOS>ATOM
   1 C1             0.0698     1.2488    -2.4504 C.3     
   2 C2             0.1637    -0.2774    -2.3874 C.3     
   3 N3             1.3806    -0.7231    -3.0779 N.3     
   4 C4             2.5849    -0.1876    -2.4304 C.3     
   5 C5             2.5633     1.3413    -2.4947 C.3     
   6 C6             1.3078     1.8593    -1.7877 C.3     
   7 C7             3.8074     1.8994    -1.8007 C.3     
   8 O8             3.8470     3.3416    -1.9645 O.3     
   9 C9             4.8876     3.9921    -1.4080 C.2     
  10 C10            4.9937     5.4578    -1.5340 C.ar    
  11 O11            5.7385     3.3713    -0.8024 O.2     
  12 C12            1.4336    -2.1890    -3.1580 C.3     
  13 C13            0.3010    -2.6919    -4.0553 C.3     
  14 C14            0.3561    -4.2187    -4.1386 C.3     
  15 C15           -0.7765    -4.7217    -5.0359 C.3     
  16 C16           -0.7214    -6.2484    -5.1193 C.3     
  17 O17           -1.7792    -6.7182    -5.9573 O.3     
  18 C18           -1.8728    -8.0621    -6.1381 C.ar    
  19 C19           -2.8762    -8.5869    -6.9395 C.ar    
  20 C20           -2.9693    -9.9530    -7.1224 C.ar    
  21 C21           -2.0626   -10.7977    -6.5068 C.ar    
  22 C22           -1.0611   -10.2762    -5.7071 C.ar    
  23 C23           -0.9615    -8.9103    -5.5261 C.ar    
  24 C24            4.0959     6.1603    -2.3387 C.ar    
  25 C25            4.1996     7.5312    -2.4523 C.ar    
  26 C26            5.1910     8.2181    -1.7718 C.ar    
  27 C27            6.0886     7.5399    -0.9712 C.ar    
  28 C28            5.9972     6.1576    -0.8388 C.ar    
  29 C29            6.9583     5.4257     0.0193 C.ar    
  30 C30            8.3293     5.5453    -0.2055 C.ar    
  31 C31            9.2195     4.8617     0.5972 C.ar    
  32 C32            8.7542     4.0586     1.6231 C.ar    
  33 C33            7.3952     3.9360     1.8509 C.ar    
  34 C34            6.4955     4.6193     1.0585 C.ar    
  35 Cl35          -2.1821   -12.5141    -6.7377 Cl      
  36 H36            0.0198     1.5677    -3.4916 H       
  37 H37           -0.8254     1.5804    -1.9243 H       
  38 H38            0.1997    -0.5963    -1.3457 H       
  39 H39           -0.7094    -0.7152    -2.8712 H       
  40 H40            2.6096    -0.5069    -1.3885 H       
  41 H41            3.4704    -0.5603    -2.9454 H       
  42 H42            2.5526     1.6616    -3.5366 H       
  43 H43            1.2661     2.9455    -1.8687 H       
  44 H44            1.3371     1.5723    -0.7366 H       
  45 H45            3.7715     1.6552    -0.7390 H       
  46 H46            4.6998     1.4586    -2.2450 H       
  47 H47            2.3921    -2.4956    -3.5765 H       
  48 H48            1.3211    -2.6116    -2.1596 H       
  49 H49           -0.6576    -2.3853    -3.6367 H       
  50 H50            0.4134    -2.2693    -5.0536 H       
  51 H51            1.3147    -4.5253    -4.5572 H       
  52 H52            0.2437    -4.6414    -3.1402 H       
  53 H53           -1.7351    -4.4150    -4.6173 H       
  54 H54           -0.6641    -4.2990    -6.0343 H       
  55 H55            0.2372    -6.5550    -5.5378 H       
  56 H56           -0.8338    -6.6711    -4.1209 H       
  57 H57           -3.5843    -7.9279    -7.4198 H       
  58 H58           -3.7505   -10.3619    -7.7459 H       
  59 H59           -0.3543   -10.9371    -5.2275 H       
  60 H60           -0.1797    -8.5035    -4.9018 H       
  61 H61            3.3205     5.6310    -2.8725 H       
  62 H62            3.5035     8.0722    -3.0762 H       
  63 H63            5.2628     9.2914    -1.8681 H       
  64 H64            6.8594     8.0828    -0.4443 H       
  65 H65            8.6936     6.1714    -1.0065 H       
  66 H66           10.2815     4.9535     0.4241 H       
  67 H67            9.4547     3.5249     2.2483 H       
  68 H68            7.0378     3.3073     2.6531 H       
  69 H69            5.4348     4.5228     1.2373 H       
@<TRIPOS>BOND
   1    1    2 1
   2    1    6 1
   3    1   36 1
   4    1   37 1
   5    2    3 1
   6    2   38 1
   7    2   39 1
   8    3    4 1
   9    3   12 1
  10    4    5 1
  11    4   40 1
  12    4   41 1
  13    5    6 1
  14    5    7 1
  15    5   42 1
  16    6   43 1
  17    6   44 1
  18    7    8 1
  19    7   45 1
  20    7   46 1
  21    8    9 1
  22    9   10 1
  23    9   11 2
  24   10   24 ar
  25   10   28 ar
  26   12   13 1
  27   12   47 1
  28   12   48 1
  29   13   14 1
  30   13   49 1
  31   13   50 1
  32   14   15 1
  33   14   51 1
  34   14   52 1
  35   15   16 1
  36   15   53 1
  37   15   54 1
  38   16   17 1
  39   16   55 1
  40   16   56 1
  41   17   18 1
  42   18   19 ar
  43   18   23 ar
  44   19   20 ar
  45   19   57 1
  46   20   21 ar
  47   20   58 1
  48   21   22 ar
  49   21   35 1
  50   22   23 ar
  51   22   59 1
  52   23   60 1
  53   24   25 ar
  54   24   61 1
  55   25   26 ar
  56   25   62 1
  57   26   27 ar
  58   26   63 1
  59   27   28 ar
  60   27   64 1
  61   28   29 1
  62   29   30 ar
  63   29   34 ar
  64   30   31 ar
  65   30   65 1
  66   31   32 ar
  67   31   66 1
  68   32   33 ar
  69   32   67 1
  70   33   34 ar
  71   33   68 1
  72   34   69 1

#	End of record

