#	Name: ASD01881267
#	Creating user name:	WinNT
#	Creation time:	15. 06. 2019 19:42

#	Modifying user name:	WinNT
#	Modification time:	15. 06. 2019 19:42

#	Program:	/corina/corina34_cracker 3.40 0067  02.08.2006

@<TRIPOS>MOLECULE
ASD01881267
  54   57    0    0    0
SMALL
NO_CHARGES


@<TRIPOS>ATOM
   1 C1            -0.0682    -0.0185     0.0138 C.1     
   2 C2            -0.0716     1.4135     0.0199 C.ar    
   3 C3             0.3639     2.1186    -1.1052 C.ar    
   4 C4             0.3597     3.4953    -1.0982 C.ar    
   5 C5            -0.0790     4.1864     0.0313 C.ar    
   6 C6            -0.5139     3.4837     1.1551 C.ar    
   7 C7            -0.5157     2.1070     1.1488 C.ar    
   8 N8            -0.0656    -1.1545     0.0090 N.1     
   9 C9            -0.7543     7.7691    -0.8949 C.ar    
  10 C10           -0.7774     6.3899    -0.9380 C.ar    
  11 C11           -0.0824     5.6693     0.0376 C.ar    
  12 C12            0.6090     6.3851     1.0198 C.ar    
  13 C13            0.5790     7.7640     0.9887 C.ar    
  14 N14           -0.0892     8.4059     0.0495 N.ar    
  15 C15           -1.5405     5.6713    -2.0208 C.3     
  16 N16           -2.7686     5.1039    -1.4584 N.pl3   
  17 C17           -6.6549     2.5123    -4.5719 C.2     
  18 N18           -7.5627     2.1767    -3.6393 N.am    
  19 C19           -7.0900     2.6427    -2.3307 C.3     
  20 C20           -5.7623     3.3148    -2.5779 C.ar    
  21 C21           -4.8559     3.9351    -1.7552 C.ar    
  22 C22           -3.6881     4.4746    -2.2902 C.ar    
  23 C23           -3.4417     4.3842    -3.6577 C.ar    
  24 C24           -4.3484     3.7635    -4.4857 C.ar    
  25 C25           -5.5220     3.2204    -3.9530 C.ar    
  26 O26           -6.7529     2.2620    -5.7578 O.2     
  27 C27           -8.8179     1.4635    -3.8884 C.3     
  28 C28           -8.5803    -0.0433    -3.7706 C.3     
  29 C29           -9.8912    -0.7882    -4.0307 C.3     
  30 C30           -9.6536    -2.2950    -3.9129 C.3     
  31 H31            0.7039     1.5838    -1.9797 H       
  32 H32            0.6965     4.0405    -1.9676 H       
  33 H33           -0.8533     4.0200     2.0290 H       
  34 H34           -0.8563     1.5632     2.0176 H       
  35 H35           -1.2845     8.3346    -1.6469 H       
  36 H36            1.1580     5.8661     1.7916 H       
  37 H37            1.1100     8.3256     1.7431 H       
  38 H38           -1.7951     6.3746    -2.8137 H       
  39 H39           -0.9242     4.8705    -2.4294 H       
  40 H40           -2.9402     5.1673    -0.5058 H       
  41 H41           -7.7981     3.3558    -1.9086 H       
  42 H42           -6.9618     1.7967    -1.6555 H       
  43 H43           -5.0475     4.0049    -0.6946 H       
  44 H44           -2.5357     4.8033    -4.0699 H       
  45 H45           -4.1541     3.6960    -5.5459 H       
  46 H46           -9.5630     1.7723    -3.1551 H       
  47 H47           -9.1761     1.6976    -4.8909 H       
  48 H48           -7.8353    -0.3521    -4.5039 H       
  49 H49           -8.2222    -0.2774    -2.7681 H       
  50 H50          -10.6363    -0.4794    -3.2975 H       
  51 H51          -10.2494    -0.5541    -5.0333 H       
  52 H52           -9.2955    -2.5291    -2.9104 H       
  53 H53          -10.5875    -2.8257    -4.0983 H       
  54 H54           -8.9086    -2.6038    -4.6462 H       
@<TRIPOS>BOND
   1    1    2 1
   2    1    8 3
   3    2    3 ar
   4    2    7 ar
   5    3    4 ar
   6    3   31 1
   7    4    5 ar
   8    4   32 1
   9    5    6 ar
  10    5   11 1
  11    6    7 ar
  12    6   33 1
  13    7   34 1
  14    9   10 ar
  15    9   14 ar
  16    9   35 1
  17   10   11 ar
  18   10   15 1
  19   11   12 ar
  20   12   13 ar
  21   12   36 1
  22   13   14 ar
  23   13   37 1
  24   15   16 1
  25   15   38 1
  26   15   39 1
  27   16   22 1
  28   16   40 1
  29   17   18 am
  30   17   25 1
  31   17   26 2
  32   18   19 1
  33   18   27 1
  34   19   20 1
  35   19   41 1
  36   19   42 1
  37   20   21 ar
  38   20   25 ar
  39   21   22 ar
  40   21   43 1
  41   22   23 ar
  42   23   24 ar
  43   23   44 1
  44   24   25 ar
  45   24   45 1
  46   27   28 1
  47   27   46 1
  48   27   47 1
  49   28   29 1
  50   28   48 1
  51   28   49 1
  52   29   30 1
  53   29   50 1
  54   29   51 1
  55   30   52 1
  56   30   53 1
  57   30   54 1

#	End of record

