#	Name: ASD03240696
#	Creating user name:	WinNT
#	Creation time:	15. 06. 2019 20:35

#	Modifying user name:	WinNT
#	Modification time:	15. 06. 2019 20:35

#	Program:	/corina/corina34_cracker 3.40 0067  02.08.2006

@<TRIPOS>MOLECULE
ASD03240696
  58   63    0    0    0
SMALL
NO_CHARGES


@<TRIPOS>ATOM
   1 C1             0.1063     0.8800    -1.7671 C.3     
   2 C2             1.3873     0.1966    -2.2739 C.3     
   3 C3             2.0105     0.5279    -0.9076 C.3     
   4 C4             0.5794     0.5359    -0.3449 C.3     
   5 O5             0.0629     2.2835    -2.0321 O.3     
   6 C6            -1.1778     0.1564    -2.1777 C.3     
   7 C7             2.8712    -0.5777    -0.3527 C.ar    
   8 C8             3.9434    -0.2710     0.4660 C.ar    
   9 C9             4.7351    -1.2788     0.9772 C.ar    
  10 C10            4.4523    -2.6091     0.6673 C.ar    
  11 C11            3.3695    -2.9119    -0.1583 C.ar    
  12 C12            2.5823    -1.8955    -0.6594 C.ar    
  13 C13            7.6067    -7.7204     0.5079 C.2     
  14 N14            8.0168    -7.7556     1.7882 N.2     
  15 C15            7.6930    -6.8230     2.6464 C.2     
  16 C16            6.8588    -5.7083     2.2025 C.ar    
  17 C17            6.4322    -5.6767     0.8575 C.ar    
  18 N18            6.8252    -6.7064     0.0241 N.pl3   
  19 C19            6.4789    -4.6816     3.0731 C.ar    
  20 C20            5.6843    -3.6581     2.5661 C.ar    
  21 C21            5.2983    -3.6955     1.2123 C.ar    
  22 N22            5.6782    -4.6849     0.4173 N.ar    
  23 N23            6.5766    -6.9646    -1.3293 N.2     
  24 C24            7.1754    -8.0825    -1.6633 C.2     
  25 C25            7.8269    -8.5943    -0.5482 C.2     
  26 C26            7.1549    -8.7125    -3.0322 C.3     
  27 C27            5.2493    -2.5427     3.4401 C.ar    
  28 C28            3.9009    -2.3974     3.7727 C.ar    
  29 C29            3.5026    -1.3549     4.5881 C.ar    
  30 C30            4.4367    -0.4576     5.0730 C.ar    
  31 C31            5.7734    -0.5972     4.7459 C.ar    
  32 C32            6.1850    -1.6379     3.9379 C.ar    
  33 F33            2.9882    -3.2733     3.2984 F       
  34 N34            2.6676     1.8410    -0.8634 N.3     
  35 H35            1.2705    -0.8722    -2.4529 H       
  36 H36            1.8596     0.7172    -3.1070 H       
  37 H37            0.3994     1.3304     0.3793 H       
  38 H38            0.2417    -0.4401     0.0034 H       
  39 H39           -0.7404     2.7189    -1.7157 H       
  40 H40           -1.1686    -0.8566    -1.7754 H       
  41 H41           -2.0400     0.6955    -1.7850 H       
  42 H42           -1.2397     0.1150    -3.2651 H       
  43 H43            4.1614     0.7593     0.7052 H       
  44 H44            5.5723    -1.0381     1.6157 H       
  45 H45            3.1455    -3.9400    -0.4018 H       
  46 H46            1.7413    -2.1288    -1.2955 H       
  47 H47            8.0362    -6.8768     3.6689 H       
  48 H48            6.7933    -4.6828     4.1063 H       
  49 H49            8.4032    -9.5069    -0.5103 H       
  50 H50            7.9938    -8.3365    -3.6178 H       
  51 H51            7.2358    -9.7951    -2.9351 H       
  52 H52            6.2203    -8.4615    -3.5337 H       
  53 H53            2.4602    -1.2406     4.8467 H       
  54 H54            4.1211     0.3558     5.7096 H       
  55 H55            6.4976     0.1073     5.1273 H       
  56 H56            7.2299    -1.7481     3.6880 H       
  57 H57            3.0617     2.0176     0.0485 H       
  58 H58            3.3712     1.9177    -1.5825 H       
@<TRIPOS>BOND
   1    1    2 1
   2    1    4 1
   3    1    5 1
   4    1    6 1
   5    2    3 1
   6    2   35 1
   7    2   36 1
   8    3    4 1
   9    3    7 1
  10    3   34 1
  11    4   37 1
  12    4   38 1
  13    5   39 1
  14    6   40 1
  15    6   41 1
  16    6   42 1
  17    7    8 ar
  18    7   12 ar
  19    8    9 ar
  20    8   43 1
  21    9   10 ar
  22    9   44 1
  23   10   11 ar
  24   10   21 1
  25   11   12 ar
  26   11   45 1
  27   12   46 1
  28   13   14 1
  29   13   18 1
  30   13   25 2
  31   14   15 2
  32   15   16 1
  33   15   47 1
  34   16   17 ar
  35   16   19 ar
  36   17   18 1
  37   17   22 ar
  38   18   23 1
  39   19   20 ar
  40   19   48 1
  41   20   21 ar
  42   20   27 1
  43   21   22 ar
  44   23   24 2
  45   24   25 1
  46   24   26 1
  47   25   49 1
  48   26   50 1
  49   26   51 1
  50   26   52 1
  51   27   28 ar
  52   27   32 ar
  53   28   29 ar
  54   28   33 1
  55   29   30 ar
  56   29   53 1
  57   30   31 ar
  58   30   54 1
  59   31   32 ar
  60   31   55 1
  61   32   56 1
  62   34   57 1
  63   34   58 1

#	End of record

