#	Name: ASD01910207
#	Creating user name:	WinNT
#	Creation time:	15. 06. 2019 19:55

#	Modifying user name:	WinNT
#	Modification time:	15. 06. 2019 19:55

#	Program:	/corina/corina34_cracker 3.40 0067  02.08.2006

@<TRIPOS>MOLECULE
ASD01910207
  36   39    0    0    0
SMALL
NO_CHARGES


@<TRIPOS>ATOM
   1 C1            -0.1643     1.4573     0.5802 C.2     
   2 C2            -0.1476    -0.0081     0.5804 C.2     
   3 N3            -1.1562    -0.6936     0.0066 N.am    
   4 C4            -1.0872    -2.0875    -0.0928 C.ar    
   5 C5            -2.2399    -2.8481     0.0232 C.ar    
   6 C6            -2.1665    -4.2373    -0.0765 C.ar    
   7 C7            -0.9316    -4.8527    -0.2926 C.ar    
   8 C8             0.2116    -4.0851    -0.4068 C.ar    
   9 C9             0.1368    -2.7085    -0.3135 C.ar    
  10 C10           -3.3920    -5.0558     0.0467 C.2     
  11 N11           -3.4517    -6.3538    -0.1239 N.2     
  12 C12           -4.7244    -6.7798     0.0644 C.ar    
  13 C13           -5.4994    -5.6481     0.3744 C.ar    
  14 N14           -4.6332    -4.5724     0.3619 N.pl3   
  15 C15           -5.3355    -8.0367     0.0075 C.ar    
  16 C16           -6.6741    -8.1544     0.2524 C.ar    
  17 C17           -7.4389    -7.0374     0.5578 C.ar    
  18 C18           -6.8583    -5.7883     0.6204 C.ar    
  19 O19            0.7772    -0.6061     1.0987 O.2     
  20 C20            0.7960     2.2612     1.1275 C.2     
  21 C21            0.5289     3.6020     0.9842 C.2     
  22 C22           -0.6099     3.8886     0.3424 C.2     
  23 S23           -1.4192     2.4630    -0.1307 S.3     
  24 Cl24          -0.8329    -6.5814    -0.4171 Cl      
  25 H25           -1.9300    -0.2206    -0.3375 H       
  26 H26           -3.1920    -2.3667     0.1907 H       
  27 H27            1.1659    -4.5623    -0.5739 H       
  28 H28            1.0336    -2.1136    -0.4038 H       
  29 H29           -4.8626    -3.6466     0.5382 H       
  30 H30           -4.7500    -8.9126    -0.2300 H       
  31 H31           -7.1421    -9.1267     0.2074 H       
  32 H32           -8.4963    -7.1473     0.7481 H       
  33 H33           -7.4585    -4.9225     0.8584 H       
  34 H34            1.6767     1.8809     1.6236 H       
  35 H35            1.1895     4.3682     1.3623 H       
  36 H36           -0.9669     4.8888     0.1464 H       
@<TRIPOS>BOND
   1    1    2 1
   2    1   20 2
   3    1   23 1
   4    2    3 am
   5    2   19 2
   6    3    4 1
   7    3   25 1
   8    4    5 ar
   9    4    9 ar
  10    5    6 ar
  11    5   26 1
  12    6    7 ar
  13    6   10 1
  14    7    8 ar
  15    7   24 1
  16    8    9 ar
  17    8   27 1
  18    9   28 1
  19   10   11 2
  20   10   14 1
  21   11   12 1
  22   12   13 ar
  23   12   15 ar
  24   13   14 1
  25   13   18 ar
  26   14   29 1
  27   15   16 ar
  28   15   30 1
  29   16   17 ar
  30   16   31 1
  31   17   18 ar
  32   17   32 1
  33   18   33 1
  34   20   21 1
  35   20   34 1
  36   21   22 2
  37   21   35 1
  38   22   23 1
  39   22   36 1

#	End of record

