#	Name: ASD02030722
#	Creating user name:	WinNT
#	Creation time:	15. 06. 2019 20:15

#	Modifying user name:	WinNT
#	Modification time:	15. 06. 2019 20:15

#	Program:	/corina/corina34_cracker 3.40 0067  02.08.2006

@<TRIPOS>MOLECULE
ASD02030722
  31   33    0    0    0
SMALL
NO_CHARGES


@<TRIPOS>ATOM
   1 N1            -0.0169     1.3957     0.0097 N.2     
   2 N2             0.0021    -0.0041     0.0020 N.am    
   3 C3             1.1646    -0.6797    -0.0123 C.2     
   4 N4             2.3448    -0.0325    -0.0200 N.am    
   5 C5             2.3757     1.3164    -0.0131 C.2     
   6 C6             1.1074     2.0610     0.0026 C.2     
   7 O7             1.1494    -1.8958    -0.0178 O.2     
   8 O8             3.4386     1.9089    -0.0192 O.2     
   9 O9             1.1051     3.4197     0.0094 O.3     
  10 C10           -1.2627    -0.7434     0.0101 C.3     
  11 C11           -1.6892    -1.0085     1.4554 C.3     
  12 C12           -4.1999    -1.2128     1.5733 C.2     
  13 N13           -2.9539    -1.7478     1.4635 N.pl3   
  14 C14           -3.1023    -3.1165     1.3603 C.ar    
  15 C15           -4.4851    -3.3618     1.4140 C.ar    
  16 N16           -5.0957    -2.1560     1.5444 N.2     
  17 C17           -4.9538    -4.6753     1.3328 C.ar    
  18 C18           -4.0679    -5.7074     1.2022 C.ar    
  19 C19           -2.7028    -5.4659     1.1491 C.ar    
  20 C20           -2.2175    -4.1774     1.2266 C.ar    
  21 H21            3.1737    -0.5362    -0.0303 H       
  22 H22            0.2211     3.8114     0.0197 H       
  23 H23           -2.0303    -0.1556    -0.4933 H       
  24 H24           -1.1322    -1.6923    -0.5101 H       
  25 H25           -0.9215    -1.5962     1.9587 H       
  26 H26           -1.8197    -0.0596     1.9756 H       
  27 H27           -4.4140    -0.1591     1.6743 H       
  28 H28           -6.0144    -4.8747     1.3735 H       
  29 H29           -4.4341    -6.7215     1.1401 H       
  30 H30           -2.0155    -6.2925     1.0457 H       
  31 H31           -1.1539    -3.9948     1.1845 H       
@<TRIPOS>BOND
   1    1    2 1
   2    1    6 2
   3    2    3 am
   4    2   10 1
   5    3    4 am
   6    3    7 2
   7    4    5 am
   8    4   21 1
   9    5    6 1
  10    5    8 2
  11    6    9 1
  12    9   22 1
  13   10   11 1
  14   10   23 1
  15   10   24 1
  16   11   13 1
  17   11   25 1
  18   11   26 1
  19   12   13 1
  20   12   16 2
  21   12   27 1
  22   13   14 1
  23   14   15 ar
  24   14   20 ar
  25   15   16 1
  26   15   17 ar
  27   17   18 ar
  28   17   28 1
  29   18   19 ar
  30   18   29 1
  31   19   20 ar
  32   19   30 1
  33   20   31 1

#	End of record

