#	Name: ASD03090685
#	Creating user name:	WinNT
#	Creation time:	15. 06. 2019 20:29

#	Modifying user name:	WinNT
#	Modification time:	15. 06. 2019 20:29

#	Program:	/corina/corina34_cracker 3.40 0067  02.08.2006

@<TRIPOS>MOLECULE
ASD03090685
  31   32    0    0    0
SMALL
NO_CHARGES


@<TRIPOS>ATOM
   1 N1            -0.0162     1.3436     0.0094 N.am    
   2 C2            -0.1343     0.0204    -0.2181 C.2     
   3 O3             0.8320    -0.6229    -0.5797 O.2     
   4 N4            -1.3235    -0.5897    -0.0449 N.am    
   5 S5            -2.8806    -2.8739    -0.1061 S.3     
   6 C6            -1.4453    -1.9550    -0.2798 C.2     
   7 N7            -0.4898    -2.7448    -0.6675 N.2     
   8 N8            -0.7694    -3.9644    -0.8358 N.2     
   9 C9            -1.9941    -4.3155    -0.6035 C.2     
  10 C10           -2.5602    -5.7060    -0.7347 C.3     
  11 F11           -1.5302    -6.6018    -1.0409 F       
  12 F12           -3.1608    -6.0807     0.4720 F       
  13 F13           -3.5151    -5.7262    -1.7569 F       
  14 C14            1.3494     3.3323    -0.1911 C.ar    
  15 C15            1.2414     1.9547    -0.0519 C.ar    
  16 C16            2.4028     1.1906     0.0262 C.ar    
  17 C17            3.6243     1.8412    -0.0387 C.ar    
  18 C18            3.6503     3.2162    -0.1777 C.ar    
  19 N19            2.5319     3.9114    -0.2493 N.ar    
  20 C20            4.9752     3.9308    -0.2490 C.3     
  21 C21            0.1019     4.1728    -0.2834 C.3     
  22 H22           -0.8034     1.8730     0.2118 H       
  23 H23           -2.0944    -0.0765     0.2435 H       
  24 H24            2.3526     0.1173     0.1351 H       
  25 H25            4.5455     1.2805     0.0190 H       
  26 H26            5.2953     3.9997    -1.2886 H       
  27 H27            4.8701     4.9332     0.1660 H       
  28 H28            5.7183     3.3764     0.3241 H       
  29 H29           -0.2045     4.4792     0.7168 H       
  30 H30            0.3033     5.0568    -0.8885 H       
  31 H31           -0.6953     3.5903    -0.7452 H       
@<TRIPOS>BOND
   1    1    2 am
   2    1   15 1
   3    1   22 1
   4    2    3 2
   5    2    4 am
   6    4    6 1
   7    4   23 1
   8    5    6 1
   9    5    9 1
  10    6    7 2
  11    7    8 1
  12    8    9 2
  13    9   10 1
  14   10   11 1
  15   10   12 1
  16   10   13 1
  17   14   15 ar
  18   14   19 ar
  19   14   21 1
  20   15   16 ar
  21   16   17 ar
  22   16   24 1
  23   17   18 ar
  24   17   25 1
  25   18   19 ar
  26   18   20 1
  27   20   26 1
  28   20   27 1
  29   20   28 1
  30   21   29 1
  31   21   30 1
  32   21   31 1

#	End of record

