#	Name: ASD01410804
#	Creating user name:	WinNT
#	Creation time:	15. 06. 2019 19:18

#	Modifying user name:	WinNT
#	Modification time:	15. 06. 2019 19:18

#	Program:	/corina/corina34_cracker 3.40 0067  02.08.2006

@<TRIPOS>MOLECULE
ASD01410804
  23   23    0    0    0
SMALL
NO_CHARGES


@<TRIPOS>ATOM
   1 C1             0.0199     1.6763     0.8107 C.2     
   2 C2             0.0385     0.2232     1.2100 C.3     
   3 C3             1.2578     2.3365     0.3936 C.ar    
   4 C4             1.2259     3.6572    -0.0962 C.ar    
   5 C5             2.4064     4.2700    -0.4876 C.ar    
   6 C6             3.6066     3.5816    -0.3949 C.ar    
   7 C7             3.6339     2.2758     0.0894 C.ar    
   8 C8             2.4823     1.6605     0.4847 C.ar    
   9 C9             2.3852     5.6820    -1.0136 C.3     
  10 O10            4.7606     4.1831    -0.7786 O.3     
  11 N11            0.0214     4.3397    -0.1866 N.pl3   
  12 O12           -1.0224     2.2976     0.8302 O.2     
  13 H13            0.7080     0.0885     2.0596 H       
  14 H14           -0.9679    -0.0903     1.4872 H       
  15 H15            0.3889    -0.3794     0.3721 H       
  16 H16            4.5741     1.7486     0.1572 H       
  17 H17            2.5135     0.6496     0.8635 H       
  18 H18            2.5110     6.3800    -0.1859 H       
  19 H19            3.1973     5.8158    -1.7283 H       
  20 H20            1.4320     5.8716    -1.5071 H       
  21 H21            5.2079     4.6646    -0.0692 H       
  22 H22           -0.8112     3.8469    -0.2552 H       
  23 H23            0.0120     5.3096    -0.1811 H       
@<TRIPOS>BOND
   1    1    2 1
   2    1    3 1
   3    1   12 2
   4    2   13 1
   5    2   14 1
   6    2   15 1
   7    3    4 ar
   8    3    8 ar
   9    4    5 ar
  10    4   11 1
  11    5    6 ar
  12    5    9 1
  13    6    7 ar
  14    6   10 1
  15    7    8 ar
  16    7   16 1
  17    8   17 1
  18    9   18 1
  19    9   19 1
  20    9   20 1
  21   10   21 1
  22   11   22 1
  23   11   23 1

#	End of record

