#	Name: ASD08710083
#	Creating user name:	WinNT
#	Creation time:	15. 06. 2019 21:19

#	Modifying user name:	WinNT
#	Modification time:	15. 06. 2019 21:19

#	Program:	/corina/corina34_cracker 3.40 0067  02.08.2006

@<TRIPOS>MOLECULE
ASD08710083
  46   48    0    0    0
SMALL
NO_CHARGES


@<TRIPOS>ATOM
   1 N1            -0.1506     1.5092    -0.3539 N.am    
   2 C2            -0.0286     0.0482    -0.4557 C.3     
   3 C3             0.2417    -0.3202    -1.9197 C.3     
   4 N4             1.3398     0.5187    -2.4200 N.am    
   5 C5             1.2178     1.9798    -2.3182 C.3     
   6 C6             0.9475     2.3482    -0.8541 C.3     
   7 S7             2.6906    -0.1699    -3.0860 S.o2    
   8 O8             3.7346     0.7849    -2.9533 O.2     
   9 O9             2.7706    -1.4872    -2.5593 O.2     
  10 C10            2.3904    -0.3421    -4.8136 C.ar    
  11 C11            2.7344     0.6786    -5.6801 C.ar    
  12 C12            2.4988     0.5434    -7.0355 C.ar    
  13 C13            1.9197    -0.6126    -7.5245 C.ar    
  14 C14            1.5765    -1.6337    -6.6582 C.ar    
  15 C15            1.8161    -1.5003    -5.3033 C.ar    
  16 C16            1.6620    -0.7595    -9.0020 C.3     
  17 F17            2.7785    -1.3384    -9.6148 F       
  18 F18            0.5443    -1.5770    -9.2015 F       
  19 F19            1.4240     0.5005    -9.5614 F       
  20 C20           -1.3303    -0.6093     0.0073 C.3     
  21 C21           -1.2522     2.0698     0.1835 C.2     
  22 O22           -2.2027     1.3746     0.4845 O.2     
  23 C23           -0.1353     4.2532     0.6489 C.ar    
  24 C24           -1.3043     3.5303     0.4069 C.ar    
  25 C25           -2.5269     4.2112     0.3788 C.ar    
  26 C26           -2.5211     5.5793     0.5936 C.ar    
  27 C27           -1.3182     6.2228     0.8270 C.ar    
  28 N28           -0.1810     5.5540     0.8476 N.ar    
  29 Br29          -4.1391     6.5577     0.5679 Br      
  30 H30            0.7984    -0.2941     0.1664 H       
  31 H31            0.5245    -1.3708    -1.9864 H       
  32 H32           -0.6548    -0.1417    -2.5135 H       
  33 H33            2.1452     2.4481    -2.6480 H       
  34 H34            0.3908     2.3221    -2.9403 H       
  35 H35            0.6647     3.3988    -0.7875 H       
  36 H36            1.8440     2.1696    -0.2604 H       
  37 H37            3.1868     1.5817    -5.2980 H       
  38 H38            2.7669     1.3412    -7.7123 H       
  39 H39            1.1238    -2.5367    -7.0402 H       
  40 H40            1.5513    -2.2995    -4.6268 H       
  41 H41           -2.1578    -0.2453    -0.6017 H       
  42 H42           -1.2490    -1.6910    -0.0994 H       
  43 H43           -1.5115    -0.3599     1.0528 H       
  44 H44            0.8147     3.7404     0.6780 H       
  45 H45           -3.4509     3.6834     0.1940 H       
  46 H46           -1.3102     7.2897     0.9945 H       
@<TRIPOS>BOND
   1    1    2 1
   2    1    6 1
   3    1   21 am
   4    2    3 1
   5    2   20 1
   6    2   30 1
   7    3    4 1
   8    3   31 1
   9    3   32 1
  10    4    5 1
  11    4    7 am
  12    5    6 1
  13    5   33 1
  14    5   34 1
  15    6   35 1
  16    6   36 1
  17    7    8 2
  18    7    9 2
  19    7   10 1
  20   10   11 ar
  21   10   15 ar
  22   11   12 ar
  23   11   37 1
  24   12   13 ar
  25   12   38 1
  26   13   14 ar
  27   13   16 1
  28   14   15 ar
  29   14   39 1
  30   15   40 1
  31   16   17 1
  32   16   18 1
  33   16   19 1
  34   20   41 1
  35   20   42 1
  36   20   43 1
  37   21   22 2
  38   21   24 1
  39   23   24 ar
  40   23   28 ar
  41   23   44 1
  42   24   25 ar
  43   25   26 ar
  44   25   45 1
  45   26   27 ar
  46   26   29 1
  47   27   28 ar
  48   27   46 1

#	End of record

