#	Name: ASD01910168
#	Creating user name:	WinNT
#	Creation time:	15. 06. 2019 19:55

#	Modifying user name:	WinNT
#	Modification time:	15. 06. 2019 19:55

#	Program:	/corina/corina34_cracker 3.40 0067  02.08.2006

@<TRIPOS>MOLECULE
ASD01910168
  44   46    0    0    0
SMALL
NO_CHARGES


@<TRIPOS>ATOM
   1 C1            -0.2186     1.3746     0.0961 C.ar    
   2 C2             0.0373     0.0372     0.3288 C.ar    
   3 C3             1.3446    -0.4334     0.3197 C.ar    
   4 C4             2.3934     0.4413     0.0760 C.ar    
   5 C5             2.1330     1.7843    -0.1579 C.ar    
   6 C6             0.8237     2.2485    -0.1469 C.ar    
   7 N7             3.1875     2.6695    -0.4034 N.am    
   8 C8             4.2617     2.2594    -1.1067 C.2     
   9 C9             5.3266     3.2194    -1.4533 C.ar    
  10 N10            1.6031    -1.7880     0.5564 N.am    
  11 C11            0.7252    -2.7237     0.1437 C.2     
  12 C12            5.2260     4.5543    -1.0547 C.ar    
  13 C13            6.2245     5.4463    -1.3818 C.ar    
  14 C14            7.3282     5.0254    -2.1050 C.ar    
  15 C15            7.4402     3.7085    -2.5058 C.ar    
  16 C16            6.4484     2.7960    -2.1797 C.ar    
  17 O17           -0.2418    -2.4002    -0.5132 O.2     
  18 O18            4.3528     1.0981    -1.4555 O.2     
  19 O19            6.5572     1.5021    -2.5724 O.3     
  20 C20            7.7218     1.1469    -3.3204 C.3     
  21 C21            0.9450    -4.1717     0.4984 C.3     
  22 C22           -0.1436    -5.1115    -0.0463 C.3     
  23 C23            0.9850    -6.1068    -0.3635 C.3     
  24 C24            1.9268    -4.8935    -0.4396 C.3     
  25 H25           -1.2360     1.7371     0.0996 H       
  26 H26           -0.7796    -0.6433     0.5184 H       
  27 H27            3.4105     0.0781     0.0688 H       
  28 H28            0.6203     3.2935    -0.3288 H       
  29 H29            3.1459     3.5785    -0.0676 H       
  30 H30            2.4140    -2.0537     1.0175 H       
  31 H31            4.3668     4.8872    -0.4913 H       
  32 H32            6.1457     6.4783    -1.0732 H       
  33 H33            8.1058     5.7312    -2.3572 H       
  34 H34            8.3035     3.3881    -3.0700 H       
  35 H35            8.6119     1.3479    -2.7243 H       
  36 H36            7.6837     0.0866    -3.5704 H       
  37 H37            7.7581     1.7352    -4.2373 H       
  38 H38            1.1606    -4.3203     1.5565 H       
  39 H39           -0.8365    -5.4657     0.7169 H       
  40 H40           -0.6487    -4.7272    -0.9325 H       
  41 H41            1.2125    -6.7853     0.4586 H       
  42 H42            0.8582    -6.6216    -1.3159 H       
  43 H43            1.9877    -4.4497    -1.4333 H       
  44 H44            2.9054    -5.0719     0.0061 H       
@<TRIPOS>BOND
   1    1    2 ar
   2    1    6 ar
   3    1   25 1
   4    2    3 ar
   5    2   26 1
   6    3    4 ar
   7    3   10 1
   8    4    5 ar
   9    4   27 1
  10    5    6 ar
  11    5    7 1
  12    6   28 1
  13    7    8 am
  14    7   29 1
  15    8    9 1
  16    8   18 2
  17    9   12 ar
  18    9   16 ar
  19   10   11 am
  20   10   30 1
  21   11   17 2
  22   11   21 1
  23   12   13 ar
  24   12   31 1
  25   13   14 ar
  26   13   32 1
  27   14   15 ar
  28   14   33 1
  29   15   16 ar
  30   15   34 1
  31   16   19 1
  32   19   20 1
  33   20   35 1
  34   20   36 1
  35   20   37 1
  36   21   22 1
  37   21   24 1
  38   21   38 1
  39   22   23 1
  40   22   39 1
  41   22   40 1
  42   23   24 1
  43   23   41 1
  44   23   42 1
  45   24   43 1
  46   24   44 1

#	End of record

