#	Name: ASD03092650
#	Creating user name:	WinNT
#	Creation time:	15. 06. 2019 20:32

#	Modifying user name:	WinNT
#	Modification time:	15. 06. 2019 20:32

#	Program:	/corina/corina34_cracker 3.40 0067  02.08.2006

@<TRIPOS>MOLECULE
ASD03092650
  54   57    0    0    0
SMALL
NO_CHARGES


@<TRIPOS>ATOM
   1 C1             0.2345     1.4435    -0.7376 C.ar    
   2 C2             0.2604     0.0350    -0.7948 C.ar    
   3 C3             1.3976    -0.6514    -0.3216 C.ar    
   4 C4             2.4509     0.1087     0.1849 C.ar    
   5 C5             2.3424     1.4907     0.2040 C.ar    
   6 N6             1.2702     2.1066    -0.2432 N.ar    
   7 N7            -1.7032     0.6992    -1.6283 N.2     
   8 N8            -0.9763     1.8330    -1.2525 N.pl3   
   9 C9            -1.0093    -0.3803    -1.3808 C.2     
  10 C10            1.4703    -2.1276    -0.3607 C.2     
  11 O11            0.5397    -2.7704    -0.8063 O.2     
  12 N12            2.5683    -2.7606     0.0976 N.am    
  13 C13            3.7358    -4.8406    -0.3125 C.ar    
  14 C14            2.6085    -4.1582     0.1274 C.ar    
  15 C15            1.5192    -4.8866     0.5990 C.ar    
  16 C16            1.6068    -6.2692     0.6093 C.ar    
  17 C17            2.7628    -6.8759     0.1551 C.ar    
  18 N18            3.7773    -6.1575    -0.2854 N.ar    
  19 C19            0.2760    -4.1880     1.0864 C.3     
  20 C20            4.9205    -4.0673    -0.8315 C.3     
  21 C21            3.4832     2.3087     0.7522 C.3     
  22 C22           -1.4152     3.1576    -1.3810 C.ar    
  23 C23           -2.2016     3.5269    -2.4644 C.ar    
  24 C24           -2.6341     4.8321    -2.5900 C.ar    
  25 C25           -2.2830     5.7746    -1.6344 C.ar    
  26 C26           -1.4970     5.4065    -0.5520 C.ar    
  27 C27           -1.0686     4.1004    -0.4220 C.ar    
  28 O28           -2.7092     7.0596    -1.7588 O.3     
  29 C29           -2.3104     7.9771    -0.7384 C.3     
  30 O30           -1.4030    -1.6594    -1.6187 O.3     
  31 C31           -2.6941    -1.8427    -2.2029 C.3     
  32 H32            3.3418    -0.3739     0.5587 H       
  33 H33            3.3308    -2.2468     0.4068 H       
  34 H34            0.7815    -6.8661     0.9684 H       
  35 H35            2.8362    -7.9534     0.1610 H       
  36 H36           -0.4666    -4.1690     0.2887 H       
  37 H37           -0.1279    -4.7228     1.9461 H       
  38 H38            0.5232    -3.1670     1.3770 H       
  39 H39            5.5440    -3.7527     0.0054 H       
  40 H40            5.5030    -4.7008    -1.5005 H       
  41 H41            4.5716    -3.1892    -1.3748 H       
  42 H42            4.1761     2.5517    -0.0533 H       
  43 H43            3.0941     3.2294     1.1869 H       
  44 H44            4.0045     1.7366     1.5197 H       
  45 H45           -2.4747     2.7934    -3.2086 H       
  46 H46           -3.2454     5.1195    -3.4327 H       
  47 H47           -1.2238     6.1408     0.1913 H       
  48 H48           -0.4607     3.8130     0.4231 H       
  49 H49           -2.6880     7.6353     0.2253 H       
  50 H50           -1.2223     8.0314    -0.7037 H       
  51 H51           -2.7167     8.9643    -0.9584 H       
  52 H52           -3.4538    -1.4199    -1.5455 H       
  53 H53           -2.7301    -1.3406    -3.1697 H       
  54 H54           -2.8834    -2.9075    -2.3392 H       
@<TRIPOS>BOND
   1    1    2 ar
   2    1    6 ar
   3    1    8 1
   4    2    3 ar
   5    2    9 1
   6    3    4 ar
   7    3   10 1
   8    4    5 ar
   9    4   32 1
  10    5    6 ar
  11    5   21 1
  12    7    8 1
  13    7    9 2
  14    8   22 1
  15    9   30 1
  16   10   11 2
  17   10   12 am
  18   12   14 1
  19   12   33 1
  20   13   14 ar
  21   13   18 ar
  22   13   20 1
  23   14   15 ar
  24   15   16 ar
  25   15   19 1
  26   16   17 ar
  27   16   34 1
  28   17   18 ar
  29   17   35 1
  30   19   36 1
  31   19   37 1
  32   19   38 1
  33   20   39 1
  34   20   40 1
  35   20   41 1
  36   21   42 1
  37   21   43 1
  38   21   44 1
  39   22   23 ar
  40   22   27 ar
  41   23   24 ar
  42   23   45 1
  43   24   25 ar
  44   24   46 1
  45   25   26 ar
  46   25   28 1
  47   26   27 ar
  48   26   47 1
  49   27   48 1
  50   28   29 1
  51   29   49 1
  52   29   50 1
  53   29   51 1
  54   30   31 1
  55   31   52 1
  56   31   53 1
  57   31   54 1

#	End of record

