#	Name: ASD01883982
#	Creating user name:	WinNT
#	Creation time:	15. 06. 2019 19:47

#	Modifying user name:	WinNT
#	Modification time:	15. 06. 2019 19:47

#	Program:	/corina/corina34_cracker 3.40 0067  02.08.2006

@<TRIPOS>MOLECULE
ASD01883982
  52   54    0    0    0
SMALL
NO_CHARGES


@<TRIPOS>ATOM
   1 C1            -0.0170     1.4026     0.0098 C.ar    
   2 C2             0.0021    -0.0041     0.0020 C.ar    
   3 C3            -1.1917    -0.7039     0.0101 C.ar    
   4 C4            -2.3973    -0.0166     0.0258 C.ar    
   5 C5            -2.4129     1.3757     0.0330 C.ar    
   6 C6            -1.2438     2.0795     0.0310 C.ar    
   7 C7             1.2394     2.1559     0.0018 C.2     
   8 O8             2.3000     1.5667    -0.0115 O.2     
   9 C9             1.2145     3.6627     0.0101 C.3     
  10 O10            1.1832    -0.6702    -0.0138 O.3     
  11 C11           -1.1827    -2.2109     0.0015 C.3     
  12 F12           -0.0310    -2.6740     0.6467 F       
  13 F13           -2.3154    -2.6879     0.6698 F       
  14 F14           -1.1933    -2.6697    -1.3201 F       
  15 O15           -3.5664    -0.7047     0.0338 O.3     
  16 C16           -4.7713     0.0635     0.0499 C.3     
  17 C17           -5.9587    -0.8645     0.0567 C.ar    
  18 C18           -6.4913    -1.2965     1.2569 C.ar    
  19 C19           -6.5187    -1.2792    -1.1372 C.ar    
  20 C20           -7.5805    -2.1478     1.2632 C.ar    
  21 C21           -8.1372    -2.5666     0.0692 C.ar    
  22 C22           -7.6078    -2.1304    -1.1309 C.ar    
  23 C23           -9.3243    -3.4950     0.0761 C.3     
  24 N24          -10.5597    -2.7079     0.0933 N.am    
  25 C25          -11.7552    -3.3302     0.1020 C.2     
  26 O26          -11.8083    -4.5453     0.0955 O.2     
  27 C27          -12.9976    -2.5387     0.1194 C.2     
  28 C28          -14.2689    -3.0334     0.1296 C.2     
  29 N29          -15.1048    -1.9686     0.1452 N.pl3   
  30 C30          -14.3424    -0.8442     0.1444 C.2     
  31 N31          -13.0859    -1.1840     0.1341 N.2     
  32 C32          -16.5688    -2.0198     0.1598 C.3     
  33 H33           -3.3561     1.9017     0.0448 H       
  34 H34           -1.2642     3.1593     0.0370 H       
  35 H35            1.2184     4.0204     1.0397 H       
  36 H36            2.0935     4.0434    -0.5101 H       
  37 H37            0.3138     4.0140    -0.4932 H       
  38 H38            1.5349    -0.8681     0.8650 H       
  39 H39           -4.7925     0.6873     0.9435 H       
  40 H40           -4.8102     0.6968    -0.8364 H       
  41 H41           -6.0564    -0.9693     2.1897 H       
  42 H42           -6.1055    -0.9379    -2.0748 H       
  43 H43           -7.9962    -2.4859     2.2009 H       
  44 H44           -8.0428    -2.4577    -2.0637 H       
  45 H45           -9.3031    -4.1184    -0.8178 H       
  46 H46           -9.2848    -4.1288     0.9620 H       
  47 H47          -10.5174    -1.7388     0.0985 H       
  48 H48          -14.5539    -4.0751     0.1256 H       
  49 H49          -14.7182     0.1683     0.1548 H       
  50 H50          -16.9214    -2.0392     1.1911 H       
  51 H51          -16.9682    -1.1396    -0.3441 H       
  52 H52          -16.9061    -2.9185    -0.3565 H       
@<TRIPOS>BOND
   1    1    2 ar
   2    1    7 1
   3    1    6 ar
   4    2    3 ar
   5    2   10 1
   6    3    4 ar
   7    3   11 1
   8    4    5 ar
   9    4   15 1
  10    5    6 ar
  11    5   33 1
  12    6   34 1
  13    7    8 2
  14    7    9 1
  15    9   35 1
  16    9   36 1
  17    9   37 1
  18   10   38 1
  19   11   12 1
  20   11   13 1
  21   11   14 1
  22   15   16 1
  23   16   17 1
  24   16   39 1
  25   16   40 1
  26   17   18 ar
  27   17   19 ar
  28   18   20 ar
  29   18   41 1
  30   19   22 ar
  31   19   42 1
  32   20   21 ar
  33   20   43 1
  34   21   22 ar
  35   21   23 1
  36   22   44 1
  37   23   24 1
  38   23   45 1
  39   23   46 1
  40   24   25 am
  41   24   47 1
  42   25   26 2
  43   25   27 1
  44   27   28 2
  45   27   31 1
  46   28   29 1
  47   28   48 1
  48   29   30 1
  49   29   32 1
  50   30   31 2
  51   30   49 1
  52   32   50 1
  53   32   51 1
  54   32   52 1

#	End of record

