#	Name: ASD04590398
#	Creating user name:	WinNT
#	Creation time:	15. 06. 2019 20:50

#	Modifying user name:	WinNT
#	Modification time:	15. 06. 2019 20:50

#	Program:	/corina/corina34_cracker 3.40 0067  02.08.2006

@<TRIPOS>MOLECULE
ASD04590398
  59   63    0    0    0
SMALL
NO_CHARGES


@<TRIPOS>ATOM
   1 C1            -0.0167     1.3832     0.0096 C.ar    
   2 C2             0.0021    -0.0041     0.0020 C.ar    
   3 C3             2.4020     0.0223    -0.0207 C.ar    
   4 C4             2.3769     1.4283    -0.0129 C.ar    
   5 C5             1.1624     2.0986     0.0022 C.ar    
   6 N6             3.7040    -0.3552    -0.0352 N.2     
   7 C7             4.4709     0.7083    -0.0368 C.2     
   8 N8             3.6969     1.8375    -0.0233 N.pl3   
   9 C9             5.9482     0.6906    -0.0514 C.2     
  10 C10            6.7655    -0.4630    -0.0664 C.2     
  11 C11            8.0575    -0.0542    -0.0774 C.2     
  12 N12            8.0646     1.3049    -0.0699 N.pl3   
  13 N13            6.7361     1.7481    -0.0586 N.2     
  14 N14            6.3181    -1.7953    -0.0688 N.am    
  15 C15            7.2100    -2.8056    -0.0838 C.2     
  16 O16            8.4012    -2.5646    -0.0952 O.2     
  17 O17            6.7813    -4.0823    -0.0861 O.3     
  18 C18            1.1969    -0.6870    -0.0130 C.ar    
  19 C19            8.2411    -5.5647     1.0913 C.ar    
  20 C20            7.7336    -5.0536    -0.1015 C.ar    
  21 C21            8.2133    -5.5500    -1.3056 C.ar    
  22 C22            9.1844    -6.5407    -1.2724 C.ar    
  23 C23            9.6411    -6.9998    -0.0517 C.ar    
  24 N24            9.1698    -6.5052     1.0788 N.ar    
  25 C25           -1.2962    -0.7693     0.0108 C.3     
  26 N26           -1.7317    -1.0105    -1.3713 N.3     
  27 C27           -2.8603    -1.9518    -1.4113 C.3     
  28 C28           -3.3197    -2.1280    -2.8611 C.3     
  29 O29           -2.2160    -2.5719    -3.6550 O.3     
  30 C30           -1.0994    -1.6784    -3.6393 C.3     
  31 C31           -0.6175    -1.4976    -2.1974 C.3     
  32 C32            7.6914    -5.0257    -2.6186 C.3     
  33 O33            7.7818    -5.0885     2.2766 O.3     
  34 C34            8.3421    -5.6535     3.4636 C.3     
  35 Cl35          10.8558    -8.2391    -0.0033 Cl      
  36 H36           -0.9614     1.9066     0.0169 H       
  37 H37            1.1403     3.1784     0.0079 H       
  38 H38            4.0156     2.7537    -0.0215 H       
  39 H39            8.9271    -0.6946    -0.0897 H       
  40 H40            8.8530     1.8700    -0.0749 H       
  41 H41            5.3674    -1.9877    -0.0597 H       
  42 H42            1.2037    -1.7669    -0.0185 H       
  43 H43            9.5788    -6.9490    -2.1911 H       
  44 H44           -1.1522    -1.7232     0.5181 H       
  45 H45           -2.0559    -0.1898     0.5353 H       
  46 H46           -2.5453    -2.9149    -1.0097 H       
  47 H47           -3.6831    -1.5591    -0.8140 H       
  48 H48           -4.1186    -2.8683    -2.9023 H       
  49 H49           -3.6848    -1.1757    -3.2455 H       
  50 H50           -0.2926    -2.0935    -4.2433 H       
  51 H51           -1.4000    -0.7130    -4.0463 H       
  52 H52            0.1968    -0.7734    -2.1739 H       
  53 H53           -0.2667    -2.4535    -1.8083 H       
  54 H54            8.2994    -4.1797    -2.9394 H       
  55 H55            7.7403    -5.8139    -3.3698 H       
  56 H56            6.6572    -4.7041    -2.4961 H       
  57 H57            9.4181    -5.4802     3.4756 H       
  58 H58            7.8889    -5.1855     4.3376 H       
  59 H59            8.1464    -6.7256     3.4831 H       
@<TRIPOS>BOND
   1    1    2 ar
   2    1    5 ar
   3    1   36 1
   4    2   18 ar
   5    2   25 1
   6    3    4 ar
   7    3    6 1
   8    3   18 ar
   9    4    5 ar
  10    4    8 1
  11    5   37 1
  12    6    7 2
  13    7    8 1
  14    7    9 1
  15    8   38 1
  16    9   10 1
  17    9   13 2
  18   10   11 2
  19   10   14 1
  20   11   12 1
  21   11   39 1
  22   12   13 1
  23   12   40 1
  24   14   15 am
  25   14   41 1
  26   15   16 2
  27   15   17 1
  28   17   20 1
  29   18   42 1
  30   19   33 1
  31   19   20 ar
  32   19   24 ar
  33   20   21 ar
  34   21   22 ar
  35   21   32 1
  36   22   23 ar
  37   22   43 1
  38   23   24 ar
  39   23   35 1
  40   25   26 1
  41   25   44 1
  42   25   45 1
  43   26   27 1
  44   26   31 1
  45   27   28 1
  46   27   46 1
  47   27   47 1
  48   28   29 1
  49   28   48 1
  50   28   49 1
  51   29   30 1
  52   30   31 1
  53   30   50 1
  54   30   51 1
  55   31   52 1
  56   31   53 1
  57   32   54 1
  58   32   55 1
  59   32   56 1
  60   33   34 1
  61   34   57 1
  62   34   58 1
  63   34   59 1

#	End of record

