#	Name: ASD01208646
#	Creating user name:	WinNT
#	Creation time:	15. 06. 2019 19:10

#	Modifying user name:	WinNT
#	Modification time:	15. 06. 2019 19:10

#	Program:	/corina/corina34_cracker 3.40 0067  02.08.2006

@<TRIPOS>MOLECULE
ASD01208646
  58   61    0    0    0
SMALL
NO_CHARGES


@<TRIPOS>ATOM
   1 C1             2.2883     1.3763     3.2588 C.ar    
   2 C2             2.2779    -0.0178     3.2305 C.ar    
   3 N3             2.6970     2.0599     2.1913 N.ar    
   4 N4             2.6730    -0.6583     2.1456 N.ar    
   5 C5             3.0796     0.0241     1.0834 C.ar    
   6 C6             3.0903     1.4198     1.1114 C.ar    
   7 C7             1.8402     2.0953     4.4711 C.2     
   8 O8             1.4627     1.4710     5.4432 O.2     
   9 N9             1.8506     3.4427     4.4978 N.am    
  10 C10            1.4067     4.1549     5.6987 C.3     
  11 O11            3.4854    -0.6337    -0.0292 O.3     
  12 C12            3.5562    -1.9899     0.0216 C.ar    
  13 C13            2.3978    -2.7391     0.1733 C.ar    
  14 C14            2.4644    -4.1238     0.2253 C.ar    
  15 C15            3.6886    -4.7645     0.1265 C.ar    
  16 C16            4.8556    -4.0152    -0.0261 C.ar    
  17 C17            4.7836    -2.6227    -0.0838 C.ar    
  18 N18            7.3751    -4.0801    -0.2829 N.pl3   
  19 C19            6.1641    -4.6946    -0.1316 C.2     
  20 C20            6.3717    -6.0549    -0.0934 C.2     
  21 C21            7.7435    -6.2766    -0.2246 C.2     
  22 C22            8.3521    -5.0458    -0.3410 C.2     
  23 O23           10.3302    -3.5725    -0.6096 O.3     
  24 C24            9.7937    -4.8070    -0.5000 C.2     
  25 N25           10.6727    -5.7652    -0.5479 N.2     
  26 C26           12.0115    -5.1622    -0.6963 C.3     
  27 C27           11.7415    -3.6819    -0.3328 C.3     
  28 C28           12.0332    -3.4175     1.1457 C.3     
  29 O29            1.3271    -4.8528     0.3740 O.3     
  30 C30            1.4505    -6.2735     0.2821 C.3     
  31 C31            0.1860    -6.8552    -0.3530 C.3     
  32 C32            1.6344    -6.8611     1.6828 C.3     
  33 O33           -0.9291    -6.6277     0.5112 O.3     
  34 H34            1.9471    -0.5734     4.0956 H       
  35 H35            3.4216     1.9744     0.2459 H       
  36 H36            2.1519     3.9410     3.7220 H       
  37 H37            2.0344     3.8700     6.5430 H       
  38 H38            1.4855     5.2295     5.5337 H       
  39 H39            0.3700     3.8952     5.9127 H       
  40 H40            1.4418    -2.2428     0.2514 H       
  41 H41            3.7396    -5.8425     0.1678 H       
  42 H42            5.6841    -2.0392    -0.2062 H       
  43 H43            7.5207    -3.1230    -0.3434 H       
  44 H44            5.6109    -6.8133     0.0183 H       
  45 H45            8.2374    -7.2370    -0.2334 H       
  46 H46           12.7198    -5.6109     0.0002 H       
  47 H47           12.3672    -5.2521    -1.7227 H       
  48 H48           12.3182    -3.0111    -0.9697 H       
  49 H49           11.4796    -4.1292     1.7582 H       
  50 H50           13.1011    -3.5318     1.3314 H       
  51 H51           11.7266    -2.4031     1.4008 H       
  52 H52            2.3145    -6.5241    -0.3333 H       
  53 H53            0.0061    -6.3715    -1.3132 H       
  54 H54            0.3154    -7.9268    -0.5046 H       
  55 H55            1.7285    -7.9447     1.6127 H       
  56 H56            2.5352    -6.4466     2.1353 H       
  57 H57            0.7703    -6.6104     2.2982 H       
  58 H58           -1.7667    -6.9710     0.1712 H       
@<TRIPOS>BOND
   1    1    2 ar
   2    1    3 ar
   3    1    7 1
   4    2    4 ar
   5    2   34 1
   6    3    6 ar
   7    4    5 ar
   8    5    6 ar
   9    5   11 1
  10    6   35 1
  11    7    8 2
  12    7    9 am
  13    9   10 1
  14    9   36 1
  15   10   37 1
  16   10   38 1
  17   10   39 1
  18   11   12 1
  19   12   13 ar
  20   12   17 ar
  21   13   14 ar
  22   13   40 1
  23   14   15 ar
  24   14   29 1
  25   15   16 ar
  26   15   41 1
  27   16   17 ar
  28   16   19 1
  29   17   42 1
  30   18   19 1
  31   18   22 1
  32   18   43 1
  33   19   20 2
  34   20   21 1
  35   20   44 1
  36   21   22 2
  37   21   45 1
  38   22   24 1
  39   23   24 1
  40   23   27 1
  41   24   25 2
  42   25   26 1
  43   26   27 1
  44   26   46 1
  45   26   47 1
  46   27   28 1
  47   27   48 1
  48   28   49 1
  49   28   50 1
  50   28   51 1
  51   29   30 1
  52   30   31 1
  53   30   32 1
  54   30   52 1
  55   31   33 1
  56   31   53 1
  57   31   54 1
  58   32   55 1
  59   32   56 1
  60   32   57 1
  61   33   58 1

#	End of record

