#	Name: ASD01140652
#	Creating user name:	WinNT
#	Creation time:	15. 06. 2019 19:01

#	Modifying user name:	WinNT
#	Modification time:	15. 06. 2019 19:01

#	Program:	/corina/corina34_cracker 3.40 0067  02.08.2006

@<TRIPOS>MOLECULE
ASD01140652
  52   55    0    0    0
SMALL
NO_CHARGES


@<TRIPOS>ATOM
   1 C1             1.9030    -2.4017    -0.8397 C.3     
   2 C2             1.8083    -0.8935    -1.0785 C.3     
   3 N3             0.4169    -0.5297    -1.3577 N.am    
   4 C4            -0.5046    -0.2562    -0.2521 C.3     
   5 C5            -0.5858     1.2535    -0.0175 C.3     
   6 C6            -0.0154    -0.4467    -2.6315 C.2     
   7 O7             0.7636    -0.6154    -3.5503 O.2     
   8 C8            -1.4312    -0.1516    -2.9111 C.2     
   9 N9            -2.3855     0.1563    -1.9947 N.2     
  10 C10           -3.5161     0.3513    -2.6089 C.2     
  11 N11           -3.3339     0.1714    -3.9502 N.pl3   
  12 C12           -2.0242    -0.1313    -4.1360 C.2     
  13 C13           -1.3570    -0.3909    -5.4655 C.3     
  14 N14           -1.5602     0.8078    -6.2923 N.pl3   
  15 N15           -0.6555     1.5270    -6.8503 N.2     
  16 N16           -1.1939     2.5063    -7.4888 N.2     
  17 C17           -2.5223     2.4417    -7.3588 C.2     
  18 C18           -3.5352     3.3915    -7.9446 C.3     
  19 C19           -3.6813     4.6092    -7.0297 C.3     
  20 C20           -2.7789     1.3430    -6.5884 C.2     
  21 C21           -4.1058     0.8480    -6.1778 C.ar    
  22 C22           -5.1603     0.9438    -7.0927 C.ar    
  23 C23           -6.4204     0.4860    -6.7551 C.ar    
  24 O24           -7.4406     0.5816    -7.6484 O.3     
  25 C25           -8.7156     0.0885    -7.2323 C.3     
  26 C26           -6.6433    -0.0719    -5.5034 C.ar    
  27 C27           -5.6105    -0.1666    -4.5942 C.ar    
  28 C28           -4.3388     0.2856    -4.9186 C.ar    
  29 H29            1.2784    -2.6748     0.0109 H       
  30 H30            1.5599    -2.9325    -1.7277 H       
  31 H31            2.9383    -2.6724    -0.6320 H       
  32 H32            2.1514    -0.3627    -0.1905 H       
  33 H33            2.4329    -0.6204    -1.9291 H       
  34 H34           -1.4944    -0.6390    -0.5010 H       
  35 H35           -0.1427    -0.7455     0.6521 H       
  36 H36           -0.9478     1.7428    -0.9218 H       
  37 H37           -1.2715     1.4570     0.8050 H       
  38 H38            0.4039     1.6363     0.2314 H       
  39 H39           -4.4498     0.6133    -2.1335 H       
  40 H40           -0.2910    -0.5647    -5.3186 H       
  41 H41           -1.8126    -1.2561    -5.9471 H       
  42 H42           -3.2017     3.7156    -8.9304 H       
  43 H43           -4.4972     2.8869    -8.0341 H       
  44 H44           -4.3472     5.3357    -7.4954 H       
  45 H45           -4.0975     4.2963    -6.0722 H       
  46 H46           -2.7032     5.0630    -6.8699 H       
  47 H47           -4.9890     1.3771    -8.0670 H       
  48 H48           -9.0467     0.6362    -6.3500 H       
  49 H49           -9.4382     0.2249    -8.0370 H       
  50 H50           -8.6346    -0.9717    -6.9926 H       
  51 H51           -7.6271    -0.4321    -5.2411 H       
  52 H52           -5.7911    -0.6008    -3.6220 H       
@<TRIPOS>BOND
   1    1    2 1
   2    1   29 1
   3    1   30 1
   4    1   31 1
   5    2    3 1
   6    2   32 1
   7    2   33 1
   8    3    4 1
   9    3    6 am
  10    4    5 1
  11    4   34 1
  12    4   35 1
  13    5   36 1
  14    5   37 1
  15    5   38 1
  16    6    7 2
  17    6    8 1
  18    8   12 2
  19    8    9 1
  20    9   10 2
  21   10   11 1
  22   10   39 1
  23   11   28 1
  24   11   12 1
  25   12   13 1
  26   13   14 1
  27   13   40 1
  28   13   41 1
  29   14   20 1
  30   14   15 1
  31   15   16 2
  32   16   17 1
  33   17   18 1
  34   17   20 2
  35   18   19 1
  36   18   42 1
  37   18   43 1
  38   19   44 1
  39   19   45 1
  40   19   46 1
  41   20   21 1
  42   21   28 ar
  43   21   22 ar
  44   22   23 ar
  45   22   47 1
  46   23   24 1
  47   23   26 ar
  48   24   25 1
  49   25   48 1
  50   25   49 1
  51   25   50 1
  52   26   27 ar
  53   26   51 1
  54   27   28 ar
  55   27   52 1

#	End of record

