#	Name: ASD01815881
#	Creating user name:	WinNT
#	Creation time:	15. 06. 2019 19:34

#	Modifying user name:	WinNT
#	Modification time:	15. 06. 2019 19:34

#	Program:	/corina/corina34_cracker 3.40 0067  02.08.2006

@<TRIPOS>MOLECULE
ASD01815881
  52   57    0    0    0
SMALL
NO_CHARGES


@<TRIPOS>ATOM
   1 C1            -0.0167     1.3813     0.0096 C.ar    
   2 C2             0.0021    -0.0041     0.0020 C.ar    
   3 C3             1.1984    -0.6909    -0.0131 C.ar    
   4 C4             2.4015     0.0059    -0.0208 C.ar    
   5 C5             2.3790     1.4106    -0.0130 C.ar    
   6 C6             1.1663     2.0916     0.0022 C.ar    
   7 N7             3.6053    -0.6772    -0.0354 N.pl3   
   8 C8             4.7970    -0.0586    -0.0434 C.2     
   9 C9             4.9000     1.3103    -0.0371 C.2     
  10 C10            3.6670     2.1302    -0.0215 C.2     
  11 C11            5.9971     2.2730    -0.0419 C.2     
  12 N12            5.4246     3.4961    -0.0301 N.am    
  13 N13            4.0323     3.3799    -0.0181 N.2     
  14 C14            6.1262     4.7077    -0.0293 C.ar    
  15 O15            7.1914     2.0229    -0.0537 O.2     
  16 C16            3.5779    -2.1419    -0.0420 C.3     
  17 C17            3.5550    -2.6375    -1.4650 C.ar    
  18 C18            4.7436    -2.8865    -2.1271 C.ar    
  19 C19            4.7285    -3.3405    -3.4304 C.ar    
  20 C20            3.5129    -3.5480    -4.0791 C.ar    
  21 C21            2.3186    -3.2955    -3.4073 C.ar    
  22 C22            2.3453    -2.8471    -2.1022 C.ar    
  23 C23            3.4903    -4.0355    -5.4805 C.ar    
  24 C24            2.2748    -4.2430    -6.1291 C.ar    
  25 C25            2.2596    -4.6966    -7.4325 C.ar    
  26 C26            3.4483    -4.9456    -8.0947 C.ar    
  27 C27            4.6578    -4.7418    -7.4554 C.ar    
  28 C28            4.6848    -4.2821    -6.1543 C.ar    
  29 C29            5.4499     5.9250    -0.0167 C.ar    
  30 C30            7.5186     4.7271    -0.0353 C.ar    
  31 N31            8.1439     5.8926    -0.0339 N.ar    
  32 C32            7.4672     7.0236    -0.0270 C.ar    
  33 N33            6.1494     7.0475    -0.0160 N.ar    
  34 H34           -0.9602     1.9068     0.0169 H       
  35 H35           -0.9288    -0.5516     0.0083 H       
  36 H36            1.2004    -1.7709    -0.0185 H       
  37 H37            1.1506     3.1715     0.0084 H       
  38 H38            5.6983    -0.6536    -0.0548 H       
  39 H39            4.4658    -2.5242     0.4616 H       
  40 H40            2.6862    -2.4910     0.4787 H       
  41 H41            5.6853    -2.7250    -1.6235 H       
  42 H42            5.6571    -3.5343    -3.9466 H       
  43 H43            1.3736    -3.4547    -3.9054 H       
  44 H44            1.4202    -2.6511    -1.5805 H       
  45 H45            1.3461    -4.0495    -5.6128 H       
  46 H46            1.3180    -4.8577    -7.9363 H       
  47 H47            3.4318    -5.3008    -9.1145 H       
  48 H48            5.5830    -4.9382    -7.9769 H       
  49 H49            5.6297    -4.1230    -5.6562 H       
  50 H50            4.3703     5.9521    -0.0080 H       
  51 H51            8.0796     3.8043    -0.0407 H       
  52 H52            8.0084     7.9583    -0.0260 H       
@<TRIPOS>BOND
   1    1    2 ar
   2    1    6 ar
   3    1   34 1
   4    2    3 ar
   5    2   35 1
   6    3    4 ar
   7    3   36 1
   8    4    5 ar
   9    4    7 1
  10    5    6 ar
  11    5   10 1
  12    6   37 1
  13    7    8 1
  14    7   16 1
  15    8    9 2
  16    8   38 1
  17    9   10 1
  18    9   11 1
  19   10   13 2
  20   11   12 am
  21   11   15 2
  22   12   13 1
  23   12   14 1
  24   14   29 ar
  25   14   30 ar
  26   16   17 1
  27   16   39 1
  28   16   40 1
  29   17   18 ar
  30   17   22 ar
  31   18   19 ar
  32   18   41 1
  33   19   20 ar
  34   19   42 1
  35   20   21 ar
  36   20   23 1
  37   21   22 ar
  38   21   43 1
  39   22   44 1
  40   23   24 ar
  41   23   28 ar
  42   24   25 ar
  43   24   45 1
  44   25   26 ar
  45   25   46 1
  46   26   27 ar
  47   26   47 1
  48   27   28 ar
  49   27   48 1
  50   28   49 1
  51   29   33 ar
  52   29   50 1
  53   30   31 ar
  54   30   51 1
  55   31   32 ar
  56   32   33 ar
  57   32   52 1

#	End of record

