#	Name: ASD05730113
#	Creating user name:	WinNT
#	Creation time:	15. 06. 2019 21:02

#	Modifying user name:	WinNT
#	Modification time:	15. 06. 2019 21:02

#	Program:	/corina/corina34_cracker 3.40 0067  02.08.2006

@<TRIPOS>MOLECULE
ASD05730113
  64   68    0    0    0
SMALL
NO_CHARGES


@<TRIPOS>ATOM
   1 N1             1.1687     0.0156     1.4366 N.3     
   2 C2             2.2351     0.9469     1.0430 C.3     
   3 C3             3.0404     0.3392    -0.1079 C.3     
   4 N4             2.1427     0.0631    -1.2382 N.3     
   5 C5             1.0763    -0.8682    -0.8447 C.3     
   6 C6             0.2710    -0.2606     0.3063 C.3     
   7 C7             2.8574    -0.4280    -2.3386 C.ar    
   8 C8             3.8581     0.3410    -2.9154 C.ar    
   9 C9             4.5627    -0.1428    -4.0009 C.ar    
  10 C10            4.2706    -1.3987    -4.5153 C.ar    
  11 C11            3.2694    -2.1700    -3.9388 C.ar    
  12 C12            2.5678    -1.6888    -2.8497 C.ar    
  13 N13            4.9851    -1.8880    -5.6160 N.pl3   
  14 C14            5.4081    -1.0218    -6.6053 C.ar    
  15 N15            6.1771    -1.4896    -7.5767 N.ar    
  16 C16            6.6035    -0.6872    -8.5454 C.ar    
  17 C17            6.2209     0.6715    -8.5180 C.ar    
  18 C18            5.4052     1.1181    -7.4674 C.ar    
  19 N19            5.0241     0.2489    -6.5502 N.ar    
  20 N20            7.4008    -1.1632    -9.5555 N.am    
  21 C21            7.8311    -0.3447   -10.5349 C.2     
  22 C22            7.4529     1.0700   -10.5360 C.2     
  23 C23            6.6560     1.5536    -9.5331 C.2     
  24 C24            7.7885    -2.5759    -9.5686 C.3     
  25 C25            6.7501    -3.3824   -10.3510 C.3     
  26 O26            8.5387    -0.7835   -11.4240 O.2     
  27 C27            7.9279     1.9698   -11.6130 C.ar    
  28 C28            8.9471     2.8869   -11.3603 C.ar    
  29 C29            9.3854     3.7225   -12.3675 C.ar    
  30 C30            8.8156     3.6523   -13.6260 C.ar    
  31 C31            7.8038     2.7448   -13.8840 C.ar    
  32 C32            7.3607     1.8989   -12.8864 C.ar    
  33 Cl33           6.0914     0.7601   -13.2114 Cl      
  34 S34            9.3804     4.7238   -14.9057 S.o2    
  35 C35           10.7207     3.8023   -15.7088 C.3     
  36 O36            8.2657     4.8449   -15.7787 O.2     
  37 O37            9.8961     5.8534   -14.2148 O.2     
  38 F38            1.5942    -2.4384    -2.2881 F       
  39 H39            1.5543    -0.8391     1.8092 H       
  40 H40            1.7936     1.8897     0.7199 H       
  41 H41            2.8937     1.1258     1.8930 H       
  42 H42            3.8138     1.0407    -0.4207 H       
  43 H43            3.5042    -0.5898     0.2235 H       
  44 H44            0.4177    -1.0471    -1.6946 H       
  45 H45            1.5177    -1.8110    -0.5216 H       
  46 H46           -0.5024    -0.9621     0.6191 H       
  47 H47           -0.1928     0.6685    -0.0252 H       
  48 H48            4.0860     1.3181    -2.5158 H       
  49 H49            5.3410     0.4565    -4.4497 H       
  50 H50            3.0421    -3.1470    -4.3391 H       
  51 H51            5.1830    -2.8352    -5.6836 H       
  52 H52            5.0924     2.1504    -7.4126 H       
  53 H53            6.3661     2.5939    -9.5167 H       
  54 H54            8.7636    -2.6807   -10.0442 H       
  55 H55            7.8415    -2.9476    -8.5453 H       
  56 H56            5.7750    -3.2777    -9.8754 H       
  57 H57            6.6971    -3.0107   -11.3743 H       
  58 H58            7.0385    -4.4335   -10.3608 H       
  59 H59            9.3926     2.9435   -10.3781 H       
  60 H60           10.1749     4.4332   -12.1724 H       
  61 H61            7.3628     2.6946   -14.8685 H       
  62 H62           10.3304     2.8650   -16.1055 H       
  63 H63           11.1337     4.3975   -16.5232 H       
  64 H64           11.5034     3.5906   -14.9804 H       
@<TRIPOS>BOND
   1    1    2 1
   2    1    6 1
   3    1   39 1
   4    2    3 1
   5    2   40 1
   6    2   41 1
   7    3    4 1
   8    3   42 1
   9    3   43 1
  10    4    5 1
  11    4    7 1
  12    5    6 1
  13    5   44 1
  14    5   45 1
  15    6   46 1
  16    6   47 1
  17    7    8 ar
  18    7   12 ar
  19    8    9 ar
  20    8   48 1
  21    9   10 ar
  22    9   49 1
  23   10   11 ar
  24   10   13 1
  25   11   12 ar
  26   11   50 1
  27   12   38 1
  28   13   14 1
  29   13   51 1
  30   14   15 ar
  31   14   19 ar
  32   15   16 ar
  33   16   17 ar
  34   16   20 1
  35   17   18 ar
  36   17   23 1
  37   18   19 ar
  38   18   52 1
  39   20   21 am
  40   20   24 1
  41   21   22 1
  42   21   26 2
  43   22   23 2
  44   22   27 1
  45   23   53 1
  46   24   25 1
  47   24   54 1
  48   24   55 1
  49   25   56 1
  50   25   57 1
  51   25   58 1
  52   27   28 ar
  53   27   32 ar
  54   28   29 ar
  55   28   59 1
  56   29   30 ar
  57   29   60 1
  58   30   31 ar
  59   30   34 1
  60   31   32 ar
  61   31   61 1
  62   32   33 1
  63   34   35 1
  64   34   36 2
  65   34   37 2
  66   35   62 1
  67   35   63 1
  68   35   64 1

#	End of record

