#	Name: ASD03082070
#	Creating user name:	WinNT
#	Creation time:	15. 06. 2019 20:27

#	Modifying user name:	WinNT
#	Modification time:	15. 06. 2019 20:27

#	Program:	/corina/corina34_cracker 3.40 0067  02.08.2006

@<TRIPOS>MOLECULE
ASD03082070
  62   65    0    0    0
SMALL
NO_CHARGES


@<TRIPOS>ATOM
   1 C1            -0.2057     1.4592    -0.5822 C.3     
   2 O2            -0.1827     0.0076    -0.6086 O.3     
   3 C3            -1.2164    -0.6313    -0.0264 C.2     
   4 C4            -1.2601    -2.1056    -0.0150 C.ar    
   5 O5            -2.1124     0.0070     0.4893 O.2     
   6 C6            -0.3069    -2.8419    -0.7195 C.ar    
   7 C7            -0.3524    -4.2206    -0.7049 C.ar    
   8 C8            -1.3401    -4.8819     0.0058 C.ar    
   9 C9            -2.2921    -4.1701     0.7084 C.ar    
  10 C10           -2.2599    -2.7789     0.7110 C.ar    
  11 C11            1.0398     2.0019    -1.2858 C.3     
  12 C12            0.9949     1.6234    -2.7688 C.3     
  13 C13            2.2137     2.2211    -3.4771 C.3     
  14 C14            2.2174     3.7390    -3.2821 C.3     
  15 N15            2.2616     4.0493    -1.8475 N.3     
  16 C16            1.0775     3.5261    -1.1543 C.3     
  17 C17            2.4059     5.4943    -1.6257 C.3     
  18 C18            1.1473     6.2136    -2.1151 C.3     
  19 C19            1.2976     7.7185    -1.8840 C.3     
  20 C20            0.0579     8.4270    -2.3661 C.ar    
  21 C21           -1.0003     8.6341    -1.5011 C.ar    
  22 C22           -2.1375     9.2839    -1.9433 C.ar    
  23 C23           -2.2162     9.7270    -3.2503 C.ar    
  24 C24           -1.1577     9.5207    -4.1150 C.ar    
  25 C25           -0.0188     8.8748    -3.6716 C.ar    
  26 C26           -3.2795    -2.0110     1.4637 C.ar    
  27 C27           -4.6356    -2.2095     1.2072 C.ar    
  28 C28           -5.5805    -1.4919     1.9117 C.ar    
  29 C29           -5.1846    -0.5767     2.8706 C.ar    
  30 C30           -3.8406    -0.3754     3.1295 C.ar    
  31 C31           -2.8867    -1.0913     2.4355 C.ar    
  32 H32           -1.0981     1.8178    -1.0951 H       
  33 H33           -0.2179     1.8036     0.4519 H       
  34 H34            0.4659    -2.3327    -1.2762 H       
  35 H35            0.3865    -4.7877    -1.2514 H       
  36 H36           -1.3661    -5.9616     0.0102 H       
  37 H37           -3.0594    -4.6933     1.2596 H       
  38 H38            1.9318     1.5743    -0.8279 H       
  39 H39            1.0116     0.5380    -2.8684 H       
  40 H40            0.0831     2.0173    -3.2178 H       
  41 H41            3.1245     1.7976    -3.0539 H       
  42 H42            2.1651     1.9910    -4.5415 H       
  43 H43            3.0918     4.1661    -3.7732 H       
  44 H44            1.3129     4.1633    -3.7178 H       
  45 H45            0.1783     3.9515    -1.6000 H       
  46 H46            1.1239     3.7987    -0.1000 H       
  47 H47            2.5437     5.6866    -0.5617 H       
  48 H48            3.2718     5.8618    -2.1765 H       
  49 H49            1.0095     6.0213    -3.1791 H       
  50 H50            0.2814     5.8461    -1.5643 H       
  51 H51            1.4354     7.9108    -0.8200 H       
  52 H52            2.1634     8.0860    -2.4348 H       
  53 H53           -0.9388     8.2879    -0.4799 H       
  54 H54           -2.9645     9.4450    -1.2677 H       
  55 H55           -3.1049    10.2341    -3.5960 H       
  56 H56           -1.2193     9.8666    -5.1363 H       
  57 H57            0.8083     8.7136    -4.3472 H       
  58 H58           -4.9459    -2.9232     0.4583 H       
  59 H59           -6.6312    -1.6447     1.7139 H       
  60 H60           -5.9277    -0.0168     3.4190 H       
  61 H61           -3.5375     0.3407     3.8790 H       
  62 H62           -1.8378    -0.9334     2.6385 H       
@<TRIPOS>BOND
   1    1    2 1
   2    1   11 1
   3    1   32 1
   4    1   33 1
   5    2    3 1
   6    3    4 1
   7    3    5 2
   8    4    6 ar
   9    4   10 ar
  10    6    7 ar
  11    6   34 1
  12    7    8 ar
  13    7   35 1
  14    8    9 ar
  15    8   36 1
  16    9   10 ar
  17    9   37 1
  18   10   26 1
  19   11   12 1
  20   11   16 1
  21   11   38 1
  22   12   13 1
  23   12   39 1
  24   12   40 1
  25   13   14 1
  26   13   41 1
  27   13   42 1
  28   14   15 1
  29   14   43 1
  30   14   44 1
  31   15   16 1
  32   15   17 1
  33   16   45 1
  34   16   46 1
  35   17   18 1
  36   17   47 1
  37   17   48 1
  38   18   19 1
  39   18   49 1
  40   18   50 1
  41   19   20 1
  42   19   51 1
  43   19   52 1
  44   20   21 ar
  45   20   25 ar
  46   21   22 ar
  47   21   53 1
  48   22   23 ar
  49   22   54 1
  50   23   24 ar
  51   23   55 1
  52   24   25 ar
  53   24   56 1
  54   25   57 1
  55   26   27 ar
  56   26   31 ar
  57   27   28 ar
  58   27   58 1
  59   28   29 ar
  60   28   59 1
  61   29   30 ar
  62   29   60 1
  63   30   31 ar
  64   30   61 1
  65   31   62 1

#	End of record

