#	Name: ASD07330029
#	Creating user name:	WinNT
#	Creation time:	15. 06. 2019 21:11

#	Modifying user name:	WinNT
#	Modification time:	15. 06. 2019 21:11

#	Program:	/corina/corina34_cracker 3.40 0067  02.08.2006

@<TRIPOS>MOLECULE
ASD07330029
  59   61    0    0    0
SMALL
NO_CHARGES


@<TRIPOS>ATOM
   1 C1            -1.0423     2.8736    -1.7172 C.ar    
   2 C2            -0.8378     1.5705    -1.3006 C.ar    
   3 C3             0.4447     1.1053    -1.0723 C.ar    
   4 C4             1.5278     1.9401    -1.2589 C.ar    
   5 C5             1.3276     3.2536    -1.6785 C.ar    
   6 C6             0.0336     3.7169    -1.9074 C.ar    
   7 C7             2.4882     4.1560    -1.8804 C.ar    
   8 C8             2.2878     5.4693    -2.2999 C.ar    
   9 C9             3.3706     6.3052    -2.4859 C.ar    
  10 C10            4.6530     5.8413    -2.2571 C.ar    
  11 C11            4.8586     4.5372    -1.8400 C.ar    
  12 C12            3.7817     3.6944    -1.6454 C.ar    
  13 C13           -2.0165     0.6546    -1.0941 C.3     
  14 N14           -2.3132    -0.0517    -2.3476 N.4     
  15 C15           -3.4623    -0.9446    -2.1463 C.3     
  16 C16           -3.8448    -1.5750    -3.4606 C.2     
  17 C17           -4.7822    -1.0549    -4.2194 C.2     
  18 C18           -5.1295    -1.7128    -5.5328 C.3     
  19 C19           -4.3074    -2.9980    -5.7009 C.3     
  20 C20           -2.8092    -2.7267    -5.4542 C.3     
  21 C21           -3.1569    -2.8328    -3.9620 C.3     
  22 C22           -4.2478    -3.8408    -4.4154 C.3     
  23 C23           -5.5291    -3.7897    -3.5808 C.3     
  24 C24           -3.7262    -5.2630    -4.6303 C.3     
  25 C25           -2.6306     0.9258    -3.3972 C.3     
  26 C26           -1.1435    -0.8427    -2.7526 C.3     
  27 Cl27           6.4717     3.9624    -1.5548 Cl      
  28 H28           -2.0455     3.2304    -1.8983 H       
  29 H29            0.5987     0.0870    -0.7471 H       
  30 H30            2.5287     1.5760    -1.0797 H       
  31 H31           -0.1272     4.7340    -2.2331 H       
  32 H32            1.2869     5.8328    -2.4798 H       
  33 H33            3.2159     7.3233    -2.8111 H       
  34 H34            5.4973     6.4985    -2.4045 H       
  35 H35            3.9425     2.6772    -1.3201 H       
  36 H36           -1.7810    -0.0707    -0.3153 H       
  37 H37           -2.8845     1.2415    -0.7936 H       
  38 H38           -3.1958    -1.7246    -1.4331 H       
  39 H39           -4.3047    -0.3711    -1.7596 H       
  40 H40           -5.3018    -0.1618    -3.9052 H       
  41 H41           -6.1917    -1.9575    -5.5461 H       
  42 H42           -4.9052    -1.0291    -6.3514 H       
  43 H43           -4.5307    -3.5474    -6.6154 H       
  44 H44           -2.1525    -3.5196    -5.8121 H       
  45 H45           -2.4849    -1.7317    -5.7593 H       
  46 H46           -2.3700    -3.2152    -3.3119 H       
  47 H47           -6.3450    -4.2483    -4.1393 H       
  48 H48           -5.3770    -4.3327    -2.6480 H       
  49 H49           -5.7780    -2.7516    -3.3605 H       
  50 H50           -2.8942    -5.2423    -5.3342 H       
  51 H51           -3.3872    -5.6732    -3.6791 H       
  52 H52           -4.5255    -5.8865    -5.0308 H       
  53 H53           -1.7997     1.6224    -3.5082 H       
  54 H54           -2.7968     0.4052    -4.3403 H       
  55 H55           -3.5309     1.4751    -3.1218 H       
  56 H56           -0.8715    -1.5268    -1.9488 H       
  57 H57           -1.3838    -1.4134    -3.6497 H       
  58 H58           -0.3074    -0.1748    -2.9599 H       
  59 I59           11.4717    12.3233     4.6847 I       
@<TRIPOS>BOND
   1    1    2 ar
   2    1    6 ar
   3    1   28 1
   4    2    3 ar
   5    2   13 1
   6    3    4 ar
   7    3   29 1
   8    4    5 ar
   9    4   30 1
  10    5    6 ar
  11    5    7 1
  12    6   31 1
  13    7    8 ar
  14    7   12 ar
  15    8    9 ar
  16    8   32 1
  17    9   10 ar
  18    9   33 1
  19   10   11 ar
  20   10   34 1
  21   11   12 ar
  22   11   27 1
  23   12   35 1
  24   13   14 1
  25   13   36 1
  26   13   37 1
  27   14   15 1
  28   14   25 1
  29   14   26 1
  30   15   16 1
  31   15   38 1
  32   15   39 1
  33   16   17 2
  34   16   21 1
  35   17   18 1
  36   17   40 1
  37   18   19 1
  38   18   41 1
  39   18   42 1
  40   19   20 1
  41   19   22 1
  42   19   43 1
  43   20   21 1
  44   20   44 1
  45   20   45 1
  46   21   22 1
  47   21   46 1
  48   22   23 1
  49   22   24 1
  50   23   47 1
  51   23   48 1
  52   23   49 1
  53   24   50 1
  54   24   51 1
  55   24   52 1
  56   25   53 1
  57   25   54 1
  58   25   55 1
  59   26   56 1
  60   26   57 1
  61   26   58 1

#	End of record

