#	Name: ASD01918225
#	Creating user name:	WinNT
#	Creation time:	15. 06. 2019 20:11

#	Modifying user name:	WinNT
#	Modification time:	15. 06. 2019 20:11

#	Program:	/corina/corina34_cracker 3.40 0067  02.08.2006

@<TRIPOS>MOLECULE
ASD01918225
  44   45    0    0    0
SMALL
NO_CHARGES


@<TRIPOS>ATOM
   1 C1            -0.0160     1.3766    -0.0144 C.ar    
   2 C2             0.0029    -0.0037    -0.0295 C.ar    
   3 C3             1.2095    -0.6822    -0.0674 C.ar    
   4 C4             2.4037     0.0168    -0.0908 C.ar    
   5 C5             2.4002     1.3956    -0.0761 C.ar    
   6 C6             1.1864     2.0882    -0.0379 C.ar    
   7 C7             1.1754     3.5201    -0.0229 C.1     
   8 C8             1.1663     4.6940    -0.0106 C.1     
   9 C9             1.1552     6.1259     0.0044 C.ar    
  10 N10           -0.0200     8.1548     0.0615 N.ar    
  11 C11           -0.0545     6.8372     0.0486 C.ar    
  12 C12            2.3539     6.8565    -0.0189 C.ar    
  13 N13            2.2991     8.1734    -0.0035 N.ar    
  14 C14            1.1345     8.8070     0.0334 C.ar    
  15 C15            1.1230    10.2894     0.0489 C.2     
  16 N16            2.2824    10.9714     0.1339 N.am    
  17 O17            0.0684    10.8895    -0.0150 O.2     
  18 C18            3.5427    10.2517     0.3333 C.3     
  19 C19            2.2822    12.4325     0.0268 C.3     
  20 C20            1.4217    13.0257     1.1442 C.3     
  21 C21            3.7151    12.9534     0.1554 C.3     
  22 C22            1.7098    12.8443    -1.3310 C.3     
  23 Cl23          -1.4891    -0.8907    -0.0004 Cl      
  24 C24            4.0873     9.7921    -1.0206 C.3     
  25 H25           -0.9575     1.9050     0.0110 H       
  26 H26            1.2186    -1.7621    -0.0784 H       
  27 H27            3.3408    -0.5191    -0.1204 H       
  28 H28            3.3332     1.9393    -0.0941 H       
  29 H29           -0.9985     6.3130     0.0714 H       
  30 H30            3.3060     6.3476    -0.0485 H       
  31 H31            4.2665    10.9120     0.8109 H       
  32 H32            3.3686     9.3833     0.9687 H       
  33 H33            1.8295    12.7323     2.1115 H       
  34 H34            1.4216    14.1128     1.0645 H       
  35 H35            0.4009    12.6546     1.0525 H       
  36 H36            4.3281    12.5308    -0.6406 H       
  37 H37            3.7150    14.0405     0.0758 H       
  38 H38            4.1229    12.6600     1.1228 H       
  39 H39            0.6891    12.4732    -1.4226 H       
  40 H40            1.7097    13.9314    -1.4107 H       
  41 H41            2.3229    12.4217    -2.1270 H       
  42 H42            5.0250     9.2566    -0.8722 H       
  43 H43            3.3635     9.1318    -1.4982 H       
  44 H44            4.2614    10.6605    -1.6559 H       
@<TRIPOS>BOND
   1    1    2 ar
   2    1    6 ar
   3    1   25 1
   4    2    3 ar
   5    2   23 1
   6    3    4 ar
   7    3   26 1
   8    4    5 ar
   9    4   27 1
  10    5    6 ar
  11    5   28 1
  12    6    7 1
  13    7    8 3
  14    8    9 1
  15    9   12 ar
  16    9   11 ar
  17   10   11 ar
  18   10   14 ar
  19   11   29 1
  20   12   13 ar
  21   12   30 1
  22   13   14 ar
  23   14   15 1
  24   15   16 am
  25   15   17 2
  26   16   18 1
  27   16   19 1
  28   18   24 1
  29   18   31 1
  30   18   32 1
  31   19   20 1
  32   19   21 1
  33   19   22 1
  34   20   33 1
  35   20   34 1
  36   20   35 1
  37   21   36 1
  38   21   37 1
  39   21   38 1
  40   22   39 1
  41   22   40 1
  42   22   41 1
  43   24   42 1
  44   24   43 1
  45   24   44 1

#	End of record

