#	Name: ASD02562071
#	Creating user name:	WinNT
#	Creation time:	15. 06. 2019 20:25

#	Modifying user name:	WinNT
#	Modification time:	15. 06. 2019 20:25

#	Program:	/corina/corina34_cracker 3.40 0067  02.08.2006

@<TRIPOS>MOLECULE
ASD02562071
  44   47    0    0    0
SMALL
NO_CHARGES


@<TRIPOS>ATOM
   1 C1             0.8574     1.8218    -2.2436 C.2     
   2 C2             0.9409     0.4721    -2.6006 C.2     
   3 C3             1.8188    -0.3618    -1.9442 C.2     
   4 N4             2.6188     0.1336    -0.9319 N.pl3   
   5 C5             2.5429     1.4617    -0.5747 C.2     
   6 C6             1.6448     2.3142    -1.2462 C.2     
   7 C7             3.5546    -0.4505    -0.1312 C.2     
   8 C8             4.0371     0.5392     0.7072 C.2     
   9 N9             3.4012     1.6824     0.4090 N.2     
  10 N10            3.9485    -1.7851    -0.1523 N.3     
  11 C11            5.0736     0.3665     1.7518 C.ar    
  12 C12            5.2406    -1.9418    -0.8334 C.3     
  13 C13            5.9582    -3.1780    -0.2875 C.3     
  14 C14            7.3040    -3.3412    -0.9968 C.3     
  15 C15            7.0713    -3.5088    -2.4997 C.3     
  16 C16            6.3537    -2.2727    -3.0456 C.3     
  17 C17            5.0080    -2.1094    -2.3363 C.3     
  18 C18            4.9813    -0.6852     2.6624 C.ar    
  19 C19            5.9498    -0.8410     3.6333 C.ar    
  20 C20            7.0109     0.0435     3.7046 C.ar    
  21 C21            7.1089     1.0894     2.8043 C.ar    
  22 C22            6.1496     1.2527     1.8248 C.ar    
  23 Cl23           6.2740     2.5652     0.6953 Cl      
  24 C24            1.9026    -1.7435    -2.3108 C.1     
  25 N25            1.9690    -2.8396    -2.6016 N.1     
  26 H26            0.1714     2.4754    -2.7619 H       
  27 H27            0.3162     0.0834    -3.3912 H       
  28 H28            1.5806     3.3567    -0.9713 H       
  29 H29            3.9831    -2.1667     0.7810 H       
  30 H30            5.8539    -1.0582    -0.6570 H       
  31 H31            6.1239    -3.0586     0.7832 H       
  32 H32            5.3449    -4.0616    -0.4639 H       
  33 H33            7.9172    -2.4576    -0.8204 H       
  34 H34            7.8152    -4.2219    -0.6079 H       
  35 H35            8.0301    -3.6251    -3.0051 H       
  36 H36            6.4580    -4.3924    -2.6761 H       
  37 H37            6.9670    -1.3890    -2.8692 H       
  38 H38            6.1880    -2.3920    -4.1163 H       
  39 H39            4.3947    -2.9931    -2.5127 H       
  40 H40            4.4967    -1.2288    -2.7252 H       
  41 H41            4.1533    -1.3765     2.6084 H       
  42 H42            5.8788    -1.6553     4.3393 H       
  43 H43            7.7658    -0.0828     4.4665 H       
  44 H44            7.9396     1.7770     2.8653 H       
@<TRIPOS>BOND
   1    1    2 1
   2    1    6 2
   3    1   26 1
   4    2    3 2
   5    2   27 1
   6    3    4 1
   7    3   24 1
   8    4    5 1
   9    4    7 1
  10    5    6 1
  11    5    9 2
  12    6   28 1
  13    7    8 2
  14    7   10 1
  15    8    9 1
  16    8   11 1
  17   10   12 1
  18   10   29 1
  19   11   18 ar
  20   11   22 ar
  21   12   13 1
  22   12   17 1
  23   12   30 1
  24   13   14 1
  25   13   31 1
  26   13   32 1
  27   14   15 1
  28   14   33 1
  29   14   34 1
  30   15   16 1
  31   15   35 1
  32   15   36 1
  33   16   17 1
  34   16   37 1
  35   16   38 1
  36   17   39 1
  37   17   40 1
  38   18   19 ar
  39   18   41 1
  40   19   20 ar
  41   19   42 1
  42   20   21 ar
  43   20   43 1
  44   21   22 ar
  45   21   44 1
  46   22   23 1
  47   24   25 3

#	End of record

