#	Name: ASD02320022
#	Creating user name:	WinNT
#	Creation time:	15. 06. 2019 20:20

#	Modifying user name:	WinNT
#	Modification time:	15. 06. 2019 20:20

#	Program:	/corina/corina34_cracker 3.40 0067  02.08.2006

@<TRIPOS>MOLECULE
ASD02320022
  40   42    0    0    0
SMALL
NO_CHARGES


@<TRIPOS>ATOM
   1 C1            -0.0168     1.3845     0.0097 C.ar    
   2 C2             0.0021    -0.0041     0.0020 C.ar    
   3 C3             1.1936    -0.6932    -0.0131 C.ar    
   4 C4             2.4009     0.0112    -0.0209 C.ar    
   5 C5             2.3773     1.4249    -0.0131 C.ar    
   6 C6             1.1599     2.1018     0.0023 C.ar    
   7 N7             3.5883    -0.6266    -0.0352 N.2     
   8 C8             4.7209     0.0296    -0.0422 C.2     
   9 N9             4.7918     1.3962    -0.0350 N.am    
  10 C10            3.6616     2.1407    -0.0211 C.2     
  11 O11            3.7067     3.3571    -0.0149 O.2     
  12 C12            5.9806    -0.7405    -0.0579 C.ar    
  13 C13            5.9468    -2.1368    -0.0651 C.ar    
  14 C14            7.2079    -0.0740    -0.0714 C.ar    
  15 C15            8.3861    -0.7976    -0.0861 C.ar    
  16 C16            8.3498    -2.1890    -0.0874 C.ar    
  17 C17            7.1279    -2.8557    -0.0798 C.ar    
  18 O18            7.0958    -4.2153    -0.0806 O.3     
  19 C19            5.8076    -4.8338    -0.0725 C.3     
  20 O20            9.5096    -2.8981    -0.1018 O.3     
  21 S21           10.0540    -3.2227     1.2819 S.o2    
  22 O22           11.3473    -3.7773     1.0844 O.2     
  23 O23            9.8145    -2.0762     2.0865 O.2     
  24 O24            9.1912    -4.3379     1.8552 O.3     
  25 Na25           9.5505    -6.1278     1.0632 Du      
  26 O26            9.5815    -0.1491    -0.0997 O.3     
  27 C27            9.5447     1.2794    -0.0979 C.3     
  28 H28           -0.9620     1.9069     0.0170 H       
  29 H29           -0.9297    -0.5501     0.0084 H       
  30 H30            1.1955    -1.7732    -0.0186 H       
  31 H31            1.1383     3.1816     0.0079 H       
  32 H32            5.6573     1.8340    -0.0400 H       
  33 H33            4.9990    -2.6546    -0.0588 H       
  34 H34            7.2366     1.0056    -0.0707 H       
  35 H35            5.9248    -5.9175    -0.0742 H       
  36 H36            5.2636    -4.5286     0.8214 H       
  37 H37            5.2517    -4.5272    -0.9586 H       
  38 H38            9.0323     1.6286     0.7986 H       
  39 H39           10.5626     1.6691    -0.1096 H       
  40 H40            9.0112     1.6302    -0.9813 H       
@<TRIPOS>BOND
   1    1    2 ar
   2    1    6 ar
   3    1   28 1
   4    2    3 ar
   5    2   29 1
   6    3    4 ar
   7    3   30 1
   8    4    5 ar
   9    4    7 1
  10    5    6 ar
  11    5   10 1
  12    6   31 1
  13    7    8 2
  14    8    9 1
  15    8   12 1
  16    9   10 am
  17    9   32 1
  18   10   11 2
  19   12   13 ar
  20   12   14 ar
  21   13   17 ar
  22   13   33 1
  23   14   15 ar
  24   14   34 1
  25   15   16 ar
  26   15   26 1
  27   16   17 ar
  28   16   20 1
  29   17   18 1
  30   18   19 1
  31   19   35 1
  32   19   36 1
  33   19   37 1
  34   20   21 1
  35   21   22 2
  36   21   23 2
  37   21   24 1
  38   24   25 1
  39   26   27 1
  40   27   38 1
  41   27   39 1
  42   27   40 1

#	End of record

