#	Name: ASD01813068
#	Creating user name:	WinNT
#	Creation time:	15. 06. 2019 19:29

#	Modifying user name:	WinNT
#	Modification time:	15. 06. 2019 19:29

#	Program:	/corina/corina34_cracker 3.40 0067  02.08.2006

@<TRIPOS>MOLECULE
ASD01813068
  52   55    0    0    0
SMALL
NO_CHARGES


@<TRIPOS>ATOM
   1 C1             0.2999     1.5439    -0.4600 C.2     
   2 C2             0.4207     0.2086    -0.3732 C.2     
   3 N3            -0.6579    -0.5729    -0.0689 N.pl3   
   4 C4            -1.8794    -0.0815     0.1712 C.2     
   5 C5            -2.1028     1.2800     0.1151 C.2     
   6 C6            -0.9657     2.1474    -0.2185 C.2     
   7 O7            -1.1019     3.3590    -0.2812 O.2     
   8 C8            -0.4675    -2.0239    -0.0023 C.3     
   9 C9            -0.1895    -2.4293     1.4222 C.ar    
  10 C10            1.4451     2.4561    -0.8105 C.3     
  11 C11            2.7828     1.7457    -0.6154 C.3     
  12 C12            2.7166     0.3957    -1.3404 C.3     
  13 C13            1.7343    -0.5014    -0.5919 C.3     
  14 C14           -1.2406    -2.6411     2.2960 C.ar    
  15 C15           -0.9917    -3.0125     3.6018 C.ar    
  16 C16            0.3213    -3.1740     4.0393 C.ar    
  17 C17            1.3763    -2.9593     3.1548 C.ar    
  18 C18            1.1158    -2.5937     1.8496 C.ar    
  19 O19            1.3226     2.8618    -2.1752 O.3     
  20 C20            1.3964     3.6936     0.0880 C.3     
  21 C21            0.5951    -3.5727     5.4421 C.ar    
  22 C22            1.9082    -3.7342     5.8796 C.ar    
  23 C23            2.1571    -4.1052     7.1855 C.ar    
  24 C24            1.1059    -4.3171     8.0593 C.ar    
  25 C25           -0.1995    -4.1586     7.6302 C.ar    
  26 C26           -0.4597    -3.7814     6.3283 C.ar    
  27 C27           -3.4368     1.8427     0.3773 C.2     
  28 O28           -4.3646     1.1059     0.6486 O.2     
  29 O29           -3.6300     3.1752     0.3165 O.3     
  30 H30           -2.6924    -0.7515     0.4090 H       
  31 H31           -1.3696    -2.5252    -0.3533 H       
  32 H32            0.3751    -2.3091    -0.6323 H       
  33 H33            3.5856     2.3506    -1.0367 H       
  34 H34            2.9620     1.5840     0.4475 H       
  35 H35            2.3720     0.5446    -2.3637 H       
  36 H36            3.7039    -0.0662    -1.3480 H       
  37 H37            2.1606    -0.7727     0.3738 H       
  38 H38            1.5604    -1.4066    -1.1736 H       
  39 H39           -2.2579    -2.5153     1.9560 H       
  40 H40           -1.8131    -3.1773     4.2833 H       
  41 H41            2.3960    -3.0831     3.4886 H       
  42 H42            1.9327    -2.4270     1.1632 H       
  43 H43            2.0270     3.4529    -2.4746 H       
  44 H44            1.2787     3.3841     1.1265 H       
  45 H45            2.3226     4.2579    -0.0203 H       
  46 H46            0.5531     4.3203    -0.2022 H       
  47 H47            2.7296    -3.5697     5.1980 H       
  48 H48            3.1744    -4.2307     7.5256 H       
  49 H49            1.3052    -4.6076     9.0802 H       
  50 H50           -1.0164    -4.3257     8.3165 H       
  51 H51           -1.4793    -3.6577     5.9944 H       
  52 H52           -4.5236     3.4979     0.4964 H       
@<TRIPOS>BOND
   1    1    2 2
   2    1   10 1
   3    1    6 1
   4    2    3 1
   5    2   13 1
   6    3    4 1
   7    3    8 1
   8    4    5 2
   9    4   30 1
  10    5    6 1
  11    5   27 1
  12    6    7 2
  13    8    9 1
  14    8   31 1
  15    8   32 1
  16    9   14 ar
  17    9   18 ar
  18   10   11 1
  19   10   19 1
  20   10   20 1
  21   11   12 1
  22   11   33 1
  23   11   34 1
  24   12   13 1
  25   12   35 1
  26   12   36 1
  27   13   37 1
  28   13   38 1
  29   14   15 ar
  30   14   39 1
  31   15   16 ar
  32   15   40 1
  33   16   17 ar
  34   16   21 1
  35   17   18 ar
  36   17   41 1
  37   18   42 1
  38   19   43 1
  39   20   44 1
  40   20   45 1
  41   20   46 1
  42   21   22 ar
  43   21   26 ar
  44   22   23 ar
  45   22   47 1
  46   23   24 ar
  47   23   48 1
  48   24   25 ar
  49   24   49 1
  50   25   26 ar
  51   25   50 1
  52   26   51 1
  53   27   28 2
  54   27   29 1
  55   29   52 1

#	End of record

