#	Name: ASD01815963
#	Creating user name:	WinNT
#	Creation time:	15. 06. 2019 19:34

#	Modifying user name:	WinNT
#	Modification time:	15. 06. 2019 19:34

#	Program:	/corina/corina34_cracker 3.40 0067  02.08.2006

@<TRIPOS>MOLECULE
ASD01815963
  43   47    0    0    0
SMALL
NO_CHARGES


@<TRIPOS>ATOM
   1 C1            -0.0167     1.3813    -0.0557 C.ar    
   2 C2             0.0021    -0.0038    -0.0625 C.ar    
   3 C3             1.1998    -0.6916    -0.0555 C.ar    
   4 C4             2.4048     0.0058    -0.0420 C.ar    
   5 C5             2.3827     1.4099    -0.0356 C.ar    
   6 C6             1.1681     2.0925    -0.0423 C.ar    
   7 N7             3.6091    -0.6782    -0.0345 N.pl3   
   8 C8             4.8006    -0.0600    -0.0210 C.2     
   9 C9             4.9035     1.3090    -0.0137 C.2     
  10 C10            3.6706     2.1290    -0.0213 C.2     
  11 C11            6.0006     2.2715     0.0009 C.2     
  12 N12            5.4282     3.4947     0.0013 N.am    
  13 N13            4.0359     3.3789    -0.0121 N.2     
  14 C14            6.1302     4.7067     0.0130 C.ar    
  15 O15            7.1950     2.0213     0.0114 O.2     
  16 C16            3.5814    -2.1429    -0.0411 C.3     
  17 C17            3.4352    -2.6362    -1.4576 C.ar    
  18 C18            4.5663    -2.8823    -2.2167 C.ar    
  19 C19            4.4195    -3.3370    -3.5205 C.ar    
  20 C20            3.1368    -3.5273    -4.0120 C.ar    
  21 C21            2.0544    -3.2597    -3.1932 C.ar    
  22 N22            2.2312    -2.8337    -1.9581 N.ar    
  23 F23            1.1488     3.4433    -0.0361 F       
  24 F24            1.2021    -2.0426    -0.0614 F       
  25 C25            6.5803     5.2617    -1.1774 C.ar    
  26 C26            7.2724     6.4570    -1.1628 C.ar    
  27 C27            7.5178     7.1021     0.0357 C.ar    
  28 C28            7.0718     6.5536     1.2239 C.ar    
  29 C29            6.3732     5.3599     1.2165 C.ar    
  30 F30            5.9372     4.8238     2.3775 F       
  31 F31            5.7968    -2.6823    -1.6961 F       
  32 Br32           2.8706    -4.1441    -5.7796 Br      
  33 H33           -0.9601     1.9070    -0.0654 H       
  34 H34           -0.9289    -0.5512    -0.0730 H       
  35 H35            5.7018    -0.6551    -0.0155 H       
  36 H36            4.5097    -2.5258     0.3829 H       
  37 H37            2.7383    -2.4931     0.5544 H       
  38 H38            5.2833    -3.5374    -4.1369 H       
  39 H39            1.0524    -3.4050    -3.5690 H       
  40 H40            6.3897     4.7591    -2.1141 H       
  41 H41            7.6227     6.8885    -2.0888 H       
  42 H42            8.0596     8.0363     0.0434 H       
  43 H43            7.2655     7.0597     2.1581 H       
@<TRIPOS>BOND
   1    1    2 ar
   2    1    6 ar
   3    1   33 1
   4    2    3 ar
   5    2   34 1
   6    3    4 ar
   7    3   24 1
   8    4    5 ar
   9    4    7 1
  10    5    6 ar
  11    5   10 1
  12    6   23 1
  13    7    8 1
  14    7   16 1
  15    8    9 2
  16    8   35 1
  17    9   10 1
  18    9   11 1
  19   10   13 2
  20   11   12 am
  21   11   15 2
  22   12   13 1
  23   12   14 1
  24   14   25 ar
  25   14   29 ar
  26   16   17 1
  27   16   36 1
  28   16   37 1
  29   17   18 ar
  30   17   22 ar
  31   18   19 ar
  32   18   31 1
  33   19   20 ar
  34   19   38 1
  35   20   21 ar
  36   20   32 1
  37   21   22 ar
  38   21   39 1
  39   25   26 ar
  40   25   40 1
  41   26   27 ar
  42   26   41 1
  43   27   28 ar
  44   27   42 1
  45   28   29 ar
  46   28   43 1
  47   29   30 1

#	End of record

