#	Name: ASD01880932
#	Creating user name:	WinNT
#	Creation time:	15. 06. 2019 19:41

#	Modifying user name:	WinNT
#	Modification time:	15. 06. 2019 19:41

#	Program:	/corina/corina34_cracker 3.40 0067  02.08.2006

@<TRIPOS>MOLECULE
ASD01880932
  48   51    0    0    0
SMALL
NO_CHARGES


@<TRIPOS>ATOM
   1 N1            -0.3158     1.5114    -0.3901 N.ar    
   2 C2            -0.5289     0.2198    -0.2378 C.ar    
   3 N3             0.4513    -0.6172     0.0377 N.ar    
   4 C4             1.6946    -0.1847     0.1716 C.ar    
   5 C5             1.9583     1.1675     0.0182 C.ar    
   6 C6             0.9017     2.0164    -0.2707 C.ar    
   7 C7             3.3600     1.7017     0.1629 C.3     
   8 O8             4.2692     0.6129     0.3357 O.3     
   9 C9             5.5821     0.9238     0.4817 C.ar    
  10 C10            6.5212    -0.0890     0.6540 C.ar    
  11 C11            7.8489     0.2256     0.8012 C.ar    
  12 C12            8.2670     1.5607     0.7793 C.ar    
  13 C13            7.3195     2.5752     0.6059 C.ar    
  14 C14            5.9877     2.2521     0.4533 C.ar    
  15 C15            9.0915    -0.6060     1.0006 C.3     
  16 N16           10.2088     0.3413     1.0865 N.am    
  17 C17            9.7282     1.5899     0.9583 C.2     
  18 O18           10.4041     2.6003     0.9858 O.2     
  19 Cl19           7.8202     4.2372     0.5767 Cl      
  20 C20            1.1360     3.4946    -0.4474 C.3     
  21 C21            0.8802     4.2033     0.8578 C.ar    
  22 C22            1.9300     4.4707     1.7164 C.ar    
  23 C23            1.6954     5.1208     2.9136 C.ar    
  24 C24            0.4110     5.5038     3.2520 C.ar    
  25 C25           -0.6387     5.2371     2.3929 C.ar    
  26 C26           -0.4034     4.5909     1.1938 C.ar    
  27 C27           12.2830    -0.2176    -0.0825 C.3     
  28 C28           11.6166    -0.0152     1.2798 C.3     
  29 H29           -1.5335    -0.1629    -0.3413 H       
  30 H30            2.4932    -0.8758     0.3977 H       
  31 H31            3.6297     2.2617    -0.7325 H       
  32 H32            3.4106     2.3586     1.0313 H       
  33 H33            6.2052    -1.1216     0.6722 H       
  34 H34            5.2561     3.0351     0.3190 H       
  35 H35            9.0145    -1.1793     1.9245 H       
  36 H36            9.2334    -1.2769     0.1534 H       
  37 H37            2.1671     3.6645    -0.7571 H       
  38 H38            0.4593     3.8811    -1.2094 H       
  39 H39            2.9335     4.1715     1.4520 H       
  40 H40            2.5155     5.3291     3.5847 H       
  41 H41            0.2276     6.0110     4.1876 H       
  42 H42           -1.6422     5.5361     2.6575 H       
  43 H43           -1.2235     4.3826     0.5226 H       
  44 H44           12.2177     0.7047    -0.6596 H       
  45 H45           13.3304    -0.4829     0.0613 H       
  46 H46           11.7757    -1.0190    -0.6197 H       
  47 H47           12.1239     0.7862     1.8169 H       
  48 H48           11.6819    -0.9376     1.8569 H       
@<TRIPOS>BOND
   1    1    2 ar
   2    1    6 ar
   3    2    3 ar
   4    2   29 1
   5    3    4 ar
   6    4    5 ar
   7    4   30 1
   8    5    6 ar
   9    5    7 1
  10    6   20 1
  11    7    8 1
  12    7   31 1
  13    7   32 1
  14    8    9 1
  15    9   10 ar
  16    9   14 ar
  17   10   11 ar
  18   10   33 1
  19   11   12 ar
  20   11   15 1
  21   12   13 ar
  22   12   17 1
  23   13   14 ar
  24   13   19 1
  25   14   34 1
  26   15   16 1
  27   15   35 1
  28   15   36 1
  29   16   17 am
  30   16   28 1
  31   17   18 2
  32   20   21 1
  33   20   37 1
  34   20   38 1
  35   21   22 ar
  36   21   26 ar
  37   22   23 ar
  38   22   39 1
  39   23   24 ar
  40   23   40 1
  41   24   25 ar
  42   24   41 1
  43   25   26 ar
  44   25   42 1
  45   26   43 1
  46   27   28 1
  47   27   44 1
  48   27   45 1
  49   27   46 1
  50   28   47 1
  51   28   48 1

#	End of record

