#	Name: ASD01708002
#	Creating user name:	WinNT
#	Creation time:	15. 06. 2019 19:22

#	Modifying user name:	WinNT
#	Modification time:	15. 06. 2019 19:22

#	Program:	/corina/corina34_cracker 3.40 0067  02.08.2006

@<TRIPOS>MOLECULE
ASD01708002
  91   94    0    0    0
SMALL
NO_CHARGES


@<TRIPOS>ATOM
   1 C1             0.0220     2.2165     0.9311 C.2     
   2 C2             0.2447     0.7522     0.6533 C.3     
   3 C3             1.7184     0.4085     0.8796 C.3     
   4 C4             1.9208    -1.0995     0.7193 C.3     
   5 O5             0.9470     2.9137     1.2749 O.2     
   6 O6            -1.2029     2.7474     0.7913 O.3     
   7 C7            -0.1337     0.4449    -0.7970 C.3     
   8 C8            -1.3436     4.1643     1.0759 C.3     
   9 C9            -1.1013     4.9549    -0.2081 C.3     
  10 C10           -1.2831     6.4476     0.1016 C.3     
  11 C11           -2.7077     6.6508     0.5499 C.2     
  12 C12           -3.3457     5.7118     1.2236 C.2     
  13 C13           -4.7638     5.9210     1.5963 C.2     
  14 C14           -5.4924     4.8945     2.0002 C.2     
  15 C15           -4.9753     3.4945     2.1307 C.3     
  16 C16           -3.6958     3.2850     1.3189 C.3     
  17 C17           -2.7184     4.4161     1.6454 C.3     
  18 C18           -4.6836     3.2058     3.6047 C.3     
  19 C19           -1.0119     7.2753    -1.1563 C.3     
  20 C20           -3.0669     1.9403     1.6896 C.3     
  21 C21           -4.1666     0.8873     1.8404 C.3     
  22 O22           -2.9163    -0.3639     3.5226 O.3     
  23 C23           -2.5723    -1.5146     4.1214 C.2     
  24 N24           -3.0511    -2.7051     3.7447 N.am    
  25 C25           -3.9583    -2.8746     2.6126 C.3     
  26 C26           -4.6256    -1.5383     2.2745 C.3     
  27 C27           -3.5378    -0.4573     2.2110 C.3     
  28 O28           -1.7886    -1.4729     5.0491 O.2     
  29 C29           -5.0331    -3.9024     2.9721 C.3     
  30 C30           -5.8953    -4.1707     1.7656 C.2     
  31 O31           -5.6000    -3.6924     0.6909 O.2     
  32 N32           -6.9945    -4.9420     1.8808 N.am    
  33 C33           -7.7707    -5.2938     0.6892 C.3     
  34 C34           -2.6473    -3.8928     4.5014 C.3     
  35 C35           -1.4757    -4.5495     3.8178 C.ar    
  36 C36           -0.1868    -4.2560     4.2239 C.ar    
  37 C37            0.8911    -4.8592     3.5969 C.ar    
  38 C38            0.6734    -5.7602     2.5585 C.ar    
  39 C39           -0.6202    -6.0498     2.1567 C.ar    
  40 C40           -1.6921    -5.4482     2.7903 C.ar    
  41 O41            2.1593    -4.5713     3.9947 O.3     
  42 C42            2.3045    -3.7291     5.1400 C.3     
  43 O43            1.7284    -6.3546     1.9396 O.3     
  44 H44           -2.6206     4.4425     2.7306 H       
  45 H45           -0.3744     0.1568     1.3243 H       
  46 H46            2.3310     0.9370     0.1493 H       
  47 H47            2.0113     0.7095     1.8854 H       
  48 H48            2.9706    -1.3444     0.8805 H       
  49 H49            1.3081    -1.6280     1.4496 H       
  50 H50            1.6279    -1.4005    -0.2866 H       
  51 H51            0.0274    -0.6142    -0.9980 H       
  52 H52           -1.1835     0.6898    -0.9583 H       
  53 H53            0.4855     1.0403    -1.4680 H       
  54 H54           -0.5959     4.4515     1.8151 H       
  55 H55           -0.0871     4.7747    -0.5645 H       
  56 H56           -1.8185     4.6478    -0.9693 H       
  57 H57           -0.5993     6.7462     0.8961 H       
  58 H58           -3.2131     7.5763     0.3167 H       
  59 H59           -5.2003     6.9071     1.5387 H       
  60 H60           -6.5266     5.0769     2.2526 H       
  61 H61           -5.7376     2.7998     1.7781 H       
  62 H62           -3.9312     3.3004     0.2547 H       
  63 H63           -5.6002     3.3143     4.1844 H       
  64 H64           -4.3067     2.1883     3.7080 H       
  65 H65           -3.9362     3.9092     3.9717 H       
  66 H66           -1.7094     6.9827    -1.9411 H       
  67 H67           -1.1425     8.3335    -0.9301 H       
  68 H68            0.0095     7.0993    -1.4938 H       
  69 H69           -2.3756     1.6339     0.9046 H       
  70 H70           -2.5269     2.0391     2.6312 H       
  71 H71           -4.8580     1.1938     2.6253 H       
  72 H72           -4.7067     0.7886     0.8987 H       
  73 H73           -3.3962    -3.2279     1.7481 H       
  74 H74           -5.1264    -1.6118     1.3092 H       
  75 H75           -5.3515    -1.2845     3.0470 H       
  76 H76           -2.7892    -0.7316     1.4677 H       
  77 H77           -4.5569    -4.8294     3.2917 H       
  78 H78           -5.6513    -3.5137     3.7813 H       
  79 H79           -7.2716    -5.2643     2.7527 H       
  80 H80           -8.5641    -5.9886     0.9645 H       
  81 H81           -8.2095    -4.3920     0.2622 H       
  82 H82           -7.1161    -5.7624    -0.0456 H       
  83 H83           -2.3611    -3.6000     5.5116 H       
  84 H84           -3.4803    -4.5942     4.5486 H       
  85 H85           -0.0206    -3.5563     5.0296 H       
  86 H86           -0.7919    -6.7483     1.3510 H       
  87 H87           -2.7003    -5.6779     2.4788 H       
  88 H88            3.3598    -3.6503     5.4016 H       
  89 H89            1.9111    -2.7380     4.9144 H       
  90 H90            1.7535    -4.1568     5.9777 H       
  91 H91            2.0015    -7.1900     2.3431 H       
@<TRIPOS>BOND
   1    1    2 1
   2    1    5 2
   3    1    6 1
   4    2    3 1
   5    2    7 1
   6    2   45 1
   7    3    4 1
   8    3   46 1
   9    3   47 1
  10    4   48 1
  11    4   49 1
  12    4   50 1
  13    6    8 1
  14    7   51 1
  15    7   52 1
  16    7   53 1
  17    8    9 1
  18    8   17 1
  19    8   54 1
  20    9   10 1
  21    9   55 1
  22    9   56 1
  23   10   11 1
  24   10   19 1
  25   10   57 1
  26   11   12 2
  27   11   58 1
  28   12   13 1
  29   12   17 1
  30   13   14 2
  31   13   59 1
  32   14   15 1
  33   14   60 1
  34   15   16 1
  35   15   18 1
  36   15   61 1
  37   16   17 1
  38   16   20 1
  39   16   62 1
  40   17   44 1
  41   18   63 1
  42   18   64 1
  43   18   65 1
  44   19   66 1
  45   19   67 1
  46   19   68 1
  47   20   21 1
  48   20   69 1
  49   20   70 1
  50   21   27 1
  51   21   71 1
  52   21   72 1
  53   22   23 1
  54   22   27 1
  55   23   24 am
  56   23   28 2
  57   24   25 1
  58   24   34 1
  59   25   26 1
  60   25   29 1
  61   25   73 1
  62   26   27 1
  63   26   74 1
  64   26   75 1
  65   27   76 1
  66   29   30 1
  67   29   77 1
  68   29   78 1
  69   30   31 2
  70   30   32 am
  71   32   33 1
  72   32   79 1
  73   33   80 1
  74   33   81 1
  75   33   82 1
  76   34   35 1
  77   34   83 1
  78   34   84 1
  79   35   36 ar
  80   35   40 ar
  81   36   37 ar
  82   36   85 1
  83   37   38 ar
  84   37   41 1
  85   38   39 ar
  86   38   43 1
  87   39   40 ar
  88   39   86 1
  89   40   87 1
  90   41   42 1
  91   42   88 1
  92   42   89 1
  93   42   90 1
  94   43   91 1

#	End of record

