#	Name: ASD03730590
#	Creating user name:	WinNT
#	Creation time:	15. 06. 2019 20:44

#	Modifying user name:	WinNT
#	Modification time:	15. 06. 2019 20:44

#	Program:	/corina/corina34_cracker 3.40 0067  02.08.2006

@<TRIPOS>MOLECULE
ASD03730590
  56   61    0    0    0
SMALL
NO_CHARGES


@<TRIPOS>ATOM
   1 O1            -0.4578     1.1598     1.2622 O.3     
   2 C2            -0.3938    -0.2768     1.3330 C.3     
   3 O3             0.6935    -0.6146     0.4517 O.3     
   4 C4             1.5172     0.4746     0.4536 C.ar    
   5 C5             0.8077     1.5661     0.9490 C.ar    
   6 C6             2.8373     0.6250     0.0687 C.ar    
   7 C7             3.4641     1.8633     0.1682 C.ar    
   8 C8             2.7411     2.9497     0.6517 C.ar    
   9 C9             1.4272     2.8009     1.0438 C.ar    
  10 O10            4.7460     2.2180    -0.1332 O.3     
  11 C11            3.6672     4.1353     0.6068 C.3     
  12 C12            4.8204     3.6489    -0.2818 C.3     
  13 N13            3.0992     6.3177     0.9767 N.am    
  14 C14            3.0014     5.3554     0.0379 C.2     
  15 C15            4.1436     4.5418     1.9694 C.ar    
  16 C16            4.8227     3.8825     2.9846 C.ar    
  17 C17            5.1275     4.5567     4.1665 C.ar    
  18 C18            4.7510     5.8765     4.3179 C.ar    
  19 C19            4.0756     6.5316     3.3084 C.ar    
  20 C20            3.7647     5.8709     2.1212 C.ar    
  21 O21            2.4788     5.4553    -1.0520 O.2     
  22 C22            4.7057     1.4762     3.6487 C.ar    
  23 C23            5.2228     2.4638     2.8128 C.ar    
  24 C24            6.1238     2.0968     1.8101 C.ar    
  25 C25            6.4649     0.7602     1.6907 C.ar    
  26 C26            5.9080    -0.1601     2.5597 C.ar    
  27 N27            5.0594     0.2165     3.4968 N.ar    
  28 C28            2.5700     7.6743     0.8155 C.3     
  29 C29            1.1282     7.7231     1.3253 C.3     
  30 C30            0.5755     9.1398     1.1571 C.3     
  31 C31           -0.8662     9.1886     1.6668 C.3     
  32 C32           -1.4190    10.6054     1.4986 C.3     
  33 H33           -0.1766    -0.6009     2.3508 H       
  34 H34           -1.3250    -0.7196     0.9795 H       
  35 H35            3.3853    -0.2245    -0.3113 H       
  36 H36            0.8799     3.6499     1.4259 H       
  37 H37            5.7757     4.0268     0.0823 H       
  38 H38            4.6583     3.9392    -1.3198 H       
  39 H39            5.6554     4.0487     4.9601 H       
  40 H40            4.9865     6.3997     5.2329 H       
  41 H41            3.7862     7.5639     3.4391 H       
  42 H42            4.0117     1.7466     4.4309 H       
  43 H43            6.5434     2.8368     1.1447 H       
  44 H44            7.1580     0.4397     0.9270 H       
  45 H45            6.1718    -1.2035     2.4695 H       
  46 H46            3.1812     8.3730     1.3868 H       
  47 H47            2.5921     7.9501    -0.2387 H       
  48 H48            0.5170     7.0244     0.7541 H       
  49 H49            1.1061     7.4473     2.3796 H       
  50 H50            1.1867     9.8385     1.7283 H       
  51 H51            0.5977     9.4156     0.1028 H       
  52 H52           -1.4775     8.4899     1.0956 H       
  53 H53           -0.8884     8.9128     2.7211 H       
  54 H54           -0.8077    11.3041     2.0698 H       
  55 H55           -1.3968    10.8812     0.4443 H       
  56 H56           -2.4461    10.6402     1.8617 H       
@<TRIPOS>BOND
   1    1    2 1
   2    1    5 1
   3    2    3 1
   4    2   33 1
   5    2   34 1
   6    3    4 1
   7    4    5 ar
   8    4    6 ar
   9    5    9 ar
  10    6    7 ar
  11    6   35 1
  12    7    8 ar
  13    7   10 1
  14    8    9 ar
  15    8   11 1
  16    9   36 1
  17   10   12 1
  18   11   12 1
  19   11   14 1
  20   11   15 1
  21   12   37 1
  22   12   38 1
  23   13   14 am
  24   13   20 1
  25   13   28 1
  26   14   21 2
  27   15   16 ar
  28   15   20 ar
  29   16   17 ar
  30   16   23 1
  31   17   18 ar
  32   17   39 1
  33   18   19 ar
  34   18   40 1
  35   19   20 ar
  36   19   41 1
  37   22   23 ar
  38   22   27 ar
  39   22   42 1
  40   23   24 ar
  41   24   25 ar
  42   24   43 1
  43   25   26 ar
  44   25   44 1
  45   26   27 ar
  46   26   45 1
  47   28   29 1
  48   28   46 1
  49   28   47 1
  50   29   30 1
  51   29   48 1
  52   29   49 1
  53   30   31 1
  54   30   50 1
  55   30   51 1
  56   31   32 1
  57   31   52 1
  58   31   53 1
  59   32   54 1
  60   32   55 1
  61   32   56 1

#	End of record

