#	Name: ASD08151050
#	Creating user name:	WinNT
#	Creation time:	15. 06. 2019 21:17

#	Modifying user name:	WinNT
#	Modification time:	15. 06. 2019 21:17

#	Program:	/corina/corina34_cracker 3.40 0067  02.08.2006

@<TRIPOS>MOLECULE
ASD08151050
  41   43    0    0    0
SMALL
NO_CHARGES


@<TRIPOS>ATOM
   1 C1             0.5592     1.8524    -0.1119 C.2     
   2 C2             0.8031     0.3694    -0.0013 C.3     
   3 N3             2.2177     6.3834     0.5373 N.ar    
   4 C4             3.1903     7.2277     0.7810 C.ar    
   5 C5             4.4984     6.7954     0.9896 C.ar    
   6 C6             4.7906     5.4615     0.9420 C.ar    
   7 C7             3.7426     4.5598     0.6800 C.ar    
   8 C8             3.9772     3.1717     0.6182 C.ar    
   9 C9             2.9560     2.3160     0.3646 C.ar    
  10 C10            1.6462     2.7956     0.1599 C.ar    
  11 C11            1.3796     4.1670     0.2145 C.ar    
  12 C12            2.4376     5.0678     0.4778 C.ar    
  13 N13            0.0963     4.6372     0.0130 N.3     
  14 C14           -0.8364     4.0685     1.0033 C.3     
  15 C15           -1.5061     5.2519     1.7329 C.3     
  16 C16           -1.3382     6.4221     0.7283 C.3     
  17 C17            0.0501     6.1114     0.1153 C.3     
  18 C18           -0.0681     3.2059     2.0065 C.3     
  19 O19            0.9856     3.9762     2.5883 O.3     
  20 C20            1.8331     3.2323     3.4660 C.3     
  21 Cl21           5.5806     2.5543     0.8665 Cl      
  22 O22           -0.5365     2.2649    -0.4310 O.2     
  23 H23            1.8594     0.1888     0.1980 H       
  24 H24            0.2048    -0.0375     0.8139 H       
  25 H25            0.5216    -0.1158    -0.9359 H       
  26 H26            2.9724     8.2847     0.8208 H       
  27 H27            5.2801     7.5136     1.1881 H       
  28 H28            5.7989     5.1088     1.1010 H       
  29 H29            3.1484     1.2542     0.3197 H       
  30 H30           -1.5931     3.4683     0.4979 H       
  31 H31           -2.5614     5.0465     1.9125 H       
  32 H32           -0.9902     5.4698     2.6681 H       
  33 H33           -2.1164     6.3966    -0.0344 H       
  34 H34           -1.3310     7.3820     1.2447 H       
  35 H35            0.8434     6.4715     0.7704 H       
  36 H36            0.1383     6.5633    -0.8727 H       
  37 H37           -0.7466     2.8683     2.7900 H       
  38 H38            0.3541     2.3414     1.4941 H       
  39 H39            1.2591     2.9019     4.3318 H       
  40 H40            2.2287     2.3637     2.9395 H       
  41 H41            2.6579     3.8637     3.7963 H       
@<TRIPOS>BOND
   1    1    2 1
   2    1   10 1
   3    1   22 2
   4    2   23 1
   5    2   24 1
   6    2   25 1
   7    3    4 ar
   8    3   12 ar
   9    4    5 ar
  10    4   26 1
  11    5    6 ar
  12    5   27 1
  13    6    7 ar
  14    6   28 1
  15    7    8 ar
  16    7   12 ar
  17    8    9 ar
  18    8   21 1
  19    9   10 ar
  20    9   29 1
  21   10   11 ar
  22   11   12 ar
  23   11   13 1
  24   13   14 1
  25   13   17 1
  26   14   15 1
  27   14   18 1
  28   14   30 1
  29   15   16 1
  30   15   31 1
  31   15   32 1
  32   16   17 1
  33   16   33 1
  34   16   34 1
  35   17   35 1
  36   17   36 1
  37   18   19 1
  38   18   37 1
  39   18   38 1
  40   19   20 1
  41   20   39 1
  42   20   40 1
  43   20   41 1

#	End of record

