#	Name: ASD03330592
#	Creating user name:	WinNT
#	Creation time:	15. 06. 2019 20:37

#	Modifying user name:	WinNT
#	Modification time:	15. 06. 2019 20:37

#	Program:	/corina/corina34_cracker 3.40 0067  02.08.2006

@<TRIPOS>MOLECULE
ASD03330592
  68   70    0    0    0
SMALL
NO_CHARGES


@<TRIPOS>ATOM
   1 C1            -0.2800     1.3226     0.6924 C.2     
   2 N2            -0.3593    -0.0218     0.8314 N.pl3   
   3 C3             1.0375     1.6586     0.7769 C.2     
   4 N4             1.7426     0.5192     0.9481 N.2     
   5 C5             0.9117    -0.4960     0.9762 C.2     
   6 C6             1.2899    -1.9174     1.1383 C.ar    
   7 C7             1.5937     3.0208     0.6962 C.2     
   8 O8             0.8523     3.9721     0.5398 O.2     
   9 C9             3.4770     4.5668     0.7154 C.3     
  10 N10            2.9241     3.2125     0.7957 N.am    
  11 C11            3.6798     4.9487    -0.7522 C.3     
  12 C12            2.3209     5.0293    -1.4507 C.3     
  13 C13            4.3765     6.3084    -0.8338 C.3     
  14 C14            4.5447     3.8904    -1.4398 C.3     
  15 C15            4.8010     4.6122     1.4338 C.2     
  16 N16            5.3799     5.7986     1.7054 N.am    
  17 O17            5.3455     3.5812     1.7676 O.2     
  18 C18            6.6999     5.8414     2.3394 C.3     
  19 C19           -1.5984    -0.8043     0.8373 C.3     
  20 C20           -2.4791    -0.3605    -0.3348 C.3     
  21 C21           -3.3536     0.8137     0.0936 C.3     
  22 N22           -2.6536     1.6660     1.0570 N.3     
  23 C23           -1.4422     2.2548     0.4673 C.3     
  24 C24           -3.5445     2.7096     1.5813 C.3     
  25 C25            2.8774    -3.7002     0.8426 C.ar    
  26 C26            1.9905    -4.5835     1.4465 C.ar    
  27 C27            0.7586    -4.1386     1.8886 C.ar    
  28 C28            0.4039    -2.8134     1.7383 C.ar    
  29 C29            2.5298    -2.3666     0.6872 C.ar    
  30 N30            4.1211    -4.1544     0.3970 N.pl3   
  31 C31            4.4905    -5.5620     0.5663 C.3     
  32 C32            5.0559    -3.2233    -0.2396 C.3     
  33 H33            2.7864     5.2695     1.1816 H       
  34 H34            3.5154     2.4538     0.9204 H       
  35 H35            1.7047     5.7832    -0.9608 H       
  36 H36            2.4653     5.3013    -2.4962 H       
  37 H37            1.8245     4.0606    -1.3926 H       
  38 H38            5.3352     6.2570    -0.3177 H       
  39 H39            4.5401     6.5707    -1.8790 H       
  40 H40            3.7505     7.0663    -0.3627 H       
  41 H41            4.0483     2.9217    -1.3817 H       
  42 H42            4.6891     4.1625    -2.4854 H       
  43 H43            5.5128     3.8330    -0.9422 H       
  44 H44            4.9226     6.6241     1.4811 H       
  45 H45            7.4252     5.3340     1.7033 H       
  46 H46            7.0025     6.8792     2.4790 H       
  47 H47            6.6543     5.3429     3.3077 H       
  48 H48           -1.3610    -1.8631     0.7340 H       
  49 H49           -2.1292    -0.6389     1.7748 H       
  50 H50           -1.8466    -0.0562    -1.1687 H       
  51 H51           -3.1136    -1.1904    -0.6461 H       
  52 H52           -3.6141     1.4049    -0.7842 H       
  53 H53           -4.2665     0.4320     0.5507 H       
  54 H54           -1.2362     3.2148     0.9406 H       
  55 H55           -1.5912     2.3996    -0.6028 H       
  56 H56           -4.3951     2.2445     2.0797 H       
  57 H57           -2.9994     3.3282     2.2943 H       
  58 H58           -3.9002     3.3306     0.7591 H       
  59 H59            2.2644    -5.6208     1.5705 H       
  60 H60            0.0732    -4.8294     2.3569 H       
  61 H61           -0.5593    -2.4696     2.0853 H       
  62 H62            3.2173    -1.6786     0.2179 H       
  63 H63            4.1739    -6.1286    -0.3094 H       
  64 H64            5.5715    -5.6428     0.6800 H       
  65 H65            4.0009    -5.9618     1.4543 H       
  66 H66            5.3024    -2.4225     0.4576 H       
  67 H67            5.9656    -3.7553    -0.5181 H       
  68 H68            4.5953    -2.7992    -1.1318 H       
@<TRIPOS>BOND
   1    1    2 1
   2    1    3 2
   3    1   23 1
   4    2   19 1
   5    2    5 1
   6    3    4 1
   7    3    7 1
   8    4    5 2
   9    5    6 1
  10    6   29 ar
  11    6   28 ar
  12    7    8 2
  13    7   10 am
  14    9   10 1
  15    9   11 1
  16    9   15 1
  17    9   33 1
  18   10   34 1
  19   11   12 1
  20   11   13 1
  21   11   14 1
  22   12   35 1
  23   12   36 1
  24   12   37 1
  25   13   38 1
  26   13   39 1
  27   13   40 1
  28   14   41 1
  29   14   42 1
  30   14   43 1
  31   15   16 am
  32   15   17 2
  33   16   18 1
  34   16   44 1
  35   18   45 1
  36   18   46 1
  37   18   47 1
  38   19   20 1
  39   19   48 1
  40   19   49 1
  41   20   21 1
  42   20   50 1
  43   20   51 1
  44   21   22 1
  45   21   52 1
  46   21   53 1
  47   22   23 1
  48   22   24 1
  49   23   54 1
  50   23   55 1
  51   24   56 1
  52   24   57 1
  53   24   58 1
  54   25   26 ar
  55   25   30 1
  56   25   29 ar
  57   26   27 ar
  58   26   59 1
  59   27   28 ar
  60   27   60 1
  61   28   61 1
  62   29   62 1
  63   30   31 1
  64   30   32 1
  65   31   63 1
  66   31   64 1
  67   31   65 1
  68   32   66 1
  69   32   67 1
  70   32   68 1

#	End of record

