#	Name: ASD01817036
#	Creating user name:	WinNT
#	Creation time:	15. 06. 2019 19:36

#	Modifying user name:	WinNT
#	Modification time:	15. 06. 2019 19:36

#	Program:	/corina/corina34_cracker 3.40 0067  02.08.2006

@<TRIPOS>MOLECULE
ASD01817036
  59   62    0    0    0
SMALL
NO_CHARGES


@<TRIPOS>ATOM
   1 N1            -0.0178     1.4642     0.0101 N.3     
   2 C2             0.0021    -0.0041     0.0020 C.3     
   3 C3            -1.4271    -0.5342    -0.1339 C.3     
   4 C4            -2.2695    -0.0230     1.0380 C.3     
   5 C5            -2.2342     1.5077     1.0524 C.3     
   6 C6            -0.7816     1.9786     1.1540 C.3     
   7 C7             1.3463     2.0093    -0.0000 C.3     
   8 C8             1.2904     3.5190    -0.2419 C.3     
   9 C9             2.7112     4.0867    -0.2524 C.3     
  10 N10            2.6577     5.5323    -0.4840 N.am    
  11 C11            2.5687     6.3905     0.5555 C.2     
  12 C12            2.4764     7.8726     0.2957 C.3     
  13 O13            3.1918     8.1966    -0.8993 O.3     
  14 C14            2.9711     7.3998    -1.9789 C.ar    
  15 C15            2.7041     6.0465    -1.7876 C.ar    
  16 O16            2.5627     5.9702     1.6933 O.2     
  17 C17            3.0146     7.9200    -3.2606 C.ar    
  18 C18            2.7870     7.0948    -4.3471 C.ar    
  19 C19            2.5162     5.7521    -4.1576 C.ar    
  20 C20            2.4775     5.2246    -2.8791 C.ar    
  21 N21           -3.6529    -0.4793     0.8823 N.am    
  22 C22           -4.4464    -0.6066     1.9643 C.2     
  23 C23           -5.8694    -1.0760     1.8041 C.3     
  24 O24           -4.0151    -0.3433     3.0669 O.2     
  25 C25           -6.5350    -1.1319     3.1550 C.ar    
  26 C26           -7.1999    -0.0231     3.6443 C.ar    
  27 C27           -7.8104    -0.0743     4.8835 C.ar    
  28 C28           -7.7564    -1.2345     5.6331 C.ar    
  29 C29           -7.0924    -2.3436     5.1434 C.ar    
  30 C30           -6.4856    -2.2937     3.9024 C.ar    
  31 H31            0.6009    -0.3545    -0.8386 H       
  32 H32            0.4368    -0.3665     0.9335 H       
  33 H33           -1.8576    -0.1835    -1.0719 H       
  34 H34           -1.4134    -1.6241    -0.1242 H       
  35 H35           -1.8619    -0.4056     1.9738 H       
  36 H36           -2.6774     1.8906     0.1331 H       
  37 H37           -2.7972     1.8767     1.9097 H       
  38 H38           -0.3432     1.6069     2.0801 H       
  39 H39           -0.7520     3.0682     1.1500 H       
  40 H40            1.8233     1.8125     0.9601 H       
  41 H41            1.9212     1.5349    -0.7953 H       
  42 H42            0.8134     3.7158    -1.2020 H       
  43 H43            0.7155     3.9934     0.5535 H       
  44 H44            3.1882     3.8900     0.7077 H       
  45 H45            3.2861     3.6123    -1.0477 H       
  46 H46            1.4303     8.1563     0.1805 H       
  47 H47            2.9087     8.4159     1.1360 H       
  48 H48            3.2254     8.9683    -3.4122 H       
  49 H49            2.8207     7.5008    -5.3473 H       
  50 H50            2.3390     5.1131    -5.0101 H       
  51 H51            2.2661     4.1757    -2.7323 H       
  52 H52           -3.9978    -0.6899     0.0005 H       
  53 H53           -6.4106    -0.3822     1.1608 H       
  54 H54           -5.8760    -2.0689     1.3545 H       
  55 H55           -7.2420     0.8834     3.0586 H       
  56 H56           -8.3292     0.7922     5.2661 H       
  57 H57           -8.2328    -1.2743     6.6016 H       
  58 H58           -7.0500    -3.2499     5.7292 H       
  59 H59           -5.9668    -3.1602     3.5197 H       
@<TRIPOS>BOND
   1    1    2 1
   2    1    7 1
   3    1    6 1
   4    2    3 1
   5    2   31 1
   6    2   32 1
   7    3    4 1
   8    3   33 1
   9    3   34 1
  10    4    5 1
  11    4   21 1
  12    4   35 1
  13    5    6 1
  14    5   36 1
  15    5   37 1
  16    6   38 1
  17    6   39 1
  18    7    8 1
  19    7   40 1
  20    7   41 1
  21    8    9 1
  22    8   42 1
  23    8   43 1
  24    9   10 1
  25    9   44 1
  26    9   45 1
  27   10   11 am
  28   10   15 1
  29   11   12 1
  30   11   16 2
  31   12   13 1
  32   12   46 1
  33   12   47 1
  34   13   14 1
  35   14   15 ar
  36   14   17 ar
  37   15   20 ar
  38   17   18 ar
  39   17   48 1
  40   18   19 ar
  41   18   49 1
  42   19   20 ar
  43   19   50 1
  44   20   51 1
  45   21   22 am
  46   21   52 1
  47   22   23 1
  48   22   24 2
  49   23   25 1
  50   23   53 1
  51   23   54 1
  52   25   26 ar
  53   25   30 ar
  54   26   27 ar
  55   26   55 1
  56   27   28 ar
  57   27   56 1
  58   28   29 ar
  59   28   57 1
  60   29   30 ar
  61   29   58 1
  62   30   59 1

#	End of record

