#	Name: ASD04910541
#	Creating user name:	WinNT
#	Creation time:	15. 06. 2019 20:56

#	Modifying user name:	WinNT
#	Modification time:	15. 06. 2019 20:56

#	Program:	/corina/corina34_cracker 3.40 0067  02.08.2006

@<TRIPOS>MOLECULE
ASD04910541
  54   56    0    0    0
SMALL
NO_CHARGES


@<TRIPOS>ATOM
   1 C1            -0.1642     1.4803     0.0999 C.2     
   2 C2            -0.1045     0.0046     0.0642 C.ar    
   3 C3             1.1295    -0.6460     0.0053 C.ar    
   4 C4             1.1781    -2.0242    -0.0273 C.ar    
   5 C5             0.0076    -2.7617    -0.0024 C.ar    
   6 C6            -1.2187    -2.1233     0.0555 C.ar    
   7 C7            -1.2815    -0.7458     0.0949 C.ar    
   8 O8             0.8617     2.1304     0.0781 O.2     
   9 O9            -1.3566     2.1051     0.1511 O.3     
  10 C10            0.0685    -4.2670    -0.0388 C.3     
  11 C11           -0.1103    -4.8191     1.3769 C.3     
  12 C12            0.0755    -6.3376     1.3593 C.3     
  13 C13           -0.1034    -6.8897     2.7750 C.3     
  14 O14           -0.9737    -4.7657    -0.8798 O.3     
  15 C15           -0.7107    -5.8995    -1.5820 C.ar    
  16 C16            0.5517    -6.4720    -1.5262 C.ar    
  17 C17            0.8208    -7.6252    -2.2405 C.ar    
  18 C18           -0.1744    -8.2109    -3.0140 C.ar    
  19 C19           -1.4388    -7.6365    -3.0686 C.ar    
  20 C20           -1.7065    -6.4861    -2.3492 C.ar    
  21 N21            0.0976    -9.3817    -3.7402 N.pl3   
  22 N22            1.3206   -10.0639    -3.7766 N.2     
  23 C23            1.1855   -11.1048    -4.5591 C.2     
  24 C24           -0.1257   -11.1192    -5.0457 C.2     
  25 C25           -0.7760   -10.0530    -4.5231 C.2     
  26 C26           -0.7127   -12.1439    -5.9819 C.3     
  27 F27            0.2609   -13.0969    -6.2999 F       
  28 F28           -1.7974   -12.7742    -5.3628 F       
  29 F29           -1.1464   -11.5120    -7.1523 F       
  30 F30           -2.4073    -8.2045    -3.8200 F       
  31 F31            2.0505    -8.1820    -2.1867 F       
  32 C32           -1.3393     3.5566     0.1839 C.3     
  33 C33           -2.7750     4.0825     0.2403 C.3     
  34 H34            2.0439    -0.0716    -0.0150 H       
  35 H35            2.1319    -2.5288    -0.0729 H       
  36 H36           -2.1285    -2.7049     0.0740 H       
  37 H37           -2.2391    -0.2489     0.1449 H       
  38 H38            1.0350    -4.5821    -0.4323 H       
  39 H39            0.6306    -4.3700     2.0383 H       
  40 H40           -1.1111    -4.5796     1.7365 H       
  41 H41           -0.6654    -6.7867     0.6979 H       
  42 H42            1.0762    -6.5771     0.9997 H       
  43 H43            0.0290    -7.9716     2.7625 H       
  44 H44            0.6375    -6.4406     3.4364 H       
  45 H45           -1.1041    -6.6503     3.1346 H       
  46 H46            1.3248    -6.0167    -0.9251 H       
  47 H47           -2.6901    -6.0418    -2.3881 H       
  48 H48            1.9542   -11.8276    -4.7896 H       
  49 H49           -1.8070    -9.7856    -4.7016 H       
  50 H50           -0.7940     3.8936     1.0654 H       
  51 H51           -0.8489     3.9345    -0.7132 H       
  52 H52           -3.3203     3.7455    -0.6413 H       
  53 H53           -3.2654     3.7046     1.1374 H       
  54 H54           -2.7620     5.1722     0.2649 H       
@<TRIPOS>BOND
   1    1    2 1
   2    1    8 2
   3    1    9 1
   4    2    3 ar
   5    2    7 ar
   6    3    4 ar
   7    3   34 1
   8    4    5 ar
   9    4   35 1
  10    5    6 ar
  11    5   10 1
  12    6    7 ar
  13    6   36 1
  14    7   37 1
  15    9   32 1
  16   10   11 1
  17   10   14 1
  18   10   38 1
  19   11   12 1
  20   11   39 1
  21   11   40 1
  22   12   13 1
  23   12   41 1
  24   12   42 1
  25   13   43 1
  26   13   44 1
  27   13   45 1
  28   14   15 1
  29   15   16 ar
  30   15   20 ar
  31   16   17 ar
  32   16   46 1
  33   17   18 ar
  34   17   31 1
  35   18   19 ar
  36   18   21 1
  37   19   20 ar
  38   19   30 1
  39   20   47 1
  40   21   22 1
  41   21   25 1
  42   22   23 2
  43   23   24 1
  44   23   48 1
  45   24   25 2
  46   24   26 1
  47   25   49 1
  48   26   27 1
  49   26   28 1
  50   26   29 1
  51   32   33 1
  52   32   50 1
  53   32   51 1
  54   33   52 1
  55   33   53 1
  56   33   54 1

#	End of record

