#	Name: ASD03730134
#	Creating user name:	WinNT
#	Creation time:	15. 06. 2019 20:44

#	Modifying user name:	WinNT
#	Modification time:	15. 06. 2019 20:44

#	Program:	/corina/corina34_cracker 3.40 0067  02.08.2006

@<TRIPOS>MOLECULE
ASD03730134
  45   49    0    0    0
SMALL
NO_CHARGES


@<TRIPOS>ATOM
   1 C1             0.0021    -0.0041     0.0020 C.1     
   2 C2            -0.0179     1.4678     0.0101 C.3     
   3 C3             1.4175     1.9974    -0.0007 C.3     
   4 C4             1.3967     3.5272     0.0077 C.3     
   5 C5             2.8321     4.0568    -0.0032 C.3     
   6 N6             0.0175    -1.1399    -0.0042 N.1     
   7 O7            -1.9509     8.9478     2.2085 O.3     
   8 C8            -2.3696    10.3019     2.4620 C.3     
   9 O9            -1.1826    10.9373     2.9722 O.3     
  10 C10           -0.1364    10.2447     2.4331 C.ar    
  11 C11           -0.6093     9.0211     1.9646 C.ar    
  12 C12            1.2029    10.5651     2.3012 C.ar    
  13 C13            2.0861     9.6710     1.7036 C.ar    
  14 C14            1.6035     8.4483     1.2470 C.ar    
  15 C15            0.2676     8.1285     1.3715 C.ar    
  16 O16            3.4228     9.7956     1.4628 O.3     
  17 C17            2.7852     7.7031     0.6864 C.3     
  18 C18            3.9866     8.4911     1.2262 C.3     
  19 N19            2.8123     5.5216     0.0049 N.am    
  20 C20            2.8132     6.2680     1.1273 C.2     
  21 C21            2.7732     7.6585    -0.8128 C.ar    
  22 C22            2.7501     8.6252    -1.7932 C.ar    
  23 C23            2.7457     8.2590    -3.1274 C.ar    
  24 C24            2.7637     6.9201    -3.4737 C.ar    
  25 C25            2.7858     5.9482    -2.4954 C.ar    
  26 C26            2.7909     6.3076    -1.1498 C.ar    
  27 O27            2.8332     5.8604     2.2695 O.2     
  28 H28           -0.5451     1.8289    -0.8729 H       
  29 H29           -0.5281     1.8193     0.9069 H       
  30 H30            1.9447     1.6363     0.8823 H       
  31 H31            1.9277     1.6458    -0.8975 H       
  32 H32            0.8696     3.8883    -0.8754 H       
  33 H33            0.8866     3.8787     0.9045 H       
  34 H34            3.3593     3.6957     0.8799 H       
  35 H35            3.3423     3.7053    -0.9000 H       
  36 H36           -2.6940    10.7816     1.5386 H       
  37 H37           -3.1657    10.3236     3.2062 H       
  38 H38            1.5654    11.5154     2.6645 H       
  39 H39           -0.0953     7.1793     1.0057 H       
  40 H40            4.7818     8.5422     0.4825 H       
  41 H41            4.3513     8.0528     2.1551 H       
  42 H42            2.7359     9.6701    -1.5205 H       
  43 H43            2.7285     9.0169    -3.8966 H       
  44 H44            2.7601     6.6344    -4.5152 H       
  45 H45            2.7993     4.9048    -2.7737 H       
@<TRIPOS>BOND
   1    1    2 1
   2    1    6 3
   3    2    3 1
   4    2   28 1
   5    2   29 1
   6    3    4 1
   7    3   30 1
   8    3   31 1
   9    4    5 1
  10    4   32 1
  11    4   33 1
  12    5   19 1
  13    5   34 1
  14    5   35 1
  15    7    8 1
  16    7   11 1
  17    8    9 1
  18    8   36 1
  19    8   37 1
  20    9   10 1
  21   10   11 ar
  22   10   12 ar
  23   11   15 ar
  24   12   13 ar
  25   12   38 1
  26   13   14 ar
  27   13   16 1
  28   14   15 ar
  29   14   17 1
  30   15   39 1
  31   16   18 1
  32   17   18 1
  33   17   20 1
  34   17   21 1
  35   18   40 1
  36   18   41 1
  37   19   20 am
  38   19   26 1
  39   20   27 2
  40   21   22 ar
  41   21   26 ar
  42   22   23 ar
  43   22   42 1
  44   23   24 ar
  45   23   43 1
  46   24   25 ar
  47   24   44 1
  48   25   26 ar
  49   25   45 1

#	End of record

