#	Name: ASD03090300
#	Creating user name:	WinNT
#	Creation time:	15. 06. 2019 20:28

#	Modifying user name:	WinNT
#	Modification time:	15. 06. 2019 20:28

#	Program:	/corina/corina34_cracker 3.40 0067  02.08.2006

@<TRIPOS>MOLECULE
ASD03090300
  50   53    0    0    0
SMALL
NO_CHARGES


@<TRIPOS>ATOM
   1 C1             0.2779     1.1430     0.7982 C.ar    
   2 N2            -0.8287     1.5625     1.3816 N.ar    
   3 C3            -1.9706     0.9201     1.2498 C.ar    
   4 C4            -2.0473    -0.2400     0.4788 C.ar    
   5 C5            -0.8906    -0.7099    -0.1523 C.ar    
   6 C6             0.2833     0.0047     0.0130 C.ar    
   7 C7            -3.3306    -0.9618     0.3315 C.2     
   8 N8            -6.8337    -1.2247     0.4628 N.pl3   
   9 C9            -7.3391    -0.0316     0.9859 C.ar    
  10 C10           -8.5804     0.4378     0.5744 C.ar    
  11 C11           -9.0798     1.6174     1.0918 C.ar    
  12 C12           -8.3471     2.3331     2.0192 C.ar    
  13 C13           -7.1064     1.8691     2.4342 C.ar    
  14 C14           -6.6042     0.6835     1.9220 C.ar    
  15 N15           -4.5301    -0.4654     0.5598 N.2     
  16 C16           -5.4550    -1.3976     0.3243 C.2     
  17 N17           -4.8603    -2.5039    -0.0582 N.2     
  18 N18           -3.4801    -2.2449    -0.0668 N.pl3   
  19 C19           -2.4133    -3.1821    -0.4272 C.3     
  20 C20           -2.1526    -3.1006    -1.9092 C.2     
  21 N21           -1.2059    -3.8784    -2.4706 N.am    
  22 O22           -6.3869     2.5745     3.3461 O.3     
  23 O23           -2.7946    -2.3351    -2.5967 O.2     
  24 C24           -0.9524    -3.7992    -3.9114 C.3     
  25 C25            1.5553     1.9203     0.9857 C.3     
  26 C26            2.5041     1.4631     2.0955 C.3     
  27 C27            2.8677     1.2192     0.6295 C.3     
  28 C28           -6.9683     3.7847     3.8355 C.3     
  29 F29           -8.1872     3.4975     4.4591 F       
  30 F30           -6.1009     4.3789     4.7584 F       
  31 F31           -7.1860     4.6624     2.7681 F       
  32 H32           -2.8554     1.2944     1.7432 H       
  33 H33           -0.9138    -1.6049    -0.7563 H       
  34 H34            1.1957    -0.3279    -0.4596 H       
  35 H35           -7.4405    -1.9327     0.1957 H       
  36 H36           -9.1549    -0.1196    -0.1506 H       
  37 H37          -10.0447     1.9809     0.7705 H       
  38 H38           -8.7402     3.2551     2.4216 H       
  39 H39           -5.6392     0.3207     2.2440 H       
  40 H40           -1.5044    -2.9244     0.1164 H       
  41 H41           -2.7172    -4.1960    -0.1669 H       
  42 H42           -0.6924    -4.4907    -1.9208 H       
  43 H43           -0.1587    -4.4965    -4.1795 H       
  44 H44           -1.8614    -4.0569    -4.4549 H       
  45 H45           -0.6485    -2.7853    -4.1716 H       
  46 H46            1.4871     2.9907     0.7911 H       
  47 H47            3.0604     2.2326     2.6307 H       
  48 H48            2.2044     0.6001     2.6900 H       
  49 H49            2.8072     0.1957     0.2596 H       
  50 H50            3.6632     1.8282     0.2003 H       
@<TRIPOS>BOND
   1    1    2 ar
   2    1   25 1
   3    1    6 ar
   4    2    3 ar
   5    3    4 ar
   6    3   32 1
   7    4    5 ar
   8    4    7 1
   9    5    6 ar
  10    5   33 1
  11    6   34 1
  12    7   15 2
  13    7   18 1
  14    8    9 1
  15    8   16 1
  16    8   35 1
  17    9   10 ar
  18    9   14 ar
  19   10   11 ar
  20   10   36 1
  21   11   12 ar
  22   11   37 1
  23   12   13 ar
  24   12   38 1
  25   13   14 ar
  26   13   22 1
  27   14   39 1
  28   15   16 1
  29   16   17 2
  30   17   18 1
  31   18   19 1
  32   19   20 1
  33   19   40 1
  34   19   41 1
  35   20   21 am
  36   20   23 2
  37   21   24 1
  38   21   42 1
  39   22   28 1
  40   24   43 1
  41   24   44 1
  42   24   45 1
  43   25   26 1
  44   25   27 1
  45   25   46 1
  46   26   27 1
  47   26   47 1
  48   26   48 1
  49   27   49 1
  50   27   50 1
  51   28   29 1
  52   28   30 1
  53   28   31 1

#	End of record

