#	Name: ASD05390016
#	Creating user name:	WinNT
#	Creation time:	15. 06. 2019 20:59

#	Modifying user name:	WinNT
#	Modification time:	15. 06. 2019 20:59

#	Program:	/corina/corina34_cracker 3.40 0067  02.08.2006

@<TRIPOS>MOLECULE
ASD05390016
  17   17    0    0    0
SMALL
NO_CHARGES


@<TRIPOS>ATOM
   1 C1            -0.0167     1.3780     0.0096 C.ar    
   2 Cl2           -3.9265     2.1923     0.0518 Cl      
   3 C3             0.0021    -0.0041     0.0020 C.ar    
   4 C4            -1.1855    -0.7122     0.0096 C.ar    
   5 C5            -2.3919    -0.0384     0.0247 C.ar    
   6 C6            -2.4113     1.3452     0.0328 C.ar    
   7 C7            -1.2228     2.0530     0.0305 C.ar    
   8 S8            -3.9052    -0.9409     0.0331 S.o2    
   9 N9            -4.6554    -0.6266     1.4756 N.am    
  10 O10           -4.7214    -0.3652    -0.9776 O.2     
  11 O11           -3.5515    -2.3170     0.0563 O.2     
  12 H12           -1.2373     3.1329     0.0406 H       
  13 H13           -1.1702    -1.7920     0.0032 H       
  14 H14            0.9113     1.9305     0.0037 H       
  15 H15            0.9447    -0.5311    -0.0102 H       
  16 H16           -4.2377    -0.0346     2.1206 H       
  17 H17           -5.5125    -1.0344     1.6755 H       
@<TRIPOS>BOND
   1    1    3 ar
   2    1   14 1
   3    1    7 ar
   4    2    6 1
   5    3    4 ar
   6    3   15 1
   7    4   13 1
   8    4    5 ar
   9    5    8 1
  10    5    6 ar
  11    6    7 ar
  12    7   12 1
  13    8   10 2
  14    8   11 2
  15    8    9 am
  16    9   16 1
  17    9   17 1

#	End of record

