#	Name: ASD01028299
#	Creating user name:	WinNT
#	Creation time:	15. 06. 2019 18:56

#	Modifying user name:	WinNT
#	Modification time:	15. 06. 2019 18:56

#	Program:	/corina/corina34_cracker 3.40 0067  02.08.2006

@<TRIPOS>MOLECULE
ASD01028299
  69   73    0    0    0
SMALL
NO_CHARGES


@<TRIPOS>ATOM
   1 C1            -0.2376     2.2841     0.3527 C.ar    
   2 C2            -0.2009     0.9189     0.1832 C.ar    
   3 C3             0.9438     3.0303     0.4049 C.ar    
   4 C4             2.1560     2.4236     0.2893 C.ar    
   5 C5             2.2272     1.0332     0.1156 C.ar    
   6 C6             1.0373     0.2675     0.0613 C.ar    
   7 C7             3.4704     0.3730    -0.0081 C.ar    
   8 C8             3.4620    -1.0001    -0.1774 C.ar    
   9 C9             2.2523    -1.6816    -0.2207 C.ar    
  10 N10            1.1030    -1.0588    -0.1044 N.ar    
  11 O11            4.6360     1.0641     0.0375 O.3     
  12 C12            5.8427     0.3105    -0.0964 C.3     
  13 C13            7.0264     1.2402    -0.0221 C.2     
  14 N14            7.6895     1.5988     1.0990 N.pl3   
  15 C15            8.6878     2.4523     0.6926 C.2     
  16 N16            8.5829     2.5658    -0.6213 N.2     
  17 N17            7.6014     1.8419    -1.0335 N.2     
  18 N18            7.5460     1.2829     2.4515 N.2     
  19 C19            8.3610     1.7965     3.3462 C.2     
  20 C20            9.3953     2.6754     2.9606 C.2     
  21 C21            9.5604     3.0010     1.6514 C.2     
  22 C22            8.1908     1.4482     4.7783 C.ar    
  23 O23           -1.4354     2.9146     0.4650 O.3     
  24 C24           -1.4082     4.3327     0.6391 C.3     
  25 C25            7.1727     0.5816     5.1708 C.ar    
  26 C26            9.0523     1.9819     5.7348 C.ar    
  27 C27            8.8895     1.6538     7.0664 C.ar    
  28 Cl28           9.9613     2.3174     8.2600 Cl      
  29 C29            7.8723     0.7967     7.4509 C.ar    
  30 C30            7.6987     0.4422     8.9053 C.3     
  31 C31            7.0188     0.2602     6.5044 C.ar    
  32 N32            6.2969     0.1020     9.1611 N.am    
  33 C33            8.5851    -0.7570     9.2473 C.3     
  34 C34            5.7722     0.2854    10.3889 C.2     
  35 O35            4.4839    -0.0273    10.6240 O.3     
  36 O36            6.4618     0.7328    11.2838 O.2     
  37 C37            3.9862     0.1963    11.9696 C.3     
  38 C38            4.1206     1.6788    12.3233 C.3     
  39 C39            2.5142    -0.2143    12.0437 C.3     
  40 C40            4.7994    -0.6400    12.9596 C.3     
  41 H41           -1.1191     0.3516     0.1446 H       
  42 H42            0.8934     4.1009     0.5381 H       
  43 H43            3.0614     3.0109     0.3308 H       
  44 H44            4.3922    -1.5400    -0.2760 H       
  45 H45            2.2578    -2.7534    -0.3533 H       
  46 H46            5.9049    -0.4219     0.7084 H       
  47 H47            5.8449    -0.2043    -1.0572 H       
  48 H48           10.0569     3.0898     3.7068 H       
  49 H49           10.3505     3.6731     1.3505 H       
  50 H50           -2.4284     4.7091     0.7149 H       
  51 H51           -0.8624     4.5765     1.5505 H       
  52 H52           -0.9132     4.7943    -0.2154 H       
  53 H53            6.5049     0.1624     4.4329 H       
  54 H54            9.8459     2.6506     5.4354 H       
  55 H55            7.9846     1.2933     9.5234 H       
  56 H56            6.2298    -0.4114     6.8093 H       
  57 H57            5.7464    -0.2551     8.4468 H       
  58 H58            9.6281    -0.5039     9.0570 H       
  59 H59            8.4596    -1.0134    10.2993 H       
  60 H60            8.2992    -1.6082     8.6293 H       
  61 H61            3.5413     2.2746    11.6180 H       
  62 H62            3.7471     1.8466    13.3335 H       
  63 H63            5.1693     1.9713    12.2705 H       
  64 H64            2.4184    -1.2704    11.7917 H       
  65 H65            2.1406    -0.0464    13.0539 H       
  66 H66            1.9349     0.3815    11.3384 H       
  67 H67            5.8481    -0.3475    12.9068 H       
  68 H68            4.4259    -0.4722    13.9698 H       
  69 H69            4.7037    -1.6962    12.7076 H       
@<TRIPOS>BOND
   1    1    2 ar
   2    1    3 ar
   3    1   23 1
   4    2    6 ar
   5    2   41 1
   6    3    4 ar
   7    3   42 1
   8    4    5 ar
   9    4   43 1
  10    5    6 ar
  11    5    7 ar
  12    6   10 ar
  13    7    8 ar
  14    7   11 1
  15    8    9 ar
  16    8   44 1
  17    9   10 ar
  18    9   45 1
  19   11   12 1
  20   12   13 1
  21   12   46 1
  22   12   47 1
  23   13   14 1
  24   13   17 2
  25   14   15 1
  26   14   18 1
  27   15   16 2
  28   15   21 1
  29   16   17 1
  30   18   19 2
  31   19   20 1
  32   19   22 1
  33   20   21 2
  34   20   48 1
  35   21   49 1
  36   22   25 ar
  37   22   26 ar
  38   23   24 1
  39   24   50 1
  40   24   51 1
  41   24   52 1
  42   25   31 ar
  43   25   53 1
  44   26   27 ar
  45   26   54 1
  46   27   28 1
  47   27   29 ar
  48   29   30 1
  49   29   31 ar
  50   30   32 1
  51   30   33 1
  52   30   55 1
  53   31   56 1
  54   32   34 am
  55   32   57 1
  56   33   58 1
  57   33   59 1
  58   33   60 1
  59   34   35 1
  60   34   36 2
  61   35   37 1
  62   37   38 1
  63   37   39 1
  64   37   40 1
  65   38   61 1
  66   38   62 1
  67   38   63 1
  68   39   64 1
  69   39   65 1
  70   39   66 1
  71   40   67 1
  72   40   68 1
  73   40   69 1

#	End of record

