#	Name: ASD01410010
#	Creating user name:	WinNT
#	Creation time:	15. 06. 2019 19:16

#	Modifying user name:	WinNT
#	Modification time:	15. 06. 2019 19:16

#	Program:	/corina/corina34_cracker 3.40 0067  02.08.2006

@<TRIPOS>MOLECULE
ASD01410010
  80   84    0    0    0
SMALL
NO_CHARGES


@<TRIPOS>ATOM
   1 C1             0.3177     2.4464    -0.3603 C.3     
   2 C2             0.3207     1.1223     0.4120 C.3     
   3 O3             1.1130     0.1730    -0.3111 O.3     
   4 C4             2.3810     0.5439    -0.5925 C.2     
   5 C5             2.7003     1.9136    -0.7479 C.2     
   6 C6             1.7431     2.8525    -0.6415 C.2     
   7 C7             0.9217     1.3400     1.8021 C.3     
   8 C8             0.0878     2.3685     2.6058 C.3     
   9 C9             0.3975     2.0372     4.0803 C.3     
  10 C10            0.8503     0.5670     4.1147 C.3     
  11 C11            0.7999     0.0561     2.6600 C.3     
  12 C12           -1.1118     0.6014     0.5438 C.3     
  13 C13           -1.7329     0.4596    -0.8473 C.3     
  14 C14           -3.1439    -0.0535    -0.7176 C.ar    
  15 C15           -4.1939     0.8366    -0.5927 C.ar    
  16 C16           -5.4890     0.3672    -0.4731 C.ar    
  17 C17           -5.7349    -0.9925    -0.4783 C.ar    
  18 C18           -4.6837    -1.8852    -0.6038 C.ar    
  19 C19           -3.3880    -1.4140    -0.7291 C.ar    
  20 F20           -4.9229    -3.2148    -0.6089 F       
  21 C21           -7.1464    -1.5038    -0.3469 C.3     
  22 O22            2.0573     4.1554    -0.7853 O.3     
  23 C23            4.1220     2.3231    -1.0344 C.3     
  24 O24            3.2491    -0.3001    -0.7119 O.2     
  25 C25            4.8843     2.4317     0.2611 C.2     
  26 N26            5.5554     1.4440     0.8379 N.2     
  27 C27            6.1103     1.8762     1.9647 C.2     
  28 N28            5.7730     3.1934     2.1022 N.pl3   
  29 N29            4.9897     3.5191     0.9873 N.2     
  30 N30            6.8701     1.2742     2.8872 N.2     
  31 C31            7.3045     1.9334     3.9370 C.2     
  32 C32            6.9770     3.2841     4.1087 C.2     
  33 C33            6.2072     3.9035     3.1774 C.2     
  34 C34            5.8385     5.3563     3.3337 C.3     
  35 C35            8.1588     1.2327     4.9618 C.3     
  36 C36           -7.5483    -2.2280    -1.6334 C.3     
  37 C37           -7.2294    -2.4750     0.8324 C.3     
  38 N38           -8.0544    -0.3773    -0.1167 N.am    
  39 S39           -9.6604    -0.5177    -0.4951 S.o2    
  40 O40          -10.2295     0.7129    -0.0696 O.2     
  41 O41           -9.6661    -0.8923    -1.8658 O.2     
  42 C42          -10.2517    -1.8844     0.5408 C.3     
  43 H43           -0.2178     2.3188    -1.3011 H       
  44 H44           -0.1699     3.2164     0.2375 H       
  45 H45            1.9609     1.6601     1.7262 H       
  46 H46            0.4035     3.3844     2.3686 H       
  47 H47           -0.9752     2.2408     2.4013 H       
  48 H48            1.1953     2.6823     4.4483 H       
  49 H49           -0.4980     2.1664     4.6881 H       
  50 H50            1.8679     0.4986     4.4994 H       
  51 H51            0.1745    -0.0173     4.7392 H       
  52 H52           -0.1481    -0.4450     2.4642 H       
  53 H53            1.6354    -0.6155     2.4623 H       
  54 H54           -1.1011    -0.3703     1.0376 H       
  55 H55           -1.7006     1.3028     1.1348 H       
  56 H56           -1.7436     1.4313    -1.3412 H       
  57 H57           -1.1441    -0.2419    -1.4383 H       
  58 H58           -4.0027     1.8995    -0.5882 H       
  59 H59           -6.3087     1.0636    -0.3753 H       
  60 H60           -2.5674    -2.1092    -0.8270 H       
  61 H61            1.5650     4.6548    -1.4511 H       
  62 H62            4.5939     1.5756    -1.6721 H       
  63 H63            4.1271     3.2883    -1.5409 H       
  64 H64            7.3327     3.8269     4.9720 H       
  65 H65            6.2777     5.7459     4.2520 H       
  66 H66            6.2173     5.9210     2.4817 H       
  67 H67            4.7538     5.4530     3.3803 H       
  68 H68            8.3072     0.1951     4.6628 H       
  69 H69            9.1250     1.7323     5.0322 H       
  70 H70            7.6621     1.2639     5.9315 H       
  71 H71           -6.8727    -3.0661    -1.8047 H       
  72 H72           -8.5692    -2.5978    -1.5383 H       
  73 H73           -7.4892    -1.5361    -2.4735 H       
  74 H74           -6.8718    -1.9809     1.7358 H       
  75 H75           -8.2641    -2.7869     0.9741 H       
  76 H76           -6.6113    -3.3491     0.6274 H       
  77 H77           -7.7148     0.4507     0.2574 H       
  78 H78           -9.9489    -1.7145     1.5741 H       
  79 H79          -11.3390    -1.9385     0.4851 H       
  80 H80           -9.8227    -2.8214     0.1858 H       
@<TRIPOS>BOND
   1    1    2 1
   2    1    6 1
   3    1   43 1
   4    1   44 1
   5    2    3 1
   6    2    7 1
   7    2   12 1
   8    3    4 1
   9    4    5 1
  10    4   24 2
  11    5    6 2
  12    5   23 1
  13    6   22 1
  14    7    8 1
  15    7   11 1
  16    7   45 1
  17    8    9 1
  18    8   46 1
  19    8   47 1
  20    9   10 1
  21    9   48 1
  22    9   49 1
  23   10   11 1
  24   10   50 1
  25   10   51 1
  26   11   52 1
  27   11   53 1
  28   12   13 1
  29   12   54 1
  30   12   55 1
  31   13   14 1
  32   13   56 1
  33   13   57 1
  34   14   15 ar
  35   14   19 ar
  36   15   16 ar
  37   15   58 1
  38   16   17 ar
  39   16   59 1
  40   17   18 ar
  41   17   21 1
  42   18   19 ar
  43   18   20 1
  44   19   60 1
  45   21   36 1
  46   21   37 1
  47   21   38 1
  48   22   61 1
  49   23   25 1
  50   23   62 1
  51   23   63 1
  52   25   26 1
  53   25   29 2
  54   26   27 2
  55   27   28 1
  56   27   30 1
  57   28   29 1
  58   28   33 1
  59   30   31 2
  60   31   32 1
  61   31   35 1
  62   32   33 2
  63   32   64 1
  64   33   34 1
  65   34   65 1
  66   34   66 1
  67   34   67 1
  68   35   68 1
  69   35   69 1
  70   35   70 1
  71   36   71 1
  72   36   72 1
  73   36   73 1
  74   37   74 1
  75   37   75 1
  76   37   76 1
  77   38   39 am
  78   38   77 1
  79   39   40 2
  80   39   41 2
  81   39   42 1
  82   42   78 1
  83   42   79 1
  84   42   80 1

#	End of record

