#	Name: ASD06300010
#	Creating user name:	WinNT
#	Creation time:	15. 06. 2019 21:05

#	Modifying user name:	WinNT
#	Modification time:	15. 06. 2019 21:05

#	Program:	/corina/corina34_cracker 3.40 0067  02.08.2006

@<TRIPOS>MOLECULE
ASD06300010
 291  297    0    0    0
SMALL
NO_CHARGES


@<TRIPOS>ATOM
   1 N1            -1.7936    -1.5244     3.2098 N.am    
   2 C2           -16.3728   -26.7260    -2.7995 C.3     
   3 C3           -15.1981   -25.9913    -2.2066 C.2     
   4 N4           -16.2090   -28.1654    -2.5818 N.am    
   5 O5           -14.3114   -26.6093    -1.6563 O.2     
   6 C6           -19.3281   -28.1077    -2.3470 C.ar    
   7 C7           -20.4144   -28.6970    -2.9664 C.ar    
   8 C8           -21.0192   -28.0733    -4.0416 C.ar    
   9 C9           -20.5382   -26.8600    -4.4970 C.ar    
  10 C10          -19.4516   -26.2709    -3.8779 C.ar    
  11 C11          -18.8467   -26.8947    -2.8028 C.ar    
  12 C12          -17.6628   -26.2520    -2.1272 C.3     
  13 C13          -17.1751   -30.8955    -1.7987 C.3     
  14 C14          -16.6413   -30.5253    -3.1839 C.3     
  15 C15          -16.8098   -29.0446    -3.4079 C.2     
  16 N16          -17.3869   -31.2620    -4.2074 N.am    
  17 O17          -17.4861   -28.6441    -4.3315 O.2     
  18 N18          -17.1537   -34.1583     0.1300 N.pl3   
  19 C19          -17.5449   -34.7212     1.3218 C.2     
  20 N20          -18.1573   -33.9961     2.2151 N.2     
  21 N21          -17.2901   -36.0490     1.5712 N.pl3   
  22 C22          -16.8915   -32.3732    -1.5210 C.3     
  23 C23          -17.4252   -32.7434    -0.1358 C.3     
  24 C24          -14.2436   -23.6847    -0.2230 C.3     
  25 C25          -13.9910   -23.9335    -1.7114 C.3     
  26 C26          -13.8147   -22.6143    -2.4183 C.2     
  27 N27          -15.1329   -24.6476    -2.2878 N.am    
  28 O28          -14.5686   -22.3015    -3.3153 O.2     
  29 C29          -14.2986   -25.0234     0.5157 C.3     
  30 C30          -12.9287   -25.7013     0.4454 C.3     
  31 C31          -14.6742   -24.7832     1.9793 C.3     
  32 C32          -13.5603   -19.4519    -2.1005 C.3     
  33 C33          -12.6477   -20.4998    -2.7410 C.3     
  34 C34          -11.2126   -20.0550    -2.6239 C.2     
  35 N35          -12.8191   -21.7822    -2.0537 N.am    
  36 O36          -10.4119   -20.7416    -2.0253 O.2     
  37 C37           -8.5968   -19.1097    -4.1828 C.3     
  38 C38           -9.4239   -18.4618    -3.0705 C.3     
  39 C39           -9.3508   -16.9621    -3.1987 C.2     
  40 N40          -10.8190   -18.8942    -3.1844 N.am    
  41 O41          -10.3642   -16.3178    -3.3684 O.2     
  42 C42           -8.5689   -20.6031    -3.9831 C.2     
  43 C43           -7.6156   -21.3067    -3.3520 C.2     
  44 N44           -7.9307   -22.6381    -3.3683 N.pl3   
  45 C45           -9.1247   -22.8285    -4.0270 C.ar    
  46 C46           -9.5799   -21.5618    -4.4355 C.ar    
  47 C47           -9.8859   -23.9546    -4.3238 C.ar    
  48 C48          -11.0685   -23.8178    -5.0168 C.ar    
  49 C49          -11.5103   -22.5660    -5.4232 C.ar    
  50 C50          -10.7856   -21.4454    -5.1300 C.ar    
  51 C51           -4.0646   -12.8837    -3.0050 C.3     
  52 C52           -5.2406   -12.6120    -2.0646 C.3     
  53 C53           -5.3430   -11.1314    -1.8031 C.2     
  54 N54           -6.4808   -13.0854    -2.6843 N.am    
  55 O55           -6.3526   -10.5308    -2.1046 O.2     
  56 C56           -3.7111   -14.3478    -2.9572 C.2     
  57 C57           -3.1262   -14.9952    -1.9370 C.2     
  58 N58           -2.9623   -16.3159    -2.2553 N.pl3   
  59 C59           -3.4501   -16.5565    -3.5202 C.ar    
  60 C60           -3.9462   -15.3359    -4.0128 C.ar    
  61 C61           -3.5314   -17.6957    -4.3147 C.ar    
  62 C62           -4.0886   -17.6146    -5.5718 C.ar    
  63 C63           -4.5711   -16.4062    -6.0560 C.ar    
  64 C64           -4.5142   -15.2782    -5.2871 C.ar    
  65 C65           -8.0320   -14.4955    -4.7294 C.3     
  66 C66           -8.0881   -14.8788    -3.2493 C.3     
  67 C67           -6.8504   -14.3748    -2.5527 C.2     
  68 N68           -8.1592   -16.3367    -3.1247 N.am    
  69 O69           -6.1869   -15.1296    -1.8737 O.2     
  70 C70           -9.3605   -14.8524    -5.3993 C.3     
  71 C71           -9.3044   -14.4692    -6.8795 C.3     
  72 C72          -10.6328   -14.8261    -7.5494 C.3     
  73 N73          -10.5790   -14.4582    -8.9705 N.3     
  74 C74           -2.9431    -7.4161     3.0499 C.3     
  75 C75           -2.3747    -7.0956     1.6660 C.3     
  76 C76           -2.0571    -5.6248     1.5817 C.2     
  77 N77           -3.3620    -7.4415     0.6405 N.am    
  78 O78           -2.6019    -4.9337     0.7472 O.2     
  79 C79           -3.1489    -8.9267     3.1793 C.3     
  80 C80           -3.7087    -9.2424     4.5424 C.2     
  81 O81           -3.9213    -8.3507     5.3295 O.2     
  82 O82           -3.9712   -10.5142     4.8820 O.3     
  83 C83           -4.2202    -8.1979    -2.1222 C.3     
  84 C84           -4.4519    -9.0601    -0.8797 C.3     
  85 C85           -3.4362    -8.7042     0.1752 C.2     
  86 N86           -4.3127   -10.4747    -1.2341 N.am    
  87 O87           -2.6857    -9.5541     0.6055 O.2     
  88 C88           -2.8409    -8.5073    -2.7077 C.3     
  89 C89           -2.6684    -7.7577    -4.0303 C.3     
  90 C90           -1.7574    -8.0614    -1.7238 C.3     
  91 C91            0.5359    -3.3935     2.9267 C.3     
  92 C92           -0.8590    -3.6478     2.3518 C.3     
  93 C93           -1.8779    -2.8678     3.1421 C.2     
  94 N94           -1.1677    -5.0776     2.4337 N.am    
  95 O95           -2.7737    -3.4489     3.7171 O.2     
  96 N96            3.9795    -4.4918     1.7860 N.pl3   
  97 C97            5.3131    -4.4022     2.1078 C.2     
  98 N98            5.6859    -3.7286     3.1597 N.2     
  99 N99            6.2536    -5.0231     1.3203 N.pl3   
 100 C100           1.5825    -4.0845     2.0503 C.3     
 101 C101           2.9774    -3.8302     2.6252 C.3     
 102 C102         -21.0499   -36.5298   -10.1321 C.2     
 103 N103         -23.4452   -36.1430   -10.0851 N.am    
 104 C104         -22.3028   -36.6157    -9.2991 C.3     
 105 C105         -22.5381   -38.0682    -8.8799 C.3     
 106 C106         -23.7376   -38.1378    -7.9327 C.3     
 107 C107         -23.9729   -39.5903    -7.5136 C.3     
 108 C108         -25.1724   -39.6599    -6.5664 C.3     
 109 O109         -21.1290   -36.3813   -11.3282 O.2     
 110 C110         -18.4640   -36.5423   -10.3150 C.3     
 111 C111         -19.7169   -36.6281    -9.4819 C.2     
 112 N112         -17.3178   -36.2435    -9.4462 N.3     
 113 O113         -19.6378   -36.7767    -8.2858 O.2     
 114 C114         -15.7886   -37.9442   -11.5670 C.ar    
 115 C115         -14.7386   -37.8163   -12.4569 C.ar    
 116 C116         -14.9865   -37.4818   -13.7751 C.ar    
 117 C117         -16.2846   -37.2756   -14.2034 C.ar    
 118 C118         -17.3346   -37.4030   -13.3134 C.ar    
 119 C119         -17.0866   -37.7375   -11.9953 C.ar    
 120 C120         -18.2313   -37.8773   -11.0252 C.3     
 121 C121         -26.2564   -36.3155   -11.1183 C.3     
 122 C122         -25.7096   -35.1651   -10.2707 C.3     
 123 C123         -24.5345   -35.6513    -9.4621 C.2     
 124 N124         -26.7577   -34.6829    -9.3677 N.am    
 125 O125         -24.5690   -35.6000    -8.2509 O.2     
 126 O126         -26.5665   -37.4248   -10.2725 O.3     
 127 C127         -19.2401   -33.4232    -5.1535 C.3     
 128 C128         -17.7828   -33.2717    -5.5941 C.3     
 129 C129         -17.0158   -32.5139    -4.5412 C.2     
 130 N130         -17.1863   -34.5977    -5.7732 N.am    
 131 O131         -16.0646   -33.0306    -3.9943 O.2     
 132 C132         -19.3004   -34.2444    -3.8912 C.2     
 133 O133         -18.2972   -34.7587    -3.4566 O.2     
 134 O134         -20.4686   -34.4044    -3.2498 O.3     
 135 C135         -16.6932   -36.5952    -7.1464 C.3     
 136 C136         -17.3966   -35.2827    -6.9147 C.2     
 137 N137         -17.2099   -37.2179    -8.3724 N.3     
 138 O138         -18.1519   -34.8428    -7.7555 O.2     
 139 C139         -14.0825   -38.2005    -8.5629 C.ar    
 140 C140         -13.4195   -39.4125    -8.6105 C.ar    
 141 C141         -13.1417   -40.0949    -7.4408 C.ar    
 142 C142         -13.5266   -39.5650    -6.2235 C.ar    
 143 C143         -14.1901   -38.3532    -6.1758 C.ar    
 144 C144         -14.4678   -37.6709    -7.3455 C.ar    
 145 C145         -15.1903   -36.3494    -7.2935 C.3     
 146 O146         -27.5867   -33.3476   -10.9335 O.2     
 147 C147         -27.6507   -33.7699    -9.7984 C.2     
 148 C148         -28.7287   -33.2739    -8.8695 C.3     
 149 H149          -1.0771    -1.0596     2.7499 H       
 150 H150          -2.4517    -1.0220     3.7152 H       
 151 H151         -16.4252   -26.5240    -3.8694 H       
 152 H152         -15.6681   -28.4857    -1.8430 H       
 153 H153         -18.8583   -28.5929    -1.5042 H       
 154 H154         -20.7902   -29.6449    -2.6106 H       
 155 H155         -21.8675   -28.5340    -4.5260 H       
 156 H156         -21.0103   -26.3730    -5.3375 H       
 157 H157         -19.0756   -25.3232    -4.2340 H       
 158 H158         -17.6484   -26.5334    -1.0743 H       
 159 H159         -17.7400   -25.1681    -2.2126 H       
 160 H160         -16.6822   -30.2829    -1.0437 H       
 161 H161         -18.2502   -30.7192    -1.7645 H       
 162 H162         -15.5845   -30.7844    -3.2472 H       
 163 H163         -18.1476   -30.8487    -4.6449 H       
 164 H164         -16.6979   -34.6979    -0.5348 H       
 165 H165         -18.4333   -34.3933     3.0559 H       
 166 H166         -16.8343   -36.5886     0.9064 H       
 167 H167         -17.5661   -36.4462     2.4120 H       
 168 H168         -17.3843   -32.9858    -2.2760 H       
 169 H169         -15.8164   -32.5495    -1.5552 H       
 170 H170         -18.5003   -32.5671    -0.1016 H       
 171 H171         -16.9324   -32.1308     0.6191 H       
 172 H172         -13.4364   -23.0769     0.1859 H       
 173 H173         -15.1916   -23.1615    -0.0978 H       
 174 H174         -13.0890   -24.5335    -1.8315 H       
 175 H175         -15.8421   -24.1534    -2.7279 H       
 176 H176         -15.0460   -25.6653     0.0494 H       
 177 H177         -12.1813   -25.0594     0.9118 H       
 178 H178         -12.9679   -26.6550     0.9717 H       
 179 H179         -12.6611   -25.8724    -0.5973 H       
 180 H180         -15.6501   -24.3003     2.0294 H       
 181 H181         -14.7134   -25.7370     2.5056 H       
 182 H182         -13.9268   -24.1414     2.4456 H       
 183 H183         -13.3000   -19.3379    -1.0483 H       
 184 H184         -13.4327   -18.4978    -2.6119 H       
 185 H185         -14.5983   -19.7736    -2.1852 H       
 186 H186         -12.9080   -20.6138    -3.7933 H       
 187 H187         -12.2161   -22.0324    -1.3363 H       
 188 H188          -9.0453   -18.8807    -5.1495 H       
 189 H189          -7.5793   -18.7200    -4.1529 H       
 190 H190          -9.0280   -18.7633    -2.1007 H       
 191 H191         -11.4594   -18.3451    -3.6631 H       
 192 H192          -6.7308   -20.8844    -2.8990 H       
 193 H193          -7.3929   -23.3429    -2.9746 H       
 194 H194          -9.5505   -24.9328    -4.0123 H       
 195 H195         -11.6578   -24.6933    -5.2465 H       
 196 H196         -12.4397   -22.4762    -5.9660 H       
 197 H197         -11.1366   -20.4746    -5.4475 H       
 198 H198          -4.3426   -12.6100    -4.0228 H       
 199 H199          -3.2046   -12.2918    -2.6916 H       
 200 H200          -5.0815   -13.1372    -1.1228 H       
 201 H201          -7.0360   -12.4709    -3.1892 H       
 202 H202          -2.8286   -14.5409    -1.0035 H       
 203 H203          -2.5618   -16.9831    -1.6762 H       
 204 H204          -3.1585   -18.6403    -3.9472 H       
 205 H205          -4.1504   -18.5000    -6.1872 H       
 206 H206          -5.0047   -16.3598    -7.0440 H       
 207 H207          -4.8934   -14.3420    -5.6695 H       
 208 H208          -7.8554   -13.4238    -4.8208 H       
 209 H209          -7.2223   -15.0399    -5.2153 H       
 210 H210          -8.9703   -14.4315    -2.7913 H       
 211 H211          -7.3486   -16.8520    -2.9889 H       
 212 H212          -9.5370   -15.9242    -5.3079 H       
 213 H213         -10.1702   -14.3081    -4.9135 H       
 214 H214          -9.1278   -13.3975    -6.9709 H       
 215 H215          -8.4947   -15.0136    -7.3654 H       
 216 H216         -10.8094   -15.8979    -7.4580 H       
 217 H217         -11.4426   -14.2817    -7.0635 H       
 218 H218         -11.4455   -14.6841    -9.4356 H       
 219 H219         -10.3524   -13.4814    -9.0828 H       
 220 H220          -2.2460    -7.0774     3.8163 H       
 221 H221          -3.8985    -6.9070     3.1771 H       
 222 H222          -1.4649    -7.6736     1.5041 H       
 223 H223          -3.9624    -6.7617     0.2963 H       
 224 H224          -3.8459    -9.2654     2.4129 H       
 225 H225          -2.1935    -9.4357     3.0521 H       
 226 H226          -4.3293   -10.6673     5.7671 H       
 227 H227          -4.9875    -8.4169    -2.8647 H       
 228 H228          -4.2703    -7.1442    -1.8478 H       
 229 H229          -5.4551    -8.8792    -0.4939 H       
 230 H230          -3.4791   -10.9388    -1.0593 H       
 231 H231          -2.7530    -9.5794    -2.8836 H       
 232 H232          -2.7563    -6.6856    -3.8545 H       
 233 H233          -1.6858    -7.9782    -4.4474 H       
 234 H234          -3.4403    -8.0754    -4.7313 H       
 235 H235          -1.7550    -8.7265    -0.8602 H       
 236 H236          -0.7844    -8.0983    -2.2135 H       
 237 H237          -1.9611    -7.0418    -1.3966 H       
 238 H238           0.7303    -2.3212     2.9477 H       
 239 H239           0.5897    -3.7924     3.9397 H       
 240 H240          -0.8861    -3.3294     1.3097 H       
 241 H241          -0.7320    -5.6304     3.1012 H       
 242 H242           3.7021    -4.9930     1.0032 H       
 243 H243           6.6268    -3.6654     3.3868 H       
 244 H244           5.9762    -5.5243     0.5376 H       
 245 H245           7.1945    -4.9599     1.5474 H       
 246 H246           1.3881    -5.1568     2.0293 H       
 247 H247           1.5287    -3.6856     1.0373 H       
 248 H248           3.0312    -4.2291     3.6381 H       
 249 H249           3.1718    -2.7578     2.6462 H       
 250 H250         -23.4176   -36.1840   -11.0538 H       
 251 H251         -22.1914   -35.9945    -8.4103 H       
 252 H252         -22.7376   -38.6737    -9.7640 H       
 253 H253         -21.6515   -38.4479    -8.3720 H       
 254 H254         -23.5380   -37.5323    -7.0486 H       
 255 H255         -24.6241   -37.7580    -8.4407 H       
 256 H256         -24.1724   -40.1958    -8.3977 H       
 257 H257         -23.0864   -39.9701    -7.0057 H       
 258 H258         -24.9729   -39.0544    -5.6823 H       
 259 H259         -26.0589   -39.2802    -7.0743 H       
 260 H260         -25.3400   -40.6947    -6.2678 H       
 261 H261         -18.5741   -35.7507   -11.0563 H       
 262 H262         -16.4624   -36.1968    -9.9793 H       
 263 H263         -15.5952   -38.2098   -10.5382 H       
 264 H264         -13.7244   -37.9774   -12.1223 H       
 265 H265         -14.1661   -37.3812   -14.4702 H       
 266 H266         -16.4783   -37.0136   -15.2331 H       
 267 H267         -18.3487   -37.2416   -13.6480 H       
 268 H268         -17.9916   -38.6439   -10.2883 H       
 269 H269         -19.1333   -38.1630   -11.5664 H       
 270 H270         -27.1589   -35.9891   -11.6350 H       
 271 H271         -25.5068   -36.6154   -11.8506 H       
 272 H272         -25.3904   -34.3527   -10.9234 H       
 273 H273         -26.8088   -35.0207    -8.4598 H       
 274 H274         -26.9189   -38.1922   -10.7437 H       
 275 H275         -19.6675   -32.4381    -4.9668 H       
 276 H276         -19.8072   -33.9225    -5.9391 H       
 277 H277         -17.7431   -32.7252    -6.5364 H       
 278 H278         -16.6400   -34.9828    -5.0701 H       
 279 H279         -20.4576   -34.9395    -2.4445 H       
 280 H280         -16.8718   -37.2576    -6.2993 H       
 281 H281         -18.0965   -37.6689    -8.2030 H       
 282 H282         -14.2956   -37.6653    -9.4764 H       
 283 H283         -13.1187   -39.8265    -9.5616 H       
 284 H284         -12.6243   -41.0422    -7.4781 H       
 285 H285         -13.3102   -40.0985    -5.3097 H       
 286 H286         -14.4911   -37.9394    -5.2248 H       
 287 H287         -15.0011   -35.7954    -8.2130 H       
 288 H288         -14.8313   -35.7723    -6.4413 H       
 289 H289         -28.6268   -33.7628    -7.9007 H       
 290 H290         -28.6324   -32.1954    -8.7442 H       
 291 H291         -29.7067   -33.5047    -9.2919 H       
@<TRIPOS>BOND
   1    1   93 am
   2    1  149 1
   3    1  150 1
   4    2    3 1
   5    2    4 1
   6    2   12 1
   7    2  151 1
   8    3    5 2
   9    3   27 am
  10    4   15 am
  11    4  152 1
  12    6    7 ar
  13    6   11 ar
  14    6  153 1
  15    7    8 ar
  16    7  154 1
  17    8    9 ar
  18    8  155 1
  19    9   10 ar
  20    9  156 1
  21   10   11 ar
  22   10  157 1
  23   11   12 1
  24   12  158 1
  25   12  159 1
  26   13   22 1
  27   13   14 1
  28   13  160 1
  29   13  161 1
  30   14   16 1
  31   14   15 1
  32   14  162 1
  33   15   17 2
  34   16  129 am
  35   16  163 1
  36   18   23 1
  37   18   19 1
  38   18  164 1
  39   19   20 2
  40   19   21 1
  41   20  165 1
  42   21  166 1
  43   21  167 1
  44   22   23 1
  45   22  168 1
  46   22  169 1
  47   23  170 1
  48   23  171 1
  49   24   29 1
  50   24   25 1
  51   24  172 1
  52   24  173 1
  53   25   27 1
  54   25   26 1
  55   25  174 1
  56   26   28 2
  57   26   35 am
  58   27  175 1
  59   29   30 1
  60   29   31 1
  61   29  176 1
  62   30  177 1
  63   30  178 1
  64   30  179 1
  65   31  180 1
  66   31  181 1
  67   31  182 1
  68   32   33 1
  69   32  183 1
  70   32  184 1
  71   32  185 1
  72   33   34 1
  73   33   35 1
  74   33  186 1
  75   34   36 2
  76   34   40 am
  77   35  187 1
  78   37   42 1
  79   37   38 1
  80   37  188 1
  81   37  189 1
  82   38   39 1
  83   38   40 1
  84   38  190 1
  85   39   41 2
  86   39   68 am
  87   40  191 1
  88   42   43 2
  89   42   46 1
  90   43   44 1
  91   43  192 1
  92   44   45 1
  93   44  193 1
  94   45   46 ar
  95   45   47 ar
  96   46   50 ar
  97   47   48 ar
  98   47  194 1
  99   48   49 ar
 100   48  195 1
 101   49   50 ar
 102   49  196 1
 103   50  197 1
 104   51   56 1
 105   51   52 1
 106   51  198 1
 107   51  199 1
 108   52   53 1
 109   52   54 1
 110   52  200 1
 111   53   55 2
 112   53   86 am
 113   54   67 am
 114   54  201 1
 115   56   57 2
 116   56   60 1
 117   57   58 1
 118   57  202 1
 119   58   59 1
 120   58  203 1
 121   59   60 ar
 122   59   61 ar
 123   60   64 ar
 124   61   62 ar
 125   61  204 1
 126   62   63 ar
 127   62  205 1
 128   63   64 ar
 129   63  206 1
 130   64  207 1
 131   65   70 1
 132   65   66 1
 133   65  208 1
 134   65  209 1
 135   66   68 1
 136   66   67 1
 137   66  210 1
 138   67   69 2
 139   68  211 1
 140   70   71 1
 141   70  212 1
 142   70  213 1
 143   71   72 1
 144   71  214 1
 145   71  215 1
 146   72   73 1
 147   72  216 1
 148   72  217 1
 149   73  218 1
 150   73  219 1
 151   74   79 1
 152   74   75 1
 153   74  220 1
 154   74  221 1
 155   75   77 1
 156   75   76 1
 157   75  222 1
 158   76   78 2
 159   76   94 am
 160   77   85 am
 161   77  223 1
 162   79   80 1
 163   79  224 1
 164   79  225 1
 165   80   81 2
 166   80   82 1
 167   82  226 1
 168   83   88 1
 169   83   84 1
 170   83  227 1
 171   83  228 1
 172   84   86 1
 173   84   85 1
 174   84  229 1
 175   85   87 2
 176   86  230 1
 177   88   89 1
 178   88   90 1
 179   88  231 1
 180   89  232 1
 181   89  233 1
 182   89  234 1
 183   90  235 1
 184   90  236 1
 185   90  237 1
 186   91  100 1
 187   91   92 1
 188   91  238 1
 189   91  239 1
 190   92   94 1
 191   92   93 1
 192   92  240 1
 193   93   95 2
 194   94  241 1
 195   96  101 1
 196   96   97 1
 197   96  242 1
 198   97   98 2
 199   97   99 1
 200   98  243 1
 201   99  244 1
 202   99  245 1
 203  100  101 1
 204  100  246 1
 205  100  247 1
 206  101  248 1
 207  101  249 1
 208  102  109 2
 209  102  104 1
 210  102  111 1
 211  103  104 1
 212  103  123 am
 213  103  250 1
 214  104  105 1
 215  104  251 1
 216  105  106 1
 217  105  252 1
 218  105  253 1
 219  106  107 1
 220  106  254 1
 221  106  255 1
 222  107  108 1
 223  107  256 1
 224  107  257 1
 225  108  258 1
 226  108  259 1
 227  108  260 1
 228  110  111 1
 229  110  112 1
 230  110  120 1
 231  110  261 1
 232  111  113 2
 233  112  137 1
 234  112  262 1
 235  114  115 ar
 236  114  119 ar
 237  114  263 1
 238  115  116 ar
 239  115  264 1
 240  116  117 ar
 241  116  265 1
 242  117  118 ar
 243  117  266 1
 244  118  119 ar
 245  118  267 1
 246  119  120 1
 247  120  268 1
 248  120  269 1
 249  121  126 1
 250  121  122 1
 251  121  270 1
 252  121  271 1
 253  122  124 1
 254  122  123 1
 255  122  272 1
 256  123  125 2
 257  124  147 am
 258  124  273 1
 259  126  274 1
 260  127  132 1
 261  127  128 1
 262  127  275 1
 263  127  276 1
 264  128  129 1
 265  128  130 1
 266  128  277 1
 267  129  131 2
 268  130  136 am
 269  130  278 1
 270  132  133 2
 271  132  134 1
 272  134  279 1
 273  135  136 1
 274  135  137 1
 275  135  145 1
 276  135  280 1
 277  136  138 2
 278  137  281 1
 279  139  140 ar
 280  139  144 ar
 281  139  282 1
 282  140  141 ar
 283  140  283 1
 284  141  142 ar
 285  141  284 1
 286  142  143 ar
 287  142  285 1
 288  143  144 ar
 289  143  286 1
 290  144  145 1
 291  145  287 1
 292  145  288 1
 293  146  147 2
 294  147  148 1
 295  148  289 1
 296  148  290 1
 297  148  291 1

#	End of record

