#	Name: ASD02030200
#	Creating user name:	WinNT
#	Creation time:	15. 06. 2019 20:14

#	Modifying user name:	WinNT
#	Modification time:	15. 06. 2019 20:14

#	Program:	/corina/corina34_cracker 3.40 0067  02.08.2006

@<TRIPOS>MOLECULE
ASD02030200
  54   57    0    0    0
SMALL
NO_CHARGES


@<TRIPOS>ATOM
   1 N1            -0.1297     1.7285    -0.3031 N.am    
   2 C2            -0.1929     0.2630    -0.3937 C.3     
   3 C3            -0.9924    -0.2679     0.8027 C.3     
   4 N4            -2.2473     0.4903     0.9026 N.am    
   5 C5            -2.1841     1.9558     0.9932 C.3     
   6 C6            -1.3844     2.4864    -0.1975 C.3     
   7 C7             1.0580     2.3656    -0.3110 C.2     
   8 C8             2.3155     1.5870    -0.2685 C.2     
   9 N9             2.4365     0.2531    -0.3547 N.2     
  10 N10            3.5384     2.0692    -0.1443 N.2     
  11 N11            4.3566     1.0735    -0.1502 N.pl3   
  12 N12            3.6941    -0.0227    -0.2770 N.2     
  13 O13            1.0960     3.5797    -0.3530 O.2     
  14 C14           -3.4350    -0.1468     0.9105 C.2     
  15 C15           -3.4815    -1.6274     0.8837 C.ar    
  16 O16           -4.4676     0.4931     0.9396 O.2     
  17 C17           -1.0739     3.9698     0.0125 C.3     
  18 C18           -2.1950     2.3048    -1.4824 C.3     
  19 N19           -2.3904    -2.3253     1.1781 N.ar    
  20 C20           -2.3904    -3.6445     1.1657 C.ar    
  21 C21           -3.5437    -4.3539     0.8409 C.ar    
  22 C22           -4.6998    -3.6607     0.5286 C.ar    
  23 C23           -4.6695    -2.2738     0.5559 C.ar    
  24 O24           -1.2532    -4.3178     1.4726 O.3     
  25 C25           -0.1029    -3.5345     1.7968 C.3     
  26 C26            5.7509     1.1697    -0.0399 C.ar    
  27 C27            6.5309     0.0212    -0.0590 C.ar    
  28 C28            7.9052     0.1194     0.0500 C.ar    
  29 C29            8.5033     1.3612     0.1780 C.ar    
  30 C30            7.7283     2.5057     0.1971 C.ar    
  31 C31            6.3546     2.4138     0.0828 C.ar    
  32 Cl32           8.8820    -1.3156     0.0270 Cl      
  33 H33           -0.6877    -0.0252    -1.3212 H       
  34 H34            0.8161    -0.1488    -0.3712 H       
  35 H35           -1.2143    -1.3247     0.6543 H       
  36 H36           -0.4128    -0.1381     1.7166 H       
  37 H37           -3.1931     2.3676     0.9707 H       
  38 H38           -1.6893     2.2440     1.9207 H       
  39 H39           -0.3173     4.0761     0.7899 H       
  40 H40           -0.7014     4.3983    -0.9179 H       
  41 H41           -1.9817     4.4917     0.3152 H       
  42 H42           -3.1322     2.8553    -1.4015 H       
  43 H43           -1.6230     2.6836    -2.3294 H       
  44 H44           -2.4071     1.2461    -1.6315 H       
  45 H45           -3.5359    -5.4338     0.8326 H       
  46 H46           -5.6072    -4.1878     0.2733 H       
  47 H47           -5.5546    -1.7029     0.3173 H       
  48 H48            0.7348    -4.1947     2.0213 H       
  49 H49            0.1533    -2.8975     0.9502 H       
  50 H50           -0.3193    -2.9136     2.6662 H       
  51 H51            6.0643    -0.9477    -0.1584 H       
  52 H52            9.5773     1.4360     0.2634 H       
  53 H53            8.1976     3.4733     0.2971 H       
  54 H54            5.7501     3.3087     0.0975 H       
@<TRIPOS>BOND
   1    1    2 1
   2    1    7 am
   3    1    6 1
   4    2    3 1
   5    2   33 1
   6    2   34 1
   7    3    4 1
   8    3   35 1
   9    3   36 1
  10    4    5 1
  11    4   14 am
  12    5    6 1
  13    5   37 1
  14    5   38 1
  15    6   17 1
  16    6   18 1
  17    7    8 1
  18    7   13 2
  19    8    9 1
  20    8   10 2
  21    9   12 2
  22   10   11 1
  23   11   12 1
  24   11   26 1
  25   14   15 1
  26   14   16 2
  27   15   19 ar
  28   15   23 ar
  29   17   39 1
  30   17   40 1
  31   17   41 1
  32   18   42 1
  33   18   43 1
  34   18   44 1
  35   19   20 ar
  36   20   21 ar
  37   20   24 1
  38   21   22 ar
  39   21   45 1
  40   22   23 ar
  41   22   46 1
  42   23   47 1
  43   24   25 1
  44   25   48 1
  45   25   49 1
  46   25   50 1
  47   26   27 ar
  48   26   31 ar
  49   27   28 ar
  50   27   51 1
  51   28   29 ar
  52   28   32 1
  53   29   30 ar
  54   29   52 1
  55   30   31 ar
  56   30   53 1
  57   31   54 1

#	End of record

