#	Name: ASD01917970
#	Creating user name:	WinNT
#	Creation time:	15. 06. 2019 20:10

#	Modifying user name:	WinNT
#	Modification time:	15. 06. 2019 20:10

#	Program:	/corina/corina34_cracker 3.40 0067  02.08.2006

@<TRIPOS>MOLECULE
ASD01917970
  37   40    0    0    0
SMALL
NO_CHARGES


@<TRIPOS>ATOM
   1 N1             4.8198    -0.4121    -2.1416 N.ar    
   2 C2             5.2870     0.2860    -3.1581 C.ar    
   3 C3             5.1751     1.6647    -3.1837 C.ar    
   4 C4             4.5621     2.3135    -2.1223 C.ar    
   5 C5             4.0810     1.5453    -1.0671 C.ar    
   6 C6             4.2308     0.1663    -1.1141 C.ar    
   7 O7             3.4735     2.1366    -0.0052 O.3     
   8 C8             3.4548     3.4957     0.0444 C.2     
   9 N9             2.2049     5.5090    -0.0211 N.pl3   
  10 C10            2.2722     4.1531    -0.0650 C.2     
  11 C11            4.6548     4.1968     0.2133 C.2     
  12 C12            4.6274     5.5861     0.2634 C.2     
  13 C13            3.3352     6.2596     0.1364 C.2     
  14 C14            5.8679     6.3597     0.4404 C.2     
  15 N15            5.8217     7.7059     0.4867 N.am    
  16 C16            6.9779     8.4335     0.7593 C.ar    
  17 N17            8.1388     7.8049     0.8648 N.ar    
  18 C18            6.9029     9.8126     0.9124 C.ar    
  19 C19            8.0588    10.5252     1.1833 C.ar    
  20 C20            9.2545     9.8312     1.2920 C.ar    
  21 C21            9.2580     8.4571     1.1223 C.ar    
  22 O22            6.9341     5.7839     0.5448 O.2     
  23 N23            1.1425     6.4205    -0.1081 N.2     
  24 C24            1.6575     7.6230    -0.0085 C.2     
  25 N25            2.9726     7.5326     0.1432 N.2     
  26 Cl26           5.7950     2.5716    -4.5279 Cl      
  27 F27           10.4201     7.7752     1.2213 F       
  28 H28            5.7636    -0.2252    -3.9814 H       
  29 H29            4.4610     3.3887    -2.1150 H       
  30 H30            3.8605    -0.4393    -0.3001 H       
  31 H31            1.3628     3.5842    -0.1904 H       
  32 H32            5.5903     3.6649     0.3039 H       
  33 H33            4.9834     8.1681     0.3301 H       
  34 H34            5.9551    10.3222     0.8210 H       
  35 H35            8.0299    11.5977     1.3067 H       
  36 H36           10.1739    10.3575     1.5022 H       
  37 H37            1.0962     8.5452    -0.0396 H       
@<TRIPOS>BOND
   1    1    2 ar
   2    1    6 ar
   3    2    3 ar
   4    2   28 1
   5    3    4 ar
   6    3   26 1
   7    4    5 ar
   8    4   29 1
   9    5    6 ar
  10    5    7 1
  11    6   30 1
  12    7    8 1
  13    8   11 1
  14    8   10 2
  15    9   10 1
  16    9   23 1
  17    9   13 1
  18   10   31 1
  19   11   12 2
  20   11   32 1
  21   12   13 1
  22   12   14 1
  23   13   25 2
  24   14   15 am
  25   14   22 2
  26   15   16 1
  27   15   33 1
  28   16   18 ar
  29   16   17 ar
  30   17   21 ar
  31   18   19 ar
  32   18   34 1
  33   19   20 ar
  34   19   35 1
  35   20   21 ar
  36   20   36 1
  37   21   27 1
  38   23   24 2
  39   24   25 1
  40   24   37 1

#	End of record

