#	Name: ASD02448132
#	Creating user name:	WinNT
#	Creation time:	15. 06. 2019 20:21

#	Modifying user name:	WinNT
#	Modification time:	15. 06. 2019 20:21

#	Program:	/corina/corina34_cracker 3.40 0067  02.08.2006

@<TRIPOS>MOLECULE
ASD02448132
  84   90    0    0    0
SMALL
NO_CHARGES


@<TRIPOS>ATOM
   1 C1            -0.0495    -6.5829     3.1351 C.ar    
   2 C2             0.4370    -5.4514     2.5095 C.ar    
   3 C3             0.3489    -5.3268     1.1289 C.ar    
   4 C4            -0.2282    -6.3397     0.3779 C.ar    
   5 C5            -0.7163    -7.4757     1.0090 C.ar    
   6 C6            -0.6252    -7.5942     2.3903 C.ar    
   7 N7            -1.2987    -8.4981     0.2563 N.am    
   8 C8            -1.4107    -9.9213     0.6012 C.3     
   9 C9            -2.1062   -10.6886    -0.4765 C.2     
  10 N10           -2.4889    -9.9547    -1.5309 N.am    
  11 S11           -2.0330    -8.3809    -1.2372 S.o2    
  12 O12           -2.3081   -11.8823    -0.4030 O.2     
  13 O13           -3.2237    -7.6239    -1.0688 O.2     
  14 O14           -1.0137    -8.0580    -2.1732 O.2     
  15 N15            0.8426    -4.1777     0.4952 N.pl3   
  16 C16            1.7739    -4.1404    -0.5081 C.2     
  17 C17            0.4816    -2.8942     0.7584 C.2     
  18 N18            1.1499    -2.0984    -0.0289 N.2     
  19 C19            1.9563    -2.8316    -0.8232 C.2     
  20 C20            2.8793    -2.3027    -1.8572 C.ar    
  21 C21            2.9684    -0.9284    -2.0788 C.ar    
  22 C22            3.6642    -3.1765    -2.6065 C.ar    
  23 C23            4.5214    -2.6795    -3.5675 C.ar    
  24 C24            4.6028    -1.3154    -3.7876 C.ar    
  25 C25            3.8292    -0.4417    -3.0426 C.ar    
  26 C26           -0.5265    -2.4615     1.7916 C.3     
  27 C27           -1.8704    -2.2762     1.1353 C.ar    
  28 C28           -2.7139    -3.3605     0.9741 C.ar    
  29 C29           -2.2583    -1.0213     0.7017 C.ar    
  30 C30           -3.4881    -0.8457     0.1004 C.ar    
  31 C31           -4.3396    -1.9355    -0.0694 C.ar    
  32 C32           -3.9460    -3.1964     0.3742 C.ar    
  33 C33           -5.6633    -1.7528    -0.7146 C.ar    
  34 C34           -6.5148    -2.8426    -0.8844 C.ar    
  35 C35           -6.0617    -0.4898    -1.1477 C.ar    
  36 C36           -7.2940    -0.3256    -1.7473 C.ar    
  37 C37           -8.1331    -1.4119    -1.9181 C.ar    
  38 C38           -7.7449    -2.6670    -1.4852 C.ar    
  39 Cl39           5.6835    -0.6974    -4.9975 Cl      
  40 Cl40           1.9988     0.1679    -1.1450 Cl      
  41 S41           -9.7054    -1.1947    -2.6833 S.o2    
  42 C42           -9.3875    -1.4494    -4.4509 C.3     
  43 C43          -10.6925    -1.2853    -5.2326 C.3     
  44 C44          -10.4036    -1.3763    -6.7323 C.3     
  45 C45          -11.7086    -1.2122    -7.5140 C.3     
  46 C46          -12.6851    -2.3202    -7.1145 C.3     
  47 C47          -12.9740    -2.2291    -5.6148 C.3     
  48 C48          -11.6691    -2.3933    -4.8332 C.3     
  49 O49          -10.4980    -2.2525    -2.1617 O.2     
  50 O50          -10.0354     0.1634    -2.4266 O.2     
  51 H51            0.0243    -6.6792     4.2083 H       
  52 H52            0.8861    -4.6625     3.0946 H       
  53 H53           -0.2980    -6.2448    -0.6956 H       
  54 H54           -1.0047    -8.4777     2.8822 H       
  55 H55           -0.4119   -10.3334     0.7452 H       
  56 H56           -1.9730   -10.0204     1.5297 H       
  57 H57           -2.9500   -10.2806    -2.3196 H       
  58 H58            2.2678    -4.9874    -0.9610 H       
  59 H59            3.6023    -4.2410    -2.4354 H       
  60 H60            5.1301    -3.3564    -4.1486 H       
  61 H61            3.8961     0.6218    -3.2184 H       
  62 H62           -0.6027    -3.2242     2.5666 H       
  63 H63           -0.2075    -1.5199     2.2385 H       
  64 H64           -2.4076    -4.3374     1.3179 H       
  65 H65           -1.5976    -0.1772     0.8341 H       
  66 H66           -3.7901     0.1346    -0.2375 H       
  67 H67           -4.6019    -4.0446     0.2447 H       
  68 H68           -6.2127    -3.8230    -0.5468 H       
  69 H69           -5.4076     0.3592    -1.0142 H       
  70 H70           -7.6038     0.6529    -2.0834 H       
  71 H71           -8.4038    -3.5118    -1.6214 H       
  72 H72           -8.6608    -0.7154    -4.7989 H       
  73 H73           -8.9936    -2.4535    -4.6083 H       
  74 H74          -11.1323    -0.3141    -5.0056 H       
  75 H75           -9.7079    -0.5870    -7.0169 H       
  76 H76           -9.9638    -2.3475    -6.9593 H       
  77 H77          -12.1483    -0.2410    -7.2870 H       
  78 H78          -11.5027    -1.2770    -8.5824 H       
  79 H79          -13.6148    -2.2032    -7.6714 H       
  80 H80          -12.2453    -3.2913    -7.3415 H       
  81 H81          -13.4138    -1.2580    -5.3878 H       
  82 H82          -13.6698    -3.0185    -5.3303 H       
  83 H83          -11.2293    -3.3645    -5.0602 H       
  84 H84          -11.8749    -2.3284    -3.7647 H       
@<TRIPOS>BOND
   1    1    2 ar
   2    1    6 ar
   3    1   51 1
   4    2    3 ar
   5    2   52 1
   6    3    4 ar
   7    3   15 1
   8    4    5 ar
   9    4   53 1
  10    5    6 ar
  11    5    7 1
  12    6   54 1
  13    7    8 1
  14    7   11 am
  15    8    9 1
  16    8   55 1
  17    8   56 1
  18    9   10 am
  19    9   12 2
  20   10   11 am
  21   10   57 1
  22   11   13 2
  23   11   14 2
  24   15   16 1
  25   15   17 1
  26   16   19 2
  27   16   58 1
  28   17   18 2
  29   17   26 1
  30   18   19 1
  31   19   20 1
  32   20   21 ar
  33   20   22 ar
  34   21   40 1
  35   21   25 ar
  36   22   23 ar
  37   22   59 1
  38   23   24 ar
  39   23   60 1
  40   24   25 ar
  41   24   39 1
  42   25   61 1
  43   26   27 1
  44   26   62 1
  45   26   63 1
  46   27   28 ar
  47   27   29 ar
  48   28   32 ar
  49   28   64 1
  50   29   30 ar
  51   29   65 1
  52   30   31 ar
  53   30   66 1
  54   31   32 ar
  55   31   33 1
  56   32   67 1
  57   33   34 ar
  58   33   35 ar
  59   34   38 ar
  60   34   68 1
  61   35   36 ar
  62   35   69 1
  63   36   37 ar
  64   36   70 1
  65   37   38 ar
  66   37   41 1
  67   38   71 1
  68   41   42 1
  69   41   49 2
  70   41   50 2
  71   42   43 1
  72   42   72 1
  73   42   73 1
  74   43   44 1
  75   43   48 1
  76   43   74 1
  77   44   45 1
  78   44   75 1
  79   44   76 1
  80   45   46 1
  81   45   77 1
  82   45   78 1
  83   46   47 1
  84   46   79 1
  85   46   80 1
  86   47   48 1
  87   47   81 1
  88   47   82 1
  89   48   83 1
  90   48   84 1

#	End of record

