#	Name: ASD01884939
#	Creating user name:	WinNT
#	Creation time:	15. 06. 2019 19:49

#	Modifying user name:	WinNT
#	Modification time:	15. 06. 2019 19:49

#	Program:	/corina/corina34_cracker 3.40 0067  02.08.2006

@<TRIPOS>MOLECULE
ASD01884939
  47   51    0    0    0
SMALL
NO_CHARGES


@<TRIPOS>ATOM
   1 C1            -0.0178     1.3747    -0.0301 C.ar    
   2 C2             0.0009    -0.0038    -0.0378 C.ar    
   3 C3            -1.1979    -0.7168     0.0101 C.ar    
   4 C4            -2.4120    -0.0324     0.0656 C.ar    
   5 C5            -2.4257     1.3461     0.0731 C.ar    
   6 C6            -1.2307     2.0546     0.0307 C.ar    
   7 C7            -1.1809    -2.1979     0.0015 C.2     
   8 C8            -1.6301    -2.9075     1.0996 C.2     
   9 C9            -0.7098    -2.9011    -1.1340 C.2     
  10 C10           -0.6961    -4.2471    -1.1400 C.2     
  11 N11           -1.1330    -4.9559    -0.0581 N.pl3   
  12 C12           -1.6021    -4.3118     1.0614 C.2     
  13 C13           -1.2319    -6.2874     0.2107 C.2     
  14 N14           -1.7242    -6.4105     1.4162 N.2     
  15 N15           -1.9475    -5.2515     1.9283 N.2     
  16 C16           -0.8453    -7.4136    -0.7129 C.3     
  17 N17           -1.2475     3.4502     0.0388 N.3     
  18 C18            0.2353    -8.3835    -0.2306 C.3     
  19 C19           -1.2254    -8.8346    -0.2919 C.3     
  20 C20           -0.6667     3.9768     1.2825 C.3     
  21 Cl21           1.4726     2.2629    -0.0891 Cl      
  22 C22           -0.6503     5.5066     1.2239 C.3     
  23 O23           -1.9799     5.9845     1.0024 O.3     
  24 C24           -2.5758     5.4918    -0.2006 C.3     
  25 C25           -2.6118     3.9619    -0.1565 C.3     
  26 C26           -2.1418    -2.1857     2.3196 C.3     
  27 F27           -3.5343    -2.0734     2.2452 F       
  28 F28           -1.7927    -2.9050     3.4676 F       
  29 F29           -1.5734    -0.9087     2.3785 F       
  30 H30            0.9422    -0.5315    -0.0812 H       
  31 H31           -3.3409    -0.5821     0.1024 H       
  32 H32           -3.3658     1.8760     0.1157 H       
  33 H33           -0.3607    -2.3556    -1.9982 H       
  34 H34           -0.3354    -4.7729    -2.0117 H       
  35 H35           -0.8726    -7.1794    -1.7771 H       
  36 H36            0.9186    -8.7876    -0.9775 H       
  37 H37            0.6666    -8.2069     0.7547 H       
  38 H38           -1.7551    -8.9548     0.6531 H       
  39 H39           -1.5031    -9.5355    -1.0792 H       
  40 H40           -1.2682     3.6515     2.1313 H       
  41 H41            0.3521     3.6059     1.3940 H       
  42 H42           -0.2734     5.9029     2.1668 H       
  43 H43           -0.0056     5.8327     0.4077 H       
  44 H44           -3.5916     5.8774    -0.2881 H       
  45 H45           -1.9871     5.8175    -1.0583 H       
  46 H46           -3.0128     3.5800    -1.0954 H       
  47 H47           -3.2443     3.6363     0.6693 H       
@<TRIPOS>BOND
   1    1    2 ar
   2    1   21 1
   3    1    6 ar
   4    2    3 ar
   5    2   30 1
   6    3    4 ar
   7    3    7 1
   8    4    5 ar
   9    4   31 1
  10    5    6 ar
  11    5   32 1
  12    6   17 1
  13    7    8 2
  14    7    9 1
  15    8   26 1
  16    8   12 1
  17    9   10 2
  18    9   33 1
  19   10   11 1
  20   10   34 1
  21   11   12 1
  22   11   13 1
  23   12   15 2
  24   13   14 2
  25   13   16 1
  26   14   15 1
  27   16   18 1
  28   16   19 1
  29   16   35 1
  30   17   20 1
  31   17   25 1
  32   18   19 1
  33   18   36 1
  34   18   37 1
  35   19   38 1
  36   19   39 1
  37   20   22 1
  38   20   40 1
  39   20   41 1
  40   22   23 1
  41   22   42 1
  42   22   43 1
  43   23   24 1
  44   24   25 1
  45   24   44 1
  46   24   45 1
  47   25   46 1
  48   25   47 1
  49   26   27 1
  50   26   28 1
  51   26   29 1

#	End of record

