#	Name: ASD08170245
#	Creating user name:	WinNT
#	Creation time:	15. 06. 2019 21:17

#	Modifying user name:	WinNT
#	Modification time:	15. 06. 2019 21:17

#	Program:	/corina/corina34_cracker 3.40 0067  02.08.2006

@<TRIPOS>MOLECULE
ASD08170245
  66   71    0    0    0
SMALL
NO_CHARGES


@<TRIPOS>ATOM
   1 N1            -0.0150     1.2583     0.0090 N.2     
   2 N2             0.0021    -0.0041     0.0020 N.2     
   3 C3             1.1271     1.8769     0.0014 C.2     
   4 S4             2.3826     0.7116    -0.0169 S.3     
   5 C5             1.1681    -0.5677    -0.0121 C.2     
   6 C6             1.4387    -2.0502    -0.0217 C.3     
   7 C7             1.5173    -2.5450    -1.4674 C.3     
   8 C8             1.8707    -4.5448    -2.9228 C.3     
   9 C9             2.1412    -6.0273    -2.9323 C.2     
  10 N10            1.2495    -6.9667    -2.9293 N.2     
  11 S11            3.7292    -6.7949    -2.9574 S.3     
  12 C12            2.9664    -8.3288    -2.9528 C.2     
  13 N13            1.6794    -8.1537    -2.9388 N.2     
  14 N14            3.6171    -9.5578    -2.9674 N.am    
  15 C15            2.9010   -10.6996    -2.9618 C.2     
  16 O16            1.6891   -10.6553    -2.9442 O.2     
  17 C17            3.6061   -12.0314    -2.9776 C.3     
  18 N18            1.3017     3.2566     0.0071 N.am    
  19 C19            0.2284     4.0717     0.0222 C.2     
  20 C20            0.4176     5.5667     0.0285 C.3     
  21 O21           -0.8897     3.6019     0.0309 O.2     
  22 C22            1.7920    -4.0501    -1.4771 C.3     
  23 C23            0.0279     6.3229     1.3002 C.3     
  24 C24           -0.8400     6.4379     0.0454 C.3     
  25 C25           -0.7957     7.7386    -0.7144 C.ar    
  26 C26           -1.6858     7.9664    -1.7472 C.ar    
  27 C27            0.1312     8.7062    -0.3748 C.ar    
  28 C28            0.1718     9.8994    -1.0717 C.ar    
  29 C29           -0.7142    10.1247    -2.1085 C.ar    
  30 C30           -1.6452     9.1595    -2.4442 C.ar    
  31 C31            2.7374   -13.2908    -2.9704 C.3     
  32 C32            3.4813   -12.8819    -4.2433 C.3     
  33 C33            3.2549   -14.4887    -2.2164 C.ar    
  34 C34            2.5251   -15.0120    -1.1655 C.ar    
  35 C35            2.9998   -16.1108    -0.4739 C.ar    
  36 C36            4.2040   -16.6865    -0.8336 C.ar    
  37 C37            4.9333   -16.1637    -1.8851 C.ar    
  38 C38            4.4565   -15.0676    -2.5794 C.ar    
  39 H39            2.3840    -2.2503     0.4827 H       
  40 H40            0.6331    -2.5700     0.4969 H       
  41 H41            0.5720    -2.3449    -1.9718 H       
  42 H42            2.3230    -2.0252    -1.9860 H       
  43 H43            2.6763    -4.0251    -3.4413 H       
  44 H44            0.9253    -4.3448    -3.4272 H       
  45 H45            4.5863    -9.5933    -2.9815 H       
  46 H46            4.5517   -12.0691    -2.4367 H       
  47 H47            2.1959     3.6323     0.0002 H       
  48 H48            1.2773     5.9341    -0.5320 H       
  49 H49            2.7374    -4.2501    -0.9727 H       
  50 H50            0.9864    -4.5698    -0.9585 H       
  51 H51           -0.3654     5.7389     2.1323 H       
  52 H52            0.6309     7.1879     1.5761 H       
  53 H53           -1.8042     5.9297     0.0521 H       
  54 H54           -2.4127     7.2120    -2.0099 H       
  55 H55            0.8235     8.5302     0.4353 H       
  56 H56            0.8956    10.6556    -0.8059 H       
  57 H57           -0.6827    11.0570    -2.6528 H       
  58 H58           -2.3375     9.3355    -3.2542 H       
  59 H59            1.6559   -13.1561    -2.9542 H       
  60 H60            2.8892   -12.4782    -5.0645 H       
  61 H61            4.3450   -13.4793    -4.5354 H       
  62 H62            1.5843   -14.5622    -0.8845 H       
  63 H63            2.4300   -16.5192     0.3476 H       
  64 H64            4.5751   -17.5445    -0.2928 H       
  65 H65            5.8742   -16.6133    -2.1659 H       
  66 H66            5.0263   -14.6592    -3.4010 H       
@<TRIPOS>BOND
   1    1    2 1
   2    1    3 2
   3    2    5 2
   4    3    4 1
   5    3   18 1
   6    4    5 1
   7    5    6 1
   8    6    7 1
   9    6   39 1
  10    6   40 1
  11    7   22 1
  12    7   41 1
  13    7   42 1
  14    8    9 1
  15    8   22 1
  16    8   43 1
  17    8   44 1
  18    9   10 2
  19    9   11 1
  20   10   13 1
  21   11   12 1
  22   12   13 2
  23   12   14 1
  24   14   15 am
  25   14   45 1
  26   15   16 2
  27   15   17 1
  28   17   31 1
  29   17   32 1
  30   17   46 1
  31   18   19 am
  32   18   47 1
  33   19   21 2
  34   19   20 1
  35   20   23 1
  36   20   24 1
  37   20   48 1
  38   22   49 1
  39   22   50 1
  40   23   24 1
  41   23   51 1
  42   23   52 1
  43   24   25 1
  44   24   53 1
  45   25   26 ar
  46   25   27 ar
  47   26   30 ar
  48   26   54 1
  49   27   28 ar
  50   27   55 1
  51   28   29 ar
  52   28   56 1
  53   29   30 ar
  54   29   57 1
  55   30   58 1
  56   31   32 1
  57   31   33 1
  58   31   59 1
  59   32   60 1
  60   32   61 1
  61   33   34 ar
  62   33   38 ar
  63   34   35 ar
  64   34   62 1
  65   35   36 ar
  66   35   63 1
  67   36   37 ar
  68   36   64 1
  69   37   38 ar
  70   37   65 1
  71   38   66 1

#	End of record

