#	Name: ASD01911332
#	Creating user name:	WinNT
#	Creation time:	15. 06. 2019 19:57

#	Modifying user name:	WinNT
#	Modification time:	15. 06. 2019 19:57

#	Program:	/corina/corina34_cracker 3.40 0067  02.08.2006

@<TRIPOS>MOLECULE
ASD01911332
  37   39    0    0    0
SMALL
NO_CHARGES


@<TRIPOS>ATOM
   1 C1            -0.0167     1.3838     0.0097 C.ar    
   2 C2             0.0021    -0.0041     0.0020 C.ar    
   3 C3            -1.2081    -0.6844     0.0098 C.ar    
   4 C4            -2.3970     0.0389     0.0294 C.ar    
   5 N5            -2.3652     1.3671     0.0339 N.ar    
   6 C6            -1.2313     2.0391     0.0305 C.ar    
   7 O7            -1.2002    -2.0443    -0.0085 O.3     
   8 C8            -2.4315    -2.6969     0.3208 C.3     
   9 C9            -3.5602    -1.9784    -0.4297 C.3     
  10 N10           -3.6369    -0.5941     0.0508 N.3     
  11 C11            1.2720     2.1648     0.0015 C.3     
  12 C12            1.6944     2.4369    -1.4436 C.3     
  13 C13            2.9832     3.2179    -1.4517 C.ar    
  14 C14            4.1947     2.5523    -1.4669 C.ar    
  15 C15            5.3769     3.2687    -1.4743 C.ar    
  16 C16            5.3476     4.6507    -1.4670 C.ar    
  17 C17            4.1361     5.3163    -1.4527 C.ar    
  18 C18            2.9539     4.5999    -1.4497 C.ar    
  19 C19           -4.6326     0.1727    -0.7098 C.3     
  20 H20            0.9379    -0.5430    -0.0101 H       
  21 H21           -1.2529     3.1188     0.0346 H       
  22 H22           -2.3895    -3.7414     0.0119 H       
  23 H23           -2.6055    -2.6359     1.3951 H       
  24 H24           -3.3493    -1.9832    -1.4991 H       
  25 H25           -4.5065    -2.4847    -0.2389 H       
  26 H26            1.1265     3.1115     0.5219 H       
  27 H27            2.0489     1.5892     0.5049 H       
  28 H28            1.8400     1.4902    -1.9640 H       
  29 H29            0.9176     3.0125    -1.9470 H       
  30 H30            4.2176     1.4726    -1.4726 H       
  31 H31            6.3234     2.7487    -1.4854 H       
  32 H32            6.2712     5.2105    -1.4720 H       
  33 H33            4.1133     6.3961    -1.4467 H       
  34 H34            2.0074     5.1200    -1.4386 H       
  35 H35           -5.6124    -0.2913    -0.5966 H       
  36 H36           -4.6690     1.1950    -0.3332 H       
  37 H37           -4.3553     0.1835    -1.7638 H       
@<TRIPOS>BOND
   1    1    2 ar
   2    1   11 1
   3    1    6 ar
   4    2    3 ar
   5    2   20 1
   6    3    4 ar
   7    3    7 1
   8    4    5 ar
   9    4   10 1
  10    5    6 ar
  11    6   21 1
  12    7    8 1
  13    8    9 1
  14    8   22 1
  15    8   23 1
  16    9   10 1
  17    9   24 1
  18    9   25 1
  19   10   19 1
  20   11   12 1
  21   11   26 1
  22   11   27 1
  23   12   13 1
  24   12   28 1
  25   12   29 1
  26   13   14 ar
  27   13   18 ar
  28   14   15 ar
  29   14   30 1
  30   15   16 ar
  31   15   31 1
  32   16   17 ar
  33   16   32 1
  34   17   18 ar
  35   17   33 1
  36   18   34 1
  37   19   35 1
  38   19   36 1
  39   19   37 1

#	End of record

