#	Name: ASD07931757
#	Creating user name:	WinNT
#	Creation time:	15. 06. 2019 21:13

#	Modifying user name:	WinNT
#	Modification time:	15. 06. 2019 21:13

#	Program:	/corina/corina34_cracker 3.40 0067  02.08.2006

@<TRIPOS>MOLECULE
ASD07931757
  60   64    0    0    0
SMALL
NO_CHARGES


@<TRIPOS>ATOM
   1 C1            -0.3028     1.3868     0.3134 C.2     
   2 C2            -0.1908    -0.0886     0.2984 C.2     
   3 N3             0.8157     2.1356     0.0248 N.am    
   4 N4             1.0337    -0.6477     0.4495 N.am    
   5 C5             2.1923     0.2327     0.6569 C.3     
   6 C6             2.0673     1.4343    -0.2915 C.3     
   7 C7            -1.4908     1.9848     0.6017 C.2     
   8 C8            -1.6011     3.3807     0.6190 C.2     
   9 C9            -0.5016     4.1467     0.3439 C.2     
  10 C10            0.7642     3.4790     0.0309 C.2     
  11 O11           -1.1773    -0.7844     0.1540 O.2     
  12 O12            1.7607     4.1347    -0.2214 O.2     
  13 C13            1.2002    -2.1026     0.4064 C.3     
  14 C14            0.2326    -2.7561     1.3950 C.3     
  15 O15           -0.4477    -2.2783    -1.3921 O.3     
  16 C16            0.9041    -2.6082    -1.0069 C.3     
  17 C17            1.7707    -1.8556    -2.0486 C.3     
  18 C18            0.9279    -2.0030    -3.3388 C.3     
  19 C19           -0.4939    -2.3076    -2.8285 C.3     
  20 C20           -1.4541    -1.2608    -3.3318 C.ar    
  21 C21           -2.2668    -1.5328    -4.4165 C.ar    
  22 C22           -3.1476    -0.5727    -4.8782 C.ar    
  23 C23           -3.2161     0.6593    -4.2549 C.ar    
  24 C24           -2.4041     0.9310    -3.1697 C.ar    
  25 C25           -1.5264    -0.0307    -2.7053 C.ar    
  26 C26           -4.1756     1.7064    -4.7589 C.3     
  27 F27           -5.4035     1.5680    -4.1030 F       
  28 F28           -3.6524     2.9789    -4.5055 F       
  29 F29           -4.3615     1.5444    -6.1360 F       
  30 C30            0.0495     6.3828     1.2133 C.2     
  31 N31           -0.2768     7.6096     0.9105 N.2     
  32 C32           -1.1184     7.6010    -0.1341 C.2     
  33 C33           -1.3254     6.3210    -0.4971 C.2     
  34 N34           -0.5859     5.5419     0.3553 N.pl3   
  35 C35           -1.7275     8.8144    -0.7880 C.3     
  36 H36            2.2071     0.5813     1.6896 H       
  37 H37            3.1104    -0.3125     0.4382 H       
  38 H38            2.0440     1.0873    -1.3245 H       
  39 H39            2.9129     2.1069    -0.1473 H       
  40 H40           -2.3568     1.3770     0.8188 H       
  41 H41           -2.5472     3.8490     0.8473 H       
  42 H42            2.2244    -2.3592     0.6769 H       
  43 H43            0.4435    -2.3959     2.4019 H       
  44 H44           -0.7917    -2.4995     1.1245 H       
  45 H45            0.3565    -3.8386     1.3630 H       
  46 H46            1.0707    -3.6833    -1.0739 H       
  47 H47            1.8836    -0.8064    -1.7755 H       
  48 H48            2.7438    -2.3332    -2.1629 H       
  49 H49            0.9378    -1.0741    -3.9091 H       
  50 H50            1.3004    -2.8283    -3.9456 H       
  51 H51           -0.8064    -3.2946    -3.1692 H       
  52 H52           -2.2133    -2.4953    -4.9034 H       
  53 H53           -3.7820    -0.7849    -5.7261 H       
  54 H54           -2.4573     1.8936    -2.6830 H       
  55 H55           -0.8946     0.1802    -1.8551 H       
  56 H56            0.7164     6.0858     2.0093 H       
  57 H57           -1.9532     5.9745    -1.3047 H       
  58 H58           -1.0756     9.1607    -1.5900 H       
  59 H59           -2.7029     8.5545    -1.1991 H       
  60 H60           -1.8445     9.6059    -0.0477 H       
@<TRIPOS>BOND
   1    1    2 1
   2    1    3 1
   3    1    7 2
   4    2    4 am
   5    2   11 2
   6    3    6 1
   7    3   10 am
   8    4    5 1
   9    4   13 1
  10    5    6 1
  11    5   36 1
  12    5   37 1
  13    6   38 1
  14    6   39 1
  15    7    8 1
  16    7   40 1
  17    8    9 2
  18    8   41 1
  19    9   10 1
  20    9   34 1
  21   10   12 2
  22   13   14 1
  23   13   16 1
  24   13   42 1
  25   14   43 1
  26   14   44 1
  27   14   45 1
  28   15   19 1
  29   15   16 1
  30   16   17 1
  31   16   46 1
  32   17   18 1
  33   17   47 1
  34   17   48 1
  35   18   19 1
  36   18   49 1
  37   18   50 1
  38   19   20 1
  39   19   51 1
  40   20   21 ar
  41   20   25 ar
  42   21   22 ar
  43   21   52 1
  44   22   23 ar
  45   22   53 1
  46   23   24 ar
  47   23   26 1
  48   24   25 ar
  49   24   54 1
  50   25   55 1
  51   26   27 1
  52   26   28 1
  53   26   29 1
  54   30   31 2
  55   30   34 1
  56   30   56 1
  57   31   32 1
  58   32   33 2
  59   32   35 1
  60   33   34 1
  61   33   57 1
  62   35   58 1
  63   35   59 1
  64   35   60 1

#	End of record

