#	Name: ASD01916389
#	Creating user name:	WinNT
#	Creation time:	15. 06. 2019 20:07

#	Modifying user name:	WinNT
#	Modification time:	15. 06. 2019 20:07

#	Program:	/corina/corina34_cracker 3.40 0067  02.08.2006

@<TRIPOS>MOLECULE
ASD01916389
  30   31    0    0    0
SMALL
NO_CHARGES


@<TRIPOS>ATOM
   1 C1            -0.0156     1.2990     0.0092 C.2     
   2 N2             0.0021    -0.0041     0.0020 N.2     
   3 C3             1.2829    -0.4300    -0.0125 C.2     
   4 C4             2.0835     0.6706    -0.0142 C.2     
   5 N5             1.2556     1.7575    -0.0005 N.pl3   
   6 C6             1.7203    -1.7935    -0.0236 C.1     
   7 C7             2.0789    -2.9114    -0.0327 C.1     
   8 C8             2.5285    -4.3130    -0.0440 C.3     
   9 C9             4.0577    -4.3579    -0.0590 C.3     
  10 C10            4.5180    -5.7928    -0.0707 C.ar    
  11 C11            4.7176    -6.4450    -1.2731 C.ar    
  12 C12            5.1397    -7.7612    -1.2838 C.ar    
  13 C13            5.3628    -8.4252    -0.0921 C.ar    
  14 C14            5.1642    -7.7728     1.1103 C.ar    
  15 C15            4.7461    -6.4552     1.1210 C.ar    
  16 C16           -1.2546     2.1568     0.0200 C.3     
  17 H17            3.1634     0.6826    -0.0245 H       
  18 H18            1.5300     2.6879     0.0014 H       
  19 H19            2.1588    -4.8204     0.8470 H       
  20 H20            2.1416    -4.8114    -0.9328 H       
  21 H21            4.4274    -3.8505    -0.9501 H       
  22 H22            4.4446    -3.8594     0.8298 H       
  23 H23            4.5433    -5.9262    -2.2042 H       
  24 H24            5.2950    -8.2709    -2.2232 H       
  25 H25            5.6920    -9.4538    -0.1004 H       
  26 H26            5.3381    -8.2917     2.0414 H       
  27 H27            4.5945    -5.9444     2.0604 H       
  28 H28           -1.5480     2.3584     1.0502 H       
  29 H29           -1.0494     3.0979    -0.4902 H       
  30 H30           -2.0626     1.6345    -0.4923 H       
@<TRIPOS>BOND
   1    1    2 2
   2    1    5 1
   3    1   16 1
   4    2    3 1
   5    3    4 2
   6    3    6 1
   7    4    5 1
   8    4   17 1
   9    5   18 1
  10    6    7 3
  11    7    8 1
  12    8    9 1
  13    8   19 1
  14    8   20 1
  15    9   10 1
  16    9   21 1
  17    9   22 1
  18   10   11 ar
  19   10   15 ar
  20   11   12 ar
  21   11   23 1
  22   12   13 ar
  23   12   24 1
  24   13   14 ar
  25   13   25 1
  26   14   15 ar
  27   14   26 1
  28   15   27 1
  29   16   28 1
  30   16   29 1
  31   16   30 1

#	End of record

