#	Name: ASD01840519
#	Creating user name:	WinNT
#	Creation time:	15. 06. 2019 19:37

#	Modifying user name:	WinNT
#	Modification time:	15. 06. 2019 19:37

#	Program:	/corina/corina34_cracker 3.40 0067  02.08.2006

@<TRIPOS>MOLECULE
ASD01840519
  56   59    0    0    0
SMALL
NO_CHARGES


@<TRIPOS>ATOM
   1 C1             2.5987    -0.4445     0.9815 C.3     
   2 C2             1.3058    -1.0729     0.5290 C.ar    
   3 C3             1.2098    -1.6962    -0.7017 C.ar    
   4 C4            -0.0220    -2.2593    -1.0591 C.ar    
   5 N5            -1.0501    -2.1826    -0.2228 N.ar    
   6 N6            -0.9590    -1.6036     0.9191 N.ar    
   7 C7             0.1713    -1.0479     1.3420 C.ar    
   8 N8             0.2225    -0.4400     2.5855 N.3     
   9 C9            -0.7105     0.6918     2.6567 C.3     
  10 C10           -0.5233     1.4260     3.9863 C.3     
  11 C11           -0.7814     0.4543     5.1411 C.3     
  12 C12            0.1702    -0.7388     5.0162 C.3     
  13 C13           -0.0371    -1.4103     3.6567 C.3     
  14 O14           -0.5528     1.1194     6.3851 O.3     
  15 C15           -1.2025     0.6311     7.4744 C.ar    
  16 C16           -1.9524    -0.5326     7.3710 C.ar    
  17 C17           -2.6154    -1.0346     8.4759 C.ar    
  18 C18           -2.5364    -0.3819     9.6887 C.ar    
  19 C19           -1.7845     0.7895     9.8026 C.ar    
  20 C20           -1.1115     1.2915     8.6881 C.ar    
  21 C21           -1.7001     1.4699    11.0599 C.1     
  22 N22           -1.6331     2.0096    12.0572 N.1     
  23 C23           -0.1768    -2.9366    -2.3642 C.2     
  24 O24            0.7657    -3.0054    -3.1288 O.2     
  25 N25           -1.3629    -3.4777    -2.7061 N.am    
  26 C26           -1.5162    -4.1488    -3.9993 C.3     
  27 C27           -2.9267    -4.6618    -4.1349 C.ar    
  28 C28           -3.2647    -5.9332    -3.6968 C.ar    
  29 C29           -4.5685    -6.3696    -3.8377 C.ar    
  30 N30           -5.4849    -5.5925    -4.3812 N.ar    
  31 C31           -5.1995    -4.3782    -4.8088 C.ar    
  32 C32           -3.9186    -3.8716    -4.6953 C.ar    
  33 H33            3.1586    -1.1594     1.5845 H       
  34 H34            3.1899    -0.1621     0.1104 H       
  35 H35            2.3826     0.4425     1.5770 H       
  36 H36            2.0587    -1.7471    -1.3673 H       
  37 H37           -0.5135     1.3773     1.8324 H       
  38 H38           -1.7340     0.3238     2.5860 H       
  39 H39            0.4961     1.8063     4.0516 H       
  40 H40           -1.2267     2.2566     4.0455 H       
  41 H41           -1.8127     0.1037     5.0986 H       
  42 H42            1.2005    -0.3926     5.0978 H       
  43 H43           -0.0377    -1.4549     5.8113 H       
  44 H44           -1.0638    -1.7685     3.5814 H       
  45 H45            0.6490    -2.2515     3.5588 H       
  46 H46           -2.0185    -1.0476     6.4240 H       
  47 H47           -3.1972    -1.9403     8.3889 H       
  48 H48           -3.0560    -0.7763    10.5494 H       
  49 H49           -0.5248     2.1945     8.7708 H       
  50 H50           -2.1149    -3.4228    -2.0960 H       
  51 H51           -1.3080    -3.4420    -4.8025 H       
  52 H52           -0.8184    -4.9840    -4.0603 H       
  53 H53           -2.5185    -6.5745    -3.2515 H       
  54 H54           -4.8399    -7.3585    -3.4990 H       
  55 H55           -5.9766    -3.7709    -5.2489 H       
  56 H56           -3.6921    -2.8744    -5.0429 H       
@<TRIPOS>BOND
   1    1    2 1
   2    1   33 1
   3    1   34 1
   4    1   35 1
   5    2    7 ar
   6    2    3 ar
   7    3    4 ar
   8    3   36 1
   9    4    5 ar
  10    4   23 1
  11    5    6 ar
  12    6    7 ar
  13    7    8 1
  14    8   13 1
  15    8    9 1
  16    9   10 1
  17    9   37 1
  18    9   38 1
  19   10   11 1
  20   10   39 1
  21   10   40 1
  22   11   12 1
  23   11   14 1
  24   11   41 1
  25   12   13 1
  26   12   42 1
  27   12   43 1
  28   13   44 1
  29   13   45 1
  30   14   15 1
  31   15   20 ar
  32   15   16 ar
  33   16   17 ar
  34   16   46 1
  35   17   18 ar
  36   17   47 1
  37   18   19 ar
  38   18   48 1
  39   19   20 ar
  40   19   21 1
  41   20   49 1
  42   21   22 3
  43   23   24 2
  44   23   25 am
  45   25   26 1
  46   25   50 1
  47   26   27 1
  48   26   51 1
  49   26   52 1
  50   27   32 ar
  51   27   28 ar
  52   28   29 ar
  53   28   53 1
  54   29   30 ar
  55   29   54 1
  56   30   31 ar
  57   31   32 ar
  58   31   55 1
  59   32   56 1

#	End of record

