#	Name: ASD02030013
#	Creating user name:	WinNT
#	Creation time:	15. 06. 2019 20:14

#	Modifying user name:	WinNT
#	Modification time:	15. 06. 2019 20:14

#	Program:	/corina/corina34_cracker 3.40 0067  02.08.2006

@<TRIPOS>MOLECULE
ASD02030013
  49   50    0    0    0
SMALL
NO_CHARGES


@<TRIPOS>ATOM
   1 C1             0.8165     0.6418     0.6597 C.ar    
   2 C2             0.6891    -0.7337     0.5679 C.ar    
   3 C3            -0.5677    -1.3085     0.5048 C.ar    
   4 C4            -1.6951    -0.5098     0.5334 C.ar    
   5 C5            -1.5680     0.8640     0.6246 C.ar    
   6 C6            -0.3133     1.4395     0.6940 C.ar    
   7 Cl7            2.3928     1.3648     0.7389 Cl      
   8 Cl8            2.1057    -1.7365     0.5315 Cl      
   9 C9            -3.0639    -1.1364     0.4647 C.3     
  10 C10           -3.5568    -1.4417     1.8806 C.3     
  11 N11           -4.8911    -2.0526     1.8136 N.3     
  12 C12           -5.3973    -2.3602     3.1578 C.3     
  13 C13           -6.7857    -2.9935     3.0473 C.3     
  14 C14           -7.3653    -3.1994     4.4483 C.3     
  15 O15           -8.7062    -3.6820     4.3428 O.3     
  16 O16           -6.6823    -4.2552     2.3845 O.3     
  17 C17           -9.3704    -3.9188     5.5057 C.ar    
  18 C18          -10.6752    -4.3883     5.4754 C.ar    
  19 C19          -11.3503    -4.6295     6.6559 C.ar    
  20 C20          -10.7225    -4.4018     7.8733 C.ar    
  21 C21           -9.4162    -3.9317     7.9027 C.ar    
  22 C22           -8.7408    -3.6961     6.7213 C.ar    
  23 N23          -11.4060    -4.6454     9.0699 N.am    
  24 S24          -11.9816    -3.3784     9.9674 S.o2    
  25 C25          -13.2053    -2.5807     8.8918 C.3     
  26 O26          -12.6200    -3.9960    11.0766 O.2     
  27 O27          -10.8520    -2.5354    10.1484 O.2     
  28 H28           -0.6677    -2.3815     0.4329 H       
  29 H29           -2.4496     1.4874     0.6465 H       
  30 H30           -0.2147     2.5127     0.7652 H       
  31 H31           -3.7553    -0.4469    -0.0199 H       
  32 H32           -3.0116    -2.0616    -0.1092 H       
  33 H33           -2.8654    -2.1312     2.3651 H       
  34 H34           -3.6091    -0.5165     2.4545 H       
  35 H35           -5.5352    -1.4601     1.3114 H       
  36 H36           -4.7188    -3.0560     3.6512 H       
  37 H37           -5.4625    -1.4413     3.7406 H       
  38 H38           -7.4408    -2.3356     2.4762 H       
  39 H39           -6.7591    -3.9261     4.9891 H       
  40 H40           -7.3617    -2.2512     4.9859 H       
  41 H41           -6.1133    -4.8923     2.8379 H       
  42 H42          -11.1635    -4.5650     4.5284 H       
  43 H43          -12.3664    -4.9947     6.6321 H       
  44 H44           -8.9271    -3.7543     8.8492 H       
  45 H45           -7.7246    -3.3309     6.7440 H       
  46 H46          -11.5426    -5.5565     9.3736 H       
  47 H47          -13.9424    -3.3171     8.5715 H       
  48 H48          -13.7045    -1.7815     9.4396 H       
  49 H49          -12.7043    -2.1644     8.0179 H       
@<TRIPOS>BOND
   1    1    2 ar
   2    1    7 1
   3    1    6 ar
   4    2    3 ar
   5    2    8 1
   6    3    4 ar
   7    3   28 1
   8    4    5 ar
   9    4    9 1
  10    5    6 ar
  11    5   29 1
  12    6   30 1
  13    9   10 1
  14    9   31 1
  15    9   32 1
  16   10   11 1
  17   10   33 1
  18   10   34 1
  19   11   12 1
  20   11   35 1
  21   12   13 1
  22   12   36 1
  23   12   37 1
  24   13   14 1
  25   13   16 1
  26   13   38 1
  27   14   15 1
  28   14   39 1
  29   14   40 1
  30   15   17 1
  31   16   41 1
  32   17   18 ar
  33   17   22 ar
  34   18   19 ar
  35   18   42 1
  36   19   20 ar
  37   19   43 1
  38   20   21 ar
  39   20   23 1
  40   21   22 ar
  41   21   44 1
  42   22   45 1
  43   23   24 am
  44   23   46 1
  45   24   25 1
  46   24   26 2
  47   24   27 2
  48   25   47 1
  49   25   48 1
  50   25   49 1

#	End of record

