#	Name: ASD01882194
#	Creating user name:	WinNT
#	Creation time:	15. 06. 2019 19:44

#	Modifying user name:	WinNT
#	Modification time:	15. 06. 2019 19:44

#	Program:	/corina/corina34_cracker 3.40 0067  02.08.2006

@<TRIPOS>MOLECULE
ASD01882194
  19   20    0    0    0
SMALL
NO_CHARGES


@<TRIPOS>ATOM
   1 C1            -0.0178     1.4614     0.0101 C.2     
   2 C2             0.0021    -0.0041     0.0020 C.2     
   3 C3             1.2363    -0.6460    -0.0132 C.2     
   4 C4             2.4065     0.1218    -0.0203 C.2     
   5 C5             2.3560     1.4707    -0.0125 C.2     
   6 N6             1.1714     2.1439     0.0024 N.pl3   
   7 N7            -1.0000     2.3434     0.0295 N.2     
   8 C8            -0.4828     3.5767     0.0282 C.2     
   9 C9             0.8631     3.4791     0.0125 C.2     
  10 C10           -1.2169    -0.7555     0.0101 C.1     
  11 N11           -2.1839    -1.3516     0.0165 N.1     
  12 C12            1.8432     4.6238     0.0093 C.3     
  13 F13            2.1339     4.9851    -1.3106 F       
  14 F14            1.2852     5.7174     0.6800 F       
  15 F15            3.0204     4.2316     0.6555 F       
  16 Cl16           1.3238    -2.3798    -0.0228 Cl      
  17 H17            3.3662    -0.3734    -0.0317 H       
  18 H18            3.2791     2.0312    -0.0183 H       
  19 H19           -1.0479     4.4971     0.0416 H       
@<TRIPOS>BOND
   1    1    2 1
   2    1    6 1
   3    1    7 2
   4    2    3 2
   5    2   10 1
   6    3    4 1
   7    3   16 1
   8    4    5 2
   9    4   17 1
  10    5    6 1
  11    5   18 1
  12    6    9 1
  13    7    8 1
  14    8    9 2
  15    8   19 1
  16    9   12 1
  17   10   11 3
  18   12   13 1
  19   12   14 1
  20   12   15 1

#	End of record

