#	Name: ASD07030053
#	Creating user name:	WinNT
#	Creation time:	15. 06. 2019 21:08

#	Modifying user name:	WinNT
#	Modification time:	15. 06. 2019 21:08

#	Program:	/corina/corina34_cracker 3.40 0067  02.08.2006

@<TRIPOS>MOLECULE
ASD07030053
  47   49    0    0    0
SMALL
NO_CHARGES


@<TRIPOS>ATOM
   1 N1             0.0966     1.4163    -0.3292 N.3     
   2 C2             0.0048    -0.0276    -0.0449 C.3     
   3 C3             1.4289    -0.6092    -0.1680 C.3     
   4 C4             2.3334     0.6334     0.0434 C.3     
   5 C5             1.5030     1.7456    -0.6444 C.3     
   6 N6             1.6723    -1.6126     0.8769 N.3     
   7 C7            -0.7930     1.7924    -1.4362 C.3     
   8 C8            -0.8617     3.3173    -1.5396 C.3     
   9 N9            -1.7512     3.6934    -2.6466 N.3     
  10 C10           -1.8417     5.1539    -2.7763 C.3     
  11 C11           -2.2076     5.7198    -4.1499 C.3     
  12 C12           -3.2278     5.7578    -3.0104 C.3     
  13 C13           -1.5708     7.0234    -4.5575 C.ar    
  14 C14           -0.7809     7.0824    -5.6904 C.ar    
  15 C15           -0.1968     8.2781    -6.0643 C.ar    
  16 C16           -0.4028     9.4151    -5.3054 C.ar    
  17 C17           -1.1934     9.3563    -4.1730 C.ar    
  18 C18           -1.7811     8.1615    -3.8015 C.ar    
  19 C19            0.7636    -2.7574     0.7293 C.3     
  20 C20            3.0748    -2.0495     0.8708 C.3     
  21 H21           -0.3732    -0.1832     0.9656 H       
  22 H22           -0.6552    -0.5067    -0.7680 H       
  23 H23            1.5864    -1.0365    -1.1583 H       
  24 H24            2.4652     0.8444     1.1047 H       
  25 H25            3.2967     0.5037    -0.4499 H       
  26 H26            1.6644     1.7281    -1.7223 H       
  27 H27            1.7647     2.7219    -0.2365 H       
  28 H28           -0.4059     1.3820    -2.3688 H       
  29 H29           -1.7911     1.3954    -1.2511 H       
  30 H30           -1.2487     3.7277    -0.6070 H       
  31 H31            0.1365     3.7143    -1.7247 H       
  32 H32           -1.4497     3.2715    -3.5121 H       
  33 H33           -1.1404     5.7245    -2.1674 H       
  34 H34           -2.3811     5.0084    -4.9573 H       
  35 H35           -4.0726     5.0714    -3.0681 H       
  36 H36           -3.4385     6.7257    -2.5555 H       
  37 H37           -0.6200     6.1941    -6.2833 H       
  38 H38            0.4209     8.3240    -6.9491 H       
  39 H39            0.0541    10.3491    -5.5971 H       
  40 H40           -1.3541    10.2445    -3.5799 H       
  41 H41           -2.4017     8.1164    -2.9188 H       
  42 H42            0.9195    -3.2218    -0.2443 H       
  43 H43            0.9653    -3.4850     1.5155 H       
  44 H44           -0.2682    -2.4147     0.8074 H       
  45 H45            3.7170    -1.2135     1.1478 H       
  46 H46            3.2057    -2.8610     1.5866 H       
  47 H47            3.3424    -2.3982    -0.1267 H       
@<TRIPOS>BOND
   1    1    2 1
   2    1    5 1
   3    1    7 1
   4    2    3 1
   5    2   21 1
   6    2   22 1
   7    3    4 1
   8    3    6 1
   9    3   23 1
  10    4    5 1
  11    4   24 1
  12    4   25 1
  13    5   26 1
  14    5   27 1
  15    6   19 1
  16    6   20 1
  17    7    8 1
  18    7   28 1
  19    7   29 1
  20    8    9 1
  21    8   30 1
  22    8   31 1
  23    9   10 1
  24    9   32 1
  25   10   11 1
  26   10   12 1
  27   10   33 1
  28   11   12 1
  29   11   13 1
  30   11   34 1
  31   12   35 1
  32   12   36 1
  33   13   14 ar
  34   13   18 ar
  35   14   15 ar
  36   14   37 1
  37   15   16 ar
  38   15   38 1
  39   16   17 ar
  40   16   39 1
  41   17   18 ar
  42   17   40 1
  43   18   41 1
  44   19   42 1
  45   19   43 1
  46   19   44 1
  47   20   45 1
  48   20   46 1
  49   20   47 1

#	End of record

