#	Name: ASD03430748
#	Creating user name:	WinNT
#	Creation time:	15. 06. 2019 20:41

#	Modifying user name:	WinNT
#	Modification time:	15. 06. 2019 20:41

#	Program:	/corina/corina34_cracker 3.40 0067  02.08.2006

@<TRIPOS>MOLECULE
ASD03430748
  36   39    0    0    0
SMALL
NO_CHARGES


@<TRIPOS>ATOM
   1 C1            -0.0167     1.3778     0.0096 C.ar    
   2 C2             0.0021    -0.0041     0.0020 C.ar    
   3 C3             1.2027    -0.6814    -0.0134 C.ar    
   4 C4             2.4093     0.0137    -0.0102 C.ar    
   5 C5             2.3858     1.4047    -0.0075 C.ar    
   6 C6             1.1790     2.0825     0.0020 C.ar    
   7 O7             3.4712    -0.8404     0.0027 O.3     
   8 C8             1.5516    -2.1451    -0.0498 C.3     
   9 C9             3.0381    -2.1437    -0.4323 C.3     
  10 C10            0.4247    -3.8626     0.9995 C.ar    
  11 C11            1.3128    -2.8232     1.2664 C.ar    
  12 C12            0.7205    -2.9032    -1.0448 C.2     
  13 N13            0.0984    -3.8823    -0.3586 N.am    
  14 O14            0.6271    -2.6782    -2.2330 O.2     
  15 C15            1.7760    -2.6089     2.5449 C.ar    
  16 C16            1.3606    -3.4290     3.5794 C.ar    
  17 C17            0.4794    -4.4638     3.3258 C.ar    
  18 C18            0.0123    -4.6827     2.0463 C.ar    
  19 O19            1.1649     3.4414     0.0038 O.3     
  20 C20           -1.3301     2.1165     0.0198 C.3     
  21 C21            2.4313     4.1034    -0.0044 C.3     
  22 H22           -0.9268    -0.5551     0.0085 H       
  23 H23            3.3132     1.9581    -0.0125 H       
  24 H24            3.1605    -2.2525    -1.5100 H       
  25 H25            3.5756    -2.9280     0.1005 H       
  26 H26           -0.5055    -4.5260    -0.7610 H       
  27 H27            2.4646    -1.8003     2.7408 H       
  28 H28            1.7242    -3.2612     4.5824 H       
  29 H29            0.1555    -5.1039     4.1331 H       
  30 H30           -0.6757    -5.4931     1.8560 H       
  31 H31           -1.6420     2.2890     1.0499 H       
  32 H32           -1.2130     3.0731    -0.4894 H       
  33 H33           -2.0855     1.5217    -0.4937 H       
  34 H34            2.9976     3.8152     0.8812 H       
  35 H35            2.9849     3.8175    -0.8987 H       
  36 H36            2.2772     5.1824    -0.0019 H       
@<TRIPOS>BOND
   1    1    2 ar
   2    1    6 ar
   3    1   20 1
   4    2    3 ar
   5    2   22 1
   6    3    4 ar
   7    3    8 1
   8    4    5 ar
   9    4    7 1
  10    5    6 ar
  11    5   23 1
  12    6   19 1
  13    7    9 1
  14    8    9 1
  15    8   11 1
  16    8   12 1
  17    9   24 1
  18    9   25 1
  19   10   11 ar
  20   10   13 1
  21   10   18 ar
  22   11   15 ar
  23   12   13 am
  24   12   14 2
  25   13   26 1
  26   15   16 ar
  27   15   27 1
  28   16   17 ar
  29   16   28 1
  30   17   18 ar
  31   17   29 1
  32   18   30 1
  33   19   21 1
  34   20   31 1
  35   20   32 1
  36   20   33 1
  37   21   34 1
  38   21   35 1
  39   21   36 1

#	End of record

