#	Name: ASD01230557
#	Creating user name:	WinNT
#	Creation time:	15. 06. 2019 19:14

#	Modifying user name:	WinNT
#	Modification time:	15. 06. 2019 19:14

#	Program:	/corina/corina34_cracker 3.40 0067  02.08.2006

@<TRIPOS>MOLECULE
ASD01230557
  43   46    0    0    0
SMALL
NO_CHARGES


@<TRIPOS>ATOM
   1 S1             1.2234     0.8976     1.3275 S.o2    
   2 N2             0.8927    -0.6754     0.9350 N.am    
   3 C3             1.7494    -1.4312     0.2913 C.2     
   4 N4             2.9887    -1.0428    -0.1304 N.pl3   
   5 C5             3.5152     0.3164     0.0194 C.3     
   6 C6             3.0437     0.9334     1.3396 C.3     
   7 C7             1.3086    -2.8145     0.0124 C.2     
   8 C8             2.1725    -3.6789    -0.6241 C.2     
   9 C9             3.4470    -3.2208    -0.9879 C.2     
  10 C10            3.8177    -1.9519    -0.7411 C.2     
  11 C11           -0.0437    -3.2654     0.4124 C.ar    
  12 C12           -0.1916    -4.2617     1.3781 C.ar    
  13 C13           -1.4525    -4.6791     1.7481 C.ar    
  14 C14           -2.5744    -4.1096     1.1606 C.ar    
  15 C15           -2.4312    -3.1179     0.1992 C.ar    
  16 C16           -1.1736    -2.6911    -0.1712 C.ar    
  17 O17           -3.8156    -4.5242     1.5271 O.3     
  18 C18           -4.3064    -4.0919     2.7157 C.ar    
  19 C19           -5.5242    -4.5780     3.1751 C.ar    
  20 C20           -6.0134    -4.1293     4.3892 C.ar    
  21 C21           -5.2635    -3.2056     5.1046 C.ar    
  22 C22           -4.0614    -2.7656     4.5874 C.ar    
  23 N23           -3.6184    -3.2157     3.4288 N.ar    
  24 C24           -3.2422    -1.7630     5.3585 C.3     
  25 Cl25           4.5582    -4.3037    -1.7664 Cl      
  26 O26            0.7113     1.6531     0.2384 O.2     
  27 O27            0.7072     1.0542     2.6421 O.2     
  28 H28            4.6047     0.2833     0.0068 H       
  29 H29            3.1652     0.9310    -0.8099 H       
  30 H30            3.3946     1.9626     1.4147 H       
  31 H31            3.4212     0.3491     2.1787 H       
  32 H32            1.8727    -4.6940    -0.8392 H       
  33 H33            4.8075    -1.6349    -1.0348 H       
  34 H34            0.6806    -4.7056     1.8350 H       
  35 H35           -1.5677    -5.4502     2.4955 H       
  36 H36           -3.3060    -2.6773    -0.2556 H       
  37 H37           -1.0630    -1.9163    -0.9155 H       
  38 H38           -6.0817    -5.2962     2.5922 H       
  39 H39           -6.9572    -4.4893     4.7714 H       
  40 H40           -5.6168    -2.8349     6.0554 H       
  41 H41           -2.5574    -2.2884     6.0242 H       
  42 H42           -2.6719    -1.1477     4.6626 H       
  43 H43           -3.9046    -1.1277     5.9464 H       
@<TRIPOS>BOND
   1    1    2 am
   2    1    6 1
   3    1   26 2
   4    1   27 2
   5    2    3 2
   6    3    4 1
   7    3    7 1
   8    4    5 1
   9    4   10 1
  10    5    6 1
  11    5   28 1
  12    5   29 1
  13    6   30 1
  14    6   31 1
  15    7    8 2
  16    7   11 1
  17    8    9 1
  18    8   32 1
  19    9   10 2
  20    9   25 1
  21   10   33 1
  22   11   12 ar
  23   11   16 ar
  24   12   13 ar
  25   12   34 1
  26   13   14 ar
  27   13   35 1
  28   14   15 ar
  29   14   17 1
  30   15   16 ar
  31   15   36 1
  32   16   37 1
  33   17   18 1
  34   18   19 ar
  35   18   23 ar
  36   19   20 ar
  37   19   38 1
  38   20   21 ar
  39   20   39 1
  40   21   22 ar
  41   21   40 1
  42   22   23 ar
  43   22   24 1
  44   24   41 1
  45   24   42 1
  46   24   43 1

#	End of record

