#	Name: ASD01028332
#	Creating user name:	WinNT
#	Creation time:	15. 06. 2019 18:56

#	Modifying user name:	WinNT
#	Modification time:	15. 06. 2019 18:56

#	Program:	/corina/corina34_cracker 3.40 0067  02.08.2006

@<TRIPOS>MOLECULE
ASD01028332
  54   59    0    0    0
SMALL
NO_CHARGES


@<TRIPOS>ATOM
   1 C1            -0.0171     1.4118     0.0098 C.ar    
   2 C2             0.0021    -0.0041     0.0020 C.ar    
   3 C3             1.2105     2.1116     0.0018 C.ar    
   4 C4             2.3793     1.3714    -0.0133 C.ar    
   5 C5             2.3160    -0.0162    -0.0202 C.ar    
   6 N6             1.1704    -0.6565    -0.0123 N.ar    
   7 O7             1.2420     3.4670     0.0084 O.3     
   8 C8             2.5299     4.0861    -0.0005 C.3     
   9 C9             2.3673     5.5842     0.0086 C.2     
  10 N10            2.2914     6.3714     1.1040 N.pl3   
  11 C11            2.1477     7.6569     0.6381 C.2     
  12 N12            2.1436     7.5869    -0.6830 N.2     
  13 N13            2.2796     6.3587    -1.0440 N.2     
  14 N14            2.3299     6.1248     2.4779 N.2     
  15 C15            2.2295     7.1161     3.3363 C.2     
  16 C16            2.0805     8.4465     2.8889 C.2     
  17 C17            2.0406     8.7174     1.5578 C.2     
  18 C18            2.2727     6.8329     4.7909 C.ar    
  19 C19            2.4192     5.5208     5.2416 C.ar    
  20 C20            2.4589     5.2567     6.5922 C.ar    
  21 C21            2.3530     6.3031     7.5114 C.ar    
  22 C22            2.2068     7.6166     7.0592 C.ar    
  23 C23            2.1725     7.8793     5.7081 C.ar    
  24 C24           -1.2152    -0.7043     0.0100 C.ar    
  25 C25           -2.4012    -0.0066     0.0251 C.ar    
  26 C26           -2.4085     1.3917     0.0326 C.ar    
  27 O27           -3.5786    -0.6840     0.0324 O.3     
  28 C28           -1.2431     2.0938     0.0310 C.ar    
  29 C29           -4.7758     0.0961     0.0481 C.3     
  30 C30            2.3951     6.0207     8.9610 C.2     
  31 N31            2.5277     4.8408     9.5209 N.2     
  32 N32            2.5235     4.9758    10.8005 N.2     
  33 C33            2.3892     6.2366    11.1053 C.2     
  34 O34            2.3103     6.9274     9.9551 O.3     
  35 C35            2.3374     6.8151    12.4959 C.3     
  36 H36            3.3370     1.8705    -0.0202 H       
  37 H37            3.2348    -0.5838    -0.0321 H       
  38 H38            3.0883     3.7758     0.8827 H       
  39 H39            3.0716     3.7849    -0.8972 H       
  40 H40            1.9989     9.2504     3.6055 H       
  41 H41            1.9267     9.7335     1.2098 H       
  42 H42            2.5011     4.7118     4.5307 H       
  43 H43            2.5716     4.2408     6.9409 H       
  44 H44            2.1245     8.4263     7.7692 H       
  45 H45            2.0598     8.8948     5.3583 H       
  46 H46           -1.2205    -1.7843     0.0039 H       
  47 H47           -3.3501     1.9205     0.0445 H       
  48 H48           -1.2617     3.1736     0.0369 H       
  49 H49           -4.7913     0.7199     0.9418 H       
  50 H50           -4.8081     0.7300    -0.8381 H       
  51 H51           -5.6412    -0.5666     0.0525 H       
  52 H52            3.3466     7.0657    12.8230 H       
  53 H53            1.7226     7.7151    12.4924 H       
  54 H54            1.9057     6.0828    13.1782 H       
@<TRIPOS>BOND
   1    1    2 ar
   2    1    3 ar
   3    1   28 ar
   4    2   24 ar
   5    2    6 ar
   6    3    4 ar
   7    3    7 1
   8    4    5 ar
   9    4   36 1
  10    5    6 ar
  11    5   37 1
  12    7    8 1
  13    8    9 1
  14    8   38 1
  15    8   39 1
  16    9   10 1
  17    9   13 2
  18   10   11 1
  19   10   14 1
  20   11   12 2
  21   11   17 1
  22   12   13 1
  23   14   15 2
  24   15   16 1
  25   15   18 1
  26   16   17 2
  27   16   40 1
  28   17   41 1
  29   18   19 ar
  30   18   23 ar
  31   19   20 ar
  32   19   42 1
  33   20   21 ar
  34   20   43 1
  35   21   22 ar
  36   21   30 1
  37   22   23 ar
  38   22   44 1
  39   23   45 1
  40   24   25 ar
  41   24   46 1
  42   25   26 ar
  43   25   27 1
  44   26   28 ar
  45   26   47 1
  46   27   29 1
  47   28   48 1
  48   29   49 1
  49   29   50 1
  50   29   51 1
  51   30   31 2
  52   30   34 1
  53   31   32 1
  54   32   33 2
  55   33   34 1
  56   33   35 1
  57   35   52 1
  58   35   53 1
  59   35   54 1

#	End of record

