#	Name: ASD01028403
#	Creating user name:	WinNT
#	Creation time:	15. 06. 2019 18:57

#	Modifying user name:	WinNT
#	Modification time:	15. 06. 2019 18:57

#	Program:	/corina/corina34_cracker 3.40 0067  02.08.2006

@<TRIPOS>MOLECULE
ASD01028403
  47   51    0    0    0
SMALL
NO_CHARGES


@<TRIPOS>ATOM
   1 C1            -0.0171     1.4121     0.0098 C.ar    
   2 C2             0.0021    -0.0041     0.0020 C.ar    
   3 C3             1.2106     2.1118     0.0018 C.ar    
   4 C4             2.3793     1.3716    -0.0133 C.ar    
   5 C5             2.3160    -0.0161    -0.0202 C.ar    
   6 N6             1.1705    -0.6564    -0.0123 N.ar    
   7 O7             1.2422     3.4673     0.0084 O.3     
   8 C8             2.5302     4.0862    -0.0005 C.3     
   9 C9             2.3676     5.5844     0.0086 C.2     
  10 N10            2.2915     6.3757     1.1076 N.pl3   
  11 C11            2.1484     7.6605     0.6387 C.2     
  12 N12            2.1449     7.5879    -0.6821 N.2     
  13 N13            2.2800     6.3599    -1.0433 N.2     
  14 N14            2.3293     6.1317     2.4818 N.2     
  15 C15            2.2288     7.1247     3.3381 C.2     
  16 C16            2.0810     8.4542     2.8881 C.2     
  17 C17            2.0413     8.7227     1.5564 C.2     
  18 C18            2.2708     6.8442     4.7936 C.ar    
  19 C19           -1.2149    -0.7042     0.0100 C.ar    
  20 C20           -2.4012    -0.0062     0.0251 C.ar    
  21 C21           -2.4084     1.3917     0.0326 C.ar    
  22 C22           -1.2427     2.0939     0.0310 C.ar    
  23 O23           -3.5785    -0.6836     0.0324 O.3     
  24 C24           -4.7757     0.0965     0.0481 C.3     
  25 C25            2.4161     5.5329     5.2467 C.ar    
  26 C26            2.4548     5.2710     6.5977 C.ar    
  27 C27            2.3488     6.3196     7.5153 C.ar    
  28 C28            2.2037     7.6328     7.0601 C.ar    
  29 C29            2.1706     7.8925     5.7085 C.ar    
  30 C30            2.3883     6.0486     8.9209 C.1     
  31 N31            2.4197     5.8336    10.0359 N.1     
  32 H32            3.3371     1.8706    -0.0202 H       
  33 H33            3.2348    -0.5836    -0.0325 H       
  34 H34            3.0885     3.7759     0.8827 H       
  35 H35            3.0719     3.7850    -0.8972 H       
  36 H36            1.9997     9.2595     3.6031 H       
  37 H37            1.9287     9.7383     1.2065 H       
  38 H38           -1.2202    -1.7841     0.0039 H       
  39 H39           -3.3500     1.9205     0.0441 H       
  40 H40           -1.2613     3.1737     0.0368 H       
  41 H41           -5.6412    -0.5662     0.0525 H       
  42 H42           -4.7912     0.7203     0.9418 H       
  43 H43           -4.8080     0.7304    -0.8380 H       
  44 H44            2.4980     4.7226     4.5373 H       
  45 H45            2.5666     4.2556     6.9482 H       
  46 H46            2.1217     8.4441     7.7683 H       
  47 H47            2.0584     8.9073     5.3564 H       
@<TRIPOS>BOND
   1    1    2 ar
   2    1    3 ar
   3    1   22 ar
   4    2   19 ar
   5    2    6 ar
   6    3    4 ar
   7    3    7 1
   8    4    5 ar
   9    4   32 1
  10    5    6 ar
  11    5   33 1
  12    7    8 1
  13    8    9 1
  14    8   34 1
  15    8   35 1
  16    9   10 1
  17    9   13 2
  18   10   11 1
  19   10   14 1
  20   11   12 2
  21   11   17 1
  22   12   13 1
  23   14   15 2
  24   15   16 1
  25   15   18 1
  26   16   17 2
  27   16   36 1
  28   17   37 1
  29   18   25 ar
  30   18   29 ar
  31   19   20 ar
  32   19   38 1
  33   20   21 ar
  34   20   23 1
  35   21   22 ar
  36   21   39 1
  37   22   40 1
  38   23   24 1
  39   24   41 1
  40   24   42 1
  41   24   43 1
  42   25   26 ar
  43   25   44 1
  44   26   27 ar
  45   26   45 1
  46   27   28 ar
  47   27   30 1
  48   28   29 ar
  49   28   46 1
  50   29   47 1
  51   30   31 3

#	End of record

