#	Name: ASD01411057
#	Creating user name:	WinNT
#	Creation time:	15. 06. 2019 19:19

#	Modifying user name:	WinNT
#	Modification time:	15. 06. 2019 19:19

#	Program:	/corina/corina34_cracker 3.40 0067  02.08.2006

@<TRIPOS>MOLECULE
ASD01411057
  68   72    0    0    0
SMALL
NO_CHARGES


@<TRIPOS>ATOM
   1 C1             0.5310     1.9023     0.8302 C.ar    
   2 C2             0.3096     0.4924     0.4414 C.2     
   3 C3             1.8418     2.3642     1.0588 C.ar    
   4 C4            -0.5415     2.7752     0.9661 C.ar    
   5 C5             1.4588    -0.3211     0.0039 C.ar    
   6 O6            -0.8058     0.0102     0.4826 O.2     
   7 C7             2.0515     3.6956     1.4252 C.ar    
   8 C8             2.9803     1.4378     0.9079 C.2     
   9 C9            -0.3189     4.0940     1.3304 C.ar    
  10 C10            2.7708     0.1434     0.2326 C.ar    
  11 C11            1.2674    -1.5445    -0.6330 C.ar    
  12 C12            0.9621     4.5521     1.5605 C.ar    
  13 C13            3.8519    -0.6277    -0.1851 C.ar    
  14 C14            2.3665    -2.3100    -1.0458 C.ar    
  15 O15            0.0090    -1.9986    -0.8550 O.3     
  16 C16            3.6427    -1.8554    -0.8282 C.ar    
  17 O17            5.1163    -0.1882     0.0323 O.3     
  18 C18            2.0787    -3.6287    -1.7165 C.3     
  19 C19            4.8631    -2.6243    -1.2654 C.3     
  20 C20            3.3038    -4.1217    -2.4832 C.3     
  21 C21            4.5108    -4.0847    -1.5385 C.3     
  22 C22            3.5574    -3.2239    -3.6667 C.2     
  23 O23            3.0840    -5.4603    -2.9326 O.3     
  24 C24            4.3210    -3.7442    -4.8572 C.3     
  25 O25            3.1487    -2.0876    -3.6611 O.2     
  26 O26            4.4301    -2.7132    -5.8407 O.3     
  27 H27           -0.3655    -1.7212    -1.7023 H       
  28 H28            5.4630    -0.4052     0.9085 H       
  29 H29            2.3232    -5.5576    -3.5215 H       
  30 H30            4.9110    -2.9783    -6.6366 H       
  31 O31            5.8520    -2.5632    -0.2356 O.3     
  32 C32            7.1948    -2.6721    -0.7120 C.3     
  33 C33            8.1653    -2.2591     0.3976 C.3     
  34 C34            8.0130    -3.2188     1.5817 C.3     
  35 C35            8.2582    -4.6515     1.0984 C.3     
  36 C36            7.2841    -4.9721    -0.0383 C.3     
  37 O37            7.4569    -4.0241    -1.0935 O.3     
  38 C38            7.5626    -6.3805    -0.5670 C.3     
  39 O39            9.6010    -4.7725     0.6249 O.3     
  40 N40            8.9930    -2.8763     2.6211 N.3     
  41 O41            4.0786     1.7378     1.3357 O.2     
  42 O42            3.3089     4.1514     1.6484 O.3     
  43 C43            3.4448     5.5246     2.0197 C.3     
  44 H44           -1.5479     2.4265     0.7876 H       
  45 H45           -1.1554     4.7691     1.4343 H       
  46 H46            1.1210     5.5821     1.8436 H       
  47 H47            1.8082    -4.3651    -0.9598 H       
  48 H48            1.2468    -3.5051    -2.4099 H       
  49 H49            5.2638    -2.1755    -2.1743 H       
  50 H50            5.3585    -4.5858    -2.0058 H       
  51 H51            4.2594    -4.5831    -0.6023 H       
  52 H52            5.3179    -4.0532    -4.5426 H       
  53 H53            3.7933    -4.5978    -5.2825 H       
  54 H54            7.3288    -2.0185    -1.5740 H       
  55 H55            9.1877    -2.3031     0.0223 H       
  56 H56            7.9383    -1.2431     0.7206 H       
  57 H57            7.0049    -3.1387     1.9886 H       
  58 H58            8.0975    -5.3465     1.9226 H       
  59 H59            6.2610    -4.9191     0.3339 H       
  60 H60            7.4317    -7.1034     0.2382 H       
  61 H61            6.8690    -6.6086    -1.3763 H       
  62 H62            8.5856    -6.4330    -0.9396 H       
  63 H63            9.8263    -5.6560     0.3026 H       
  64 H64            8.8557    -1.9326     2.9506 H       
  65 H65            8.9555    -3.5349     3.3845 H       
  66 H66            2.8988     5.7065     2.9454 H       
  67 H67            4.4991     5.7583     2.1679 H       
  68 H68            3.0402     6.1566     1.2291 H       
@<TRIPOS>BOND
   1    1    2 1
   2    1    3 ar
   3    1    4 ar
   4    2    5 1
   5    2    6 2
   6    3    7 ar
   7    3    8 1
   8    4    9 ar
   9    4   44 1
  10    5   10 ar
  11    5   11 ar
  12    7   12 ar
  13    7   42 1
  14    8   41 2
  15    8   10 1
  16    9   12 ar
  17    9   45 1
  18   10   13 ar
  19   11   14 ar
  20   11   15 1
  21   12   46 1
  22   13   17 1
  23   13   16 ar
  24   14   16 ar
  25   14   18 1
  26   15   27 1
  27   16   19 1
  28   17   28 1
  29   18   20 1
  30   18   47 1
  31   18   48 1
  32   19   21 1
  33   19   31 1
  34   19   49 1
  35   20   22 1
  36   20   21 1
  37   20   23 1
  38   21   50 1
  39   21   51 1
  40   22   24 1
  41   22   25 2
  42   23   29 1
  43   24   26 1
  44   24   52 1
  45   24   53 1
  46   26   30 1
  47   31   32 1
  48   32   33 1
  49   32   37 1
  50   32   54 1
  51   33   34 1
  52   33   55 1
  53   33   56 1
  54   34   35 1
  55   34   40 1
  56   34   57 1
  57   35   36 1
  58   35   39 1
  59   35   58 1
  60   36   37 1
  61   36   38 1
  62   36   59 1
  63   38   60 1
  64   38   61 1
  65   38   62 1
  66   39   63 1
  67   40   64 1
  68   40   65 1
  69   42   43 1
  70   43   66 1
  71   43   67 1
  72   43   68 1

#	End of record

