#	Name: ASD01810100
#	Creating user name:	WinNT
#	Creation time:	15. 06. 2019 19:23

#	Modifying user name:	WinNT
#	Modification time:	15. 06. 2019 19:23

#	Program:	/corina/corina34_cracker 3.40 0067  02.08.2006

@<TRIPOS>MOLECULE
ASD01810100
  59   63    0    0    0
SMALL
NO_CHARGES


@<TRIPOS>ATOM
   1 C1            -0.0167     1.3817     0.0096 C.ar    
   2 C2             0.0021    -0.0041     0.0020 C.ar    
   3 C3             1.2066    -0.6842    -0.0127 C.ar    
   4 C4             2.3983     0.0239    -0.0202 C.ar    
   5 C5             2.3782     1.4203    -0.0130 C.ar    
   6 C6             1.1670     2.0940     0.0022 C.ar    
   7 N7             3.7372    -0.3594    -0.0351 N.am    
   8 C8             4.4971     0.7519    -0.0368 C.2     
   9 N9             3.7068     1.8419    -0.0237 N.am    
  10 O10            5.7139     0.7688    -0.0479 O.2     
  11 C11            4.1650     3.2334    -0.0211 C.3     
  12 C12            5.0220     3.4876     1.2221 C.3     
  13 C13            5.5476     4.9245     1.1882 C.3     
  14 N14            6.3454     5.1267    -0.0279 N.3     
  15 C15            5.5315     4.9343    -1.2350 C.3     
  16 C16            5.0054     3.4977    -1.2735 C.3     
  17 C17            6.9804     6.4513    -0.0268 C.3     
  18 C18            7.8994     6.5772    -1.2440 C.3     
  19 C19            8.5862     7.9464    -1.2209 C.3     
  20 N20            7.5564     8.9906    -1.1317 N.am    
  21 C21            6.5649     8.9144    -0.0502 C.3     
  22 C22            5.9008     7.5344    -0.0864 C.3     
  23 S23            7.5144    10.2301    -2.2291 S.o2    
  24 C24            6.4912     9.7090    -3.5656 C.ar    
  25 C25            5.1327     9.9628    -3.5357 C.ar    
  26 C26            4.3300     9.5540    -4.5842 C.ar    
  27 C27            4.8858     8.8918    -5.6628 C.ar    
  28 C28            6.2445     8.6388    -5.6931 C.ar    
  29 C29            7.0479     9.0515    -4.6466 C.ar    
  30 O30            6.8318    11.3036    -1.5959 O.2     
  31 O31            8.8302    10.3470    -2.7529 O.2     
  32 F32           -1.1600    -0.6931     0.0094 F       
  33 H33           -0.9604     1.9069     0.0169 H       
  34 H34            1.2185    -1.7641    -0.0179 H       
  35 H35            1.1486     3.1738     0.0074 H       
  36 H36            4.0663    -1.2719    -0.0426 H       
  37 H37            3.3032     3.9006    -0.0121 H       
  38 H38            4.4169     3.3424     2.1170 H       
  39 H39            5.8619     2.7930     1.2333 H       
  40 H40            4.7073     5.6188     1.1909 H       
  41 H41            6.1699     5.1043     2.0649 H       
  42 H42            4.6913     5.6285    -1.2209 H       
  43 H43            6.1421     5.1212    -2.1183 H       
  44 H44            5.8451     2.8033    -1.3015 H       
  45 H45            4.3886     3.3597    -2.1615 H       
  46 H46            7.5661     6.5725     0.8845 H       
  47 H47            8.6539     5.7912    -1.2131 H       
  48 H48            7.3104     6.4811    -2.1561 H       
  49 H49            9.2464     8.0094    -0.3559 H       
  50 H50            9.1645     8.0806    -2.1351 H       
  51 H51            7.0602     9.0564     0.9103 H       
  52 H52            5.8095     9.6873    -0.1919 H       
  53 H53            5.3305     7.4292    -1.0094 H       
  54 H54            5.2327     7.4296     0.7684 H       
  55 H55            4.6984    10.4802    -2.6930 H       
  56 H56            3.2685     9.7517    -4.5605 H       
  57 H57            4.2586     8.5718    -6.4816 H       
  58 H58            6.6787     8.1212    -6.5357 H       
  59 H59            8.1094     8.8538    -4.6703 H       
@<TRIPOS>BOND
   1    1    2 ar
   2    1    6 ar
   3    1   33 1
   4    2    3 ar
   5    2   32 1
   6    3    4 ar
   7    3   34 1
   8    4    5 ar
   9    4    7 1
  10    5    6 ar
  11    5    9 1
  12    6   35 1
  13    7    8 am
  14    7   36 1
  15    8    9 am
  16    8   10 2
  17    9   11 1
  18   11   12 1
  19   11   16 1
  20   11   37 1
  21   12   13 1
  22   12   38 1
  23   12   39 1
  24   13   14 1
  25   13   40 1
  26   13   41 1
  27   14   15 1
  28   14   17 1
  29   15   16 1
  30   15   42 1
  31   15   43 1
  32   16   44 1
  33   16   45 1
  34   17   18 1
  35   17   22 1
  36   17   46 1
  37   18   19 1
  38   18   47 1
  39   18   48 1
  40   19   20 1
  41   19   49 1
  42   19   50 1
  43   20   21 1
  44   20   23 am
  45   21   22 1
  46   21   51 1
  47   21   52 1
  48   22   53 1
  49   22   54 1
  50   23   30 2
  51   23   31 2
  52   23   24 1
  53   24   25 ar
  54   24   29 ar
  55   25   26 ar
  56   25   55 1
  57   26   27 ar
  58   26   56 1
  59   27   28 ar
  60   27   57 1
  61   28   29 ar
  62   28   58 1
  63   29   59 1

#	End of record

