#	Name: ASD00170729
#	Creating user name:	WinNT
#	Creation time:	15. 06. 2019 18:32

#	Modifying user name:	WinNT
#	Modification time:	15. 06. 2019 18:32

#	Program:	/corina/corina34_cracker 3.40 0067  02.08.2006

@<TRIPOS>MOLECULE
ASD00170729
  52   55    0    0    0
SMALL
NO_CHARGES


@<TRIPOS>ATOM
   1 C1            -0.0146     1.2125    -0.0046 C.2     
   2 O2             0.6113     1.0319    -1.0334 O.2     
   3 C3             0.5181     0.7149     1.2821 C.ar    
   4 C4             1.6824    -0.0552     1.3075 C.ar    
   5 C5             2.1746    -0.5167     2.5112 C.ar    
   6 C6             1.5146    -0.2171     3.6931 C.ar    
   7 C7             0.3596     0.5462     3.6730 C.ar    
   8 C8            -0.1381     1.0181     2.4762 C.ar    
   9 Cl9            2.1384    -0.8018     5.2040 Cl      
  10 Cl10           3.6221    -1.4744     2.5457 Cl      
  11 C11           -3.5972     2.1241    -0.1840 C.2     
  12 C12           -2.5754     1.2624    -0.1762 C.2     
  13 C13           -1.2905     1.9270    -0.0406 C.2     
  14 C14           -1.3941     3.2915     0.0507 C.2     
  15 S15           -3.0242     3.7764    -0.0255 S.3     
  16 C16           -2.7457    -0.2438    -0.2957 C.3     
  17 C17           -4.1443    -0.5397    -0.8418 C.3     
  18 C18           -5.1799     0.2254    -0.0123 C.3     
  19 C19           -5.0536     1.7217    -0.3186 C.3     
  20 C20           -6.5856    -0.2540    -0.3798 C.3     
  21 C21           -7.6098     0.4197     0.5356 C.3     
  22 O22           -8.9227    -0.0281     0.1923 O.3     
  23 C23           -9.9560     0.4782     0.9154 C.ar    
  24 C24          -11.2573     0.0868     0.6358 C.ar    
  25 C25          -12.3059     0.6026     1.3725 C.ar    
  26 C26          -12.0594     1.5086     2.3875 C.ar    
  27 C27          -10.7634     1.9002     2.6682 C.ar    
  28 C28           -9.7108     1.3830     1.9381 C.ar    
  29 N29          -13.1848     2.0603     3.1747 N.pl3   
  30 O30          -14.3268     1.7163     2.9281 O.2     
  31 O31          -12.9688     2.8585     4.0691 O.2     
  32 N32           -0.3243     4.1529     0.1863 N.pl3   
  33 H33            2.1966    -0.2894     0.3871 H       
  34 H34           -0.1506     0.7761     4.5967 H       
  35 H35           -1.0366     1.6171     2.4626 H       
  36 H36           -1.9951    -0.6434    -0.9776 H       
  37 H37           -2.6321    -0.7034     0.6861 H       
  38 H38           -4.2039    -0.2212    -1.8826 H       
  39 H39           -4.3426    -1.6095    -0.7753 H       
  40 H40           -4.9991     0.0502     1.0483 H       
  41 H41           -5.6561     2.2867     0.3926 H       
  42 H42           -5.3964     1.9244    -1.3333 H       
  43 H43           -6.7986     0.0059    -1.4167 H       
  44 H44           -6.6443    -1.3355    -0.2569 H       
  45 H45           -7.3968     0.1597     1.5725 H       
  46 H46           -7.5511     1.5011     0.4127 H       
  47 H47          -11.4504    -0.6202    -0.1574 H       
  48 H48          -13.3191     0.2982     1.1553 H       
  49 H49          -10.5735     2.6083     3.4613 H       
  50 H50           -8.6984     1.6861     2.1604 H       
  51 H51            0.5717     3.7992     0.3002 H       
  52 H52           -0.4684     5.1120     0.1675 H       
@<TRIPOS>BOND
   1    1    2 2
   2    1    3 1
   3    1   13 1
   4    3    4 ar
   5    3    8 ar
   6    4    5 ar
   7    4   33 1
   8    5    6 ar
   9    5   10 1
  10    6    7 ar
  11    6    9 1
  12    7    8 ar
  13    7   34 1
  14    8   35 1
  15   11   12 2
  16   11   15 1
  17   11   19 1
  18   12   13 1
  19   12   16 1
  20   13   14 2
  21   14   15 1
  22   14   32 1
  23   16   17 1
  24   16   36 1
  25   16   37 1
  26   17   18 1
  27   17   38 1
  28   17   39 1
  29   18   19 1
  30   18   20 1
  31   18   40 1
  32   19   41 1
  33   19   42 1
  34   20   21 1
  35   20   43 1
  36   20   44 1
  37   21   22 1
  38   21   45 1
  39   21   46 1
  40   22   23 1
  41   23   24 ar
  42   23   28 ar
  43   24   25 ar
  44   24   47 1
  45   25   26 ar
  46   25   48 1
  47   26   27 ar
  48   26   29 1
  49   27   28 ar
  50   27   49 1
  51   28   50 1
  52   29   30 2
  53   29   31 2
  54   32   51 1
  55   32   52 1

#	End of record

