#	Name: ASD01812194
#	Creating user name:	WinNT
#	Creation time:	15. 06. 2019 19:28

#	Modifying user name:	WinNT
#	Modification time:	15. 06. 2019 19:28

#	Program:	/corina/corina34_cracker 3.40 0067  02.08.2006

@<TRIPOS>MOLECULE
ASD01812194
  74   79    0    0    0
SMALL
NO_CHARGES


@<TRIPOS>ATOM
   1 C1             0.5743     1.8576     0.6208 C.ar    
   2 C2             0.3935     0.4766     0.5865 C.ar    
   3 C3             1.4458    -0.3638     0.3840 C.ar    
   4 C4             2.7345     0.1644     0.2061 C.ar    
   5 C5             2.9193     1.5712     0.2405 C.ar    
   6 C6             1.8083     2.4066     0.4525 C.ar    
   7 C7             3.8432    -0.6755    -0.0056 C.ar    
   8 C8             5.0798    -0.1442    -0.1757 C.ar    
   9 C9             5.2796     1.2500    -0.1438 C.ar    
  10 C10            4.2032     2.0982     0.0628 C.ar    
  11 C11            3.6565    -2.1704    -0.0431 C.3     
  12 C12            6.4955     2.0729    -0.2970 C.2     
  13 N13            6.1926     3.3780    -0.1904 N.am    
  14 C14            4.7490     3.5038     0.0411 C.3     
  15 O15            7.6119     1.6328    -0.4915 O.2     
  16 C16            7.1434     4.4881    -0.2891 C.3     
  17 C17            7.8181     4.4612    -1.6621 C.3     
  18 C18            8.8111     5.6206    -1.7652 C.3     
  19 C19            9.8729     5.4813    -0.6724 C.3     
  20 C20            9.1983     5.5082     0.7006 C.3     
  21 C21            8.2052     4.3488     0.8036 C.3     
  22 N22            3.4387    -2.6710     1.3207 N.3     
  23 C23            3.1072    -4.1027     1.3095 C.3     
  24 C24            2.8105    -4.5661     2.7377 C.3     
  25 N25            3.9810    -4.3061     3.5874 N.3     
  26 C26            4.3125    -2.8744     3.5986 C.3     
  27 C27            4.6092    -2.4110     2.1704 C.3     
  28 C28            3.7735    -4.7830     4.8865 C.ar    
  29 C29            4.7647    -4.6346     5.8477 C.ar    
  30 C30            4.5590    -5.1055     7.1296 C.ar    
  31 C31            3.3631    -5.7270     7.4570 C.ar    
  32 C32            2.3727    -5.8761     6.4975 C.ar    
  33 C33            2.5740    -5.3998     5.2168 C.ar    
  34 O34            6.8264     4.5913    -2.6827 O.3     
  35 C35            1.8759    -4.3347     0.4314 C.3     
  36 O36            3.1616    -6.1909     8.7194 O.3     
  37 C37            1.9068    -6.8203     8.9868 C.3     
  38 H38           -0.2778     2.5020     0.7789 H       
  39 H39           -0.5961     0.0662     0.7229 H       
  40 H40            1.2898    -1.4322     0.3607 H       
  41 H41            1.9334     3.4790     0.4808 H       
  42 H42            5.9231    -0.7992    -0.3374 H       
  43 H43            2.7925    -2.4133    -0.6616 H       
  44 H44            4.5472    -2.6374    -0.4636 H       
  45 H45            4.2880     4.0725    -0.7664 H       
  46 H46            4.5640     3.9925     0.9976 H       
  47 H47            6.6139     5.4324    -0.1629 H       
  48 H48            8.3476     3.5169    -1.7883 H       
  49 H49            9.2917     5.6015    -2.7433 H       
  50 H50            8.2815     6.5649    -1.6390 H       
  51 H51           10.4025     4.5370    -0.7986 H       
  52 H52           10.5803     6.3073    -0.7458 H       
  53 H53            9.9547     5.4090     1.4791 H       
  54 H54            8.6687     6.4525     0.8268 H       
  55 H55            7.7246     4.3680     1.7818 H       
  56 H56            8.7348     3.4045     0.6774 H       
  57 H57            3.9497    -4.6679     0.9111 H       
  58 H58            1.9508    -4.0200     3.1260 H       
  59 H59            2.5927    -5.6341     2.7356 H       
  60 H60            3.4698    -2.3092     3.9967 H       
  61 H61            5.1897    -2.7091     4.2242 H       
  62 H62            5.4689    -2.9571     1.7821 H       
  63 H63            4.8270    -1.3430     2.1725 H       
  64 H64            5.6963    -4.1513     5.5927 H       
  65 H65            5.3298    -4.9902     7.8772 H       
  66 H66            1.4418    -6.3605     6.7531 H       
  67 H67            1.8026    -5.5156     4.4699 H       
  68 H68            7.1833     4.5822    -3.5814 H       
  69 H69            2.0869    -4.0028    -0.5851 H       
  70 H70            1.6303    -5.3967     0.4233 H       
  71 H71            1.0334    -3.7700     0.8306 H       
  72 H72            1.0987    -6.1125     8.8024 H       
  73 H73            1.7880    -7.6854     8.3344 H       
  74 H74            1.8767    -7.1432    10.0274 H       
@<TRIPOS>BOND
   1    1    2 ar
   2    1    6 ar
   3    1   38 1
   4    2    3 ar
   5    2   39 1
   6    3    4 ar
   7    3   40 1
   8    4    5 ar
   9    4    7 ar
  10    5    6 ar
  11    5   10 ar
  12    6   41 1
  13    7    8 ar
  14    7   11 1
  15    8    9 ar
  16    8   42 1
  17    9   10 ar
  18    9   12 1
  19   10   14 1
  20   11   22 1
  21   11   43 1
  22   11   44 1
  23   12   13 am
  24   12   15 2
  25   13   14 1
  26   13   16 1
  27   14   45 1
  28   14   46 1
  29   16   17 1
  30   16   21 1
  31   16   47 1
  32   17   18 1
  33   17   34 1
  34   17   48 1
  35   18   19 1
  36   18   49 1
  37   18   50 1
  38   19   20 1
  39   19   51 1
  40   19   52 1
  41   20   21 1
  42   20   53 1
  43   20   54 1
  44   21   55 1
  45   21   56 1
  46   22   23 1
  47   22   27 1
  48   23   35 1
  49   23   24 1
  50   23   57 1
  51   24   25 1
  52   24   58 1
  53   24   59 1
  54   25   26 1
  55   25   28 1
  56   26   27 1
  57   26   60 1
  58   26   61 1
  59   27   62 1
  60   27   63 1
  61   28   29 ar
  62   28   33 ar
  63   29   30 ar
  64   29   64 1
  65   30   31 ar
  66   30   65 1
  67   31   36 1
  68   31   32 ar
  69   32   33 ar
  70   32   66 1
  71   33   67 1
  72   34   68 1
  73   35   69 1
  74   35   70 1
  75   35   71 1
  76   36   37 1
  77   37   72 1
  78   37   73 1
  79   37   74 1

#	End of record

