#	Name: ASD02198308
#	Creating user name:	WinNT
#	Creation time:	15. 06. 2019 20:19

#	Modifying user name:	WinNT
#	Modification time:	15. 06. 2019 20:19

#	Program:	/corina/corina34_cracker 3.40 0067  02.08.2006

@<TRIPOS>MOLECULE
ASD02198308
  37   39    0    0    0
SMALL
NO_CHARGES


@<TRIPOS>ATOM
   1 C1             0.5289     1.5383     0.0736 C.2     
   2 C2             0.6960     0.1671     0.1428 C.2     
   3 S3             2.1067     2.2827     0.3192 S.3     
   4 C4             2.8260     0.7420     0.4871 C.2     
   5 N5             1.9363    -0.2004     0.3642 N.2     
   6 N6            -0.3467    -0.7329    -0.0073 N.pl3   
   7 C7            -0.6825     2.2167    -0.1574 C.2     
   8 C8            -0.7333     3.6930    -0.0646 C.ar    
   9 O9            -1.6900     1.5882    -0.4339 O.2     
  10 N10            4.1666     0.5262     0.7209 N.pl3   
  11 C11            4.6326    -0.7635     0.9599 C.ar    
  12 C12            5.9429    -1.1004     0.6318 C.ar    
  13 C13           -1.6654     4.4105    -0.8152 C.ar    
  14 C14            0.1468     4.3728     0.7783 C.ar    
  15 C15            0.0940     5.7489     0.8607 C.ar    
  16 C16           -0.8291     6.4550     0.1098 C.ar    
  17 C17           -1.7080     5.7865    -0.7239 C.ar    
  18 C18            6.4068    -2.3744     0.8667 C.ar    
  19 C19            5.5603    -3.3312     1.4357 C.ar    
  20 C20            4.2447    -2.9893     1.7641 C.ar    
  21 C21            3.7890    -1.7119     1.5318 C.ar    
  22 C22            6.0537    -4.6971     1.6884 C.2     
  23 O23            5.2368    -5.6179     2.2368 O.3     
  24 O24            7.1970    -4.9928     1.4021 O.2     
  25 H25           -1.2467    -0.4097    -0.1696 H       
  26 H26           -0.1766    -1.6861     0.0499 H       
  27 H27            4.7856     1.2730     0.7190 H       
  28 H28            6.5959    -0.3611     0.1921 H       
  29 H29           -2.3517     3.8899    -1.4666 H       
  30 H30            0.8674     3.8227     1.3653 H       
  31 H31            0.7743     6.2762     1.5130 H       
  32 H32           -0.8664     7.5322     0.1778 H       
  33 H33           -2.4261     6.3433    -1.3075 H       
  34 H34            7.4233    -2.6353     0.6116 H       
  35 H35            3.5884    -3.7258     2.2037 H       
  36 H36            2.7731    -1.4472     1.7851 H       
  37 H37            5.6052    -6.4999     2.3835 H       
@<TRIPOS>BOND
   1    1    2 2
   2    1    3 1
   3    1    7 1
   4    2    6 1
   5    2    5 1
   6    3    4 1
   7    4    5 2
   8    4   10 1
   9    6   25 1
  10    6   26 1
  11    7    8 1
  12    7    9 2
  13    8   13 ar
  14    8   14 ar
  15   10   11 1
  16   10   27 1
  17   11   12 ar
  18   11   21 ar
  19   12   18 ar
  20   12   28 1
  21   13   17 ar
  22   13   29 1
  23   14   15 ar
  24   14   30 1
  25   15   16 ar
  26   15   31 1
  27   16   17 ar
  28   16   32 1
  29   17   33 1
  30   18   19 ar
  31   18   34 1
  32   19   20 ar
  33   19   22 1
  34   20   21 ar
  35   20   35 1
  36   21   36 1
  37   22   23 1
  38   22   24 2
  39   23   37 1

#	End of record

