#	Name: ASD01913715
#	Creating user name:	WinNT
#	Creation time:	15. 06. 2019 20:02

#	Modifying user name:	WinNT
#	Modification time:	15. 06. 2019 20:02

#	Program:	/corina/corina34_cracker 3.40 0067  02.08.2006

@<TRIPOS>MOLECULE
ASD01913715
  46   49    0    0    0
SMALL
NO_CHARGES


@<TRIPOS>ATOM
   1 O1             0.6041     1.3995    -0.8707 O.3     
   2 C2             0.6481     0.0471    -0.9405 C.ar    
   3 N3             1.1666    -0.6417     0.0644 N.ar    
   4 C4             1.2319    -1.9565     0.0437 C.ar    
   5 C5             0.7511    -2.6749    -1.0515 C.ar    
   6 C6             0.1954    -1.9753    -2.1330 C.ar    
   7 C7             0.1424    -0.5985    -2.0650 C.ar    
   8 C8             0.8266    -4.1490    -1.0721 C.2     
   9 N9             1.3629    -4.8110    -0.0278 N.am    
  10 O10            0.4049    -4.7660    -2.0312 O.2     
  11 C11            1.4378    -6.2739    -0.0482 C.3     
  12 C12            1.1327     2.0057     0.3104 C.3     
  13 C13            0.9990     3.5034     0.2094 C.ar    
  14 C14           -0.1411     4.1281     0.6775 C.ar    
  15 C15           -0.2637     5.5043     0.5846 C.ar    
  16 C16            0.7564     6.2527     0.0226 C.ar    
  17 C17            1.8960     5.6256    -0.4451 C.ar    
  18 C18            2.0196     4.2524    -0.3466 C.ar    
  19 F19           -1.3782     6.1161     1.0416 F       
  20 C20            2.7064    -6.7094    -0.7843 C.3     
  21 C21            1.4739    -6.8028     1.3870 C.3     
  22 C22            0.2857    -6.4715     2.2921 C.3     
  23 C23            0.4705    -7.8950     1.7628 C.3     
  24 C24            3.0354    -8.2035    -0.8017 C.3     
  25 C25            2.5339    -7.5158    -2.0731 C.3     
  26 H26            1.6619    -2.4840     0.8823 H       
  27 H27           -0.1855    -2.5018    -2.9956 H       
  28 H28           -0.2791    -0.0274    -2.8791 H       
  29 H29            1.6993    -4.3188     0.7374 H       
  30 H30            0.5640    -6.6753    -0.5615 H       
  31 H31            0.5805     1.6495     1.1800 H       
  32 H32            2.1850     1.7411     0.4148 H       
  33 H33           -0.9364     3.5432     1.1155 H       
  34 H34            0.6617     7.3260    -0.0508 H       
  35 H35            2.6919     6.2091    -0.8836 H       
  36 H36            2.9105     3.7633    -0.7119 H       
  37 H37            3.5416    -6.0107    -0.7354 H       
  38 H38            2.4609    -6.8456     1.8476 H       
  39 H39            0.4909    -6.2966     3.3482 H       
  40 H40           -0.5218    -5.8766     1.8651 H       
  41 H41           -0.2153    -8.2368     0.9876 H       
  42 H42            0.7974    -8.6567     2.4707 H       
  43 H43            4.0871    -8.4878    -0.7647 H       
  44 H44            2.3481    -8.8762    -0.2888 H       
  45 H45            1.5165    -7.7360    -2.3965 H       
  46 H46            3.2555    -7.3475    -2.8724 H       
@<TRIPOS>BOND
   1    1    2 1
   2    1   12 1
   3    2    3 ar
   4    2    7 ar
   5    3    4 ar
   6    4    5 ar
   7    4   26 1
   8    5    6 ar
   9    5    8 1
  10    6    7 ar
  11    6   27 1
  12    7   28 1
  13    8    9 am
  14    8   10 2
  15    9   11 1
  16    9   29 1
  17   11   20 1
  18   11   21 1
  19   11   30 1
  20   12   13 1
  21   12   31 1
  22   12   32 1
  23   13   14 ar
  24   13   18 ar
  25   14   15 ar
  26   14   33 1
  27   15   16 ar
  28   15   19 1
  29   16   17 ar
  30   16   34 1
  31   17   18 ar
  32   17   35 1
  33   18   36 1
  34   20   24 1
  35   20   25 1
  36   20   37 1
  37   21   22 1
  38   21   23 1
  39   21   38 1
  40   22   23 1
  41   22   39 1
  42   22   40 1
  43   23   41 1
  44   23   42 1
  45   24   25 1
  46   24   43 1
  47   24   44 1
  48   25   45 1
  49   25   46 1

#	End of record

