#	Name: ASD04560179
#	Creating user name:	WinNT
#	Creation time:	15. 06. 2019 20:49

#	Modifying user name:	WinNT
#	Modification time:	15. 06. 2019 20:49

#	Program:	/corina/corina34_cracker 3.40 0067  02.08.2006

@<TRIPOS>MOLECULE
ASD04560179
  44   46    0    0    0
SMALL
NO_CHARGES


@<TRIPOS>ATOM
   1 C1            -0.0157     1.3632    -0.0077 C.ar    
   2 C2             0.0032    -0.0046    -0.0223 C.ar    
   3 C3             1.2279    -0.6718    -0.0398 C.ar    
   4 N4             2.3710     0.0016    -0.0419 N.ar    
   5 C5             2.3971     1.3178    -0.0282 C.ar    
   6 C6             1.2088     2.0502    -0.0108 C.ar    
   7 C7             1.2392     3.5246     0.0045 C.2     
   8 O8             0.1988     4.1541     0.0196 O.2     
   9 N9             2.4200     4.1743     0.0019 N.am    
  10 C10            2.4505     5.5701    -0.0966 C.ar    
  11 C11            3.4269     6.2934     0.5757 C.ar    
  12 C12            1.5401     7.6106    -0.9674 C.ar    
  13 C13            1.5079     6.2333    -0.8712 C.ar    
  14 S14            1.2573    -2.4335    -0.0586 S.3     
  15 C15            3.4555     7.6706     0.4768 C.ar    
  16 C16            2.5114     8.3303    -0.2920 C.ar    
  17 F17            2.5411     9.6776    -0.3873 F       
  18 C18            3.0447    -2.7178    -0.0768 C.3     
  19 C19            3.3175    -4.1998    -0.0948 C.ar    
  20 C20            3.4324    -4.8663    -1.2990 C.ar    
  21 C21            3.6829    -6.2305    -1.3155 C.ar    
  22 C22            3.8181    -6.9252    -0.1229 C.ar    
  23 C23            3.7037    -6.2585     1.0816 C.ar    
  24 C24            3.4589    -4.8936     1.0981 C.ar    
  25 O25            3.3466    -4.2372     2.2838 O.3     
  26 O26            3.7956    -6.8868    -2.5012 O.3     
  27 C27            4.0540    -8.2910    -2.4434 C.3     
  28 F28            3.0143    -8.9287    -1.7581 F       
  29 F29            4.1394    -8.8033    -3.7424 F       
  30 F30            5.2612    -8.5159    -1.7732 F       
  31 H31           -0.9514     1.9025     0.0015 H       
  32 H32           -0.9215    -0.5626    -0.0200 H       
  33 H33            3.3452     1.8349    -0.0304 H       
  34 H34            3.2487     3.6745     0.0681 H       
  35 H35            4.1632     5.7793     1.1757 H       
  36 H36            0.8072     8.1268    -1.5697 H       
  37 H37            0.7504     5.6723    -1.3984 H       
  38 H38            4.2145     8.2335     0.9998 H       
  39 H39            3.4768    -2.2581    -0.9657 H       
  40 H40            3.4918    -2.2769     0.8141 H       
  41 H41            3.3267    -4.3253    -2.2277 H       
  42 H42            4.0125    -7.9875    -0.1358 H       
  43 H43            3.8090    -6.7995     2.0104 H       
  44 H44            4.1837    -3.8913     2.6226 H       
@<TRIPOS>BOND
   1    1    2 ar
   2    1    6 ar
   3    1   31 1
   4    2    3 ar
   5    2   32 1
   6    3    4 ar
   7    3   14 1
   8    4    5 ar
   9    5    6 ar
  10    5   33 1
  11    6    7 1
  12    7    8 2
  13    7    9 am
  14    9   10 1
  15    9   34 1
  16   10   11 ar
  17   10   13 ar
  18   11   15 ar
  19   11   35 1
  20   12   13 ar
  21   12   16 ar
  22   12   36 1
  23   13   37 1
  24   14   18 1
  25   15   16 ar
  26   15   38 1
  27   16   17 1
  28   18   19 1
  29   18   39 1
  30   18   40 1
  31   19   20 ar
  32   19   24 ar
  33   20   21 ar
  34   20   41 1
  35   21   22 ar
  36   21   26 1
  37   22   23 ar
  38   22   42 1
  39   23   24 ar
  40   23   43 1
  41   24   25 1
  42   25   44 1
  43   26   27 1
  44   27   28 1
  45   27   29 1
  46   27   30 1

#	End of record

