#	Name: ASD00431117
#	Creating user name:	WinNT
#	Creation time:	15. 06. 2019 18:35

#	Modifying user name:	WinNT
#	Modification time:	15. 06. 2019 18:35

#	Program:	/corina/corina34_cracker 3.40 0067  02.08.2006

@<TRIPOS>MOLECULE
ASD00431117
  48   50    0    0    0
SMALL
NO_CHARGES


@<TRIPOS>ATOM
   1 C1            -0.3506     0.9318    -0.1470 C.2     
   2 C2            -0.4325    -0.5700    -0.2426 C.3     
   3 O3             0.7311     1.4787    -0.1049 O.2     
   4 N4            -1.4794     1.6674    -0.1139 N.am    
   5 C5            -1.3998     3.1273    -0.0210 C.3     
   6 C6            -1.2298     3.7190    -1.4217 C.3     
   7 S7            -4.2976     3.0801     0.2769 S.3     
   8 C8            -4.9399     4.2711     1.4050 C.2     
   9 N9            -3.9512     4.9634     1.9014 N.2     
  10 C10           -2.7420     4.6554     1.4877 C.2     
  11 C11           -2.6653     3.6609     0.5994 C.2     
  12 S12           -7.7075     3.5310     1.0730 S.3     
  13 C13           -8.8092     4.4446     2.0078 C.2     
  14 N14           -8.1758     5.3287     2.7152 N.2     
  15 C15           -6.8669     5.3661     2.5964 C.2     
  16 C16           -6.3615     4.4559     1.7338 C.2     
  17 O17          -10.1522     4.2703     2.0097 O.3     
  18 C18          -10.8902     5.0067     2.8824 C.ar    
  19 C19          -10.9842     6.3817     2.7234 C.ar    
  20 C20          -11.7343     7.1296     3.6097 C.ar    
  21 C21          -12.3933     6.5061     4.6590 C.ar    
  22 C22          -12.2990     5.1314     4.8183 C.ar    
  23 C23          -11.5540     4.3825     3.9285 C.ar    
  24 O24          -13.1314     7.2426     5.5318 O.3     
  25 C25          -13.8474     6.5273     6.5406 C.3     
  26 C26          -14.1340     7.4588     7.7200 C.3     
  27 C27          -15.1681     6.0152     5.9625 C.3     
  28 H28           -0.4593    -0.9969     0.7600 H       
  29 H29           -1.3373    -0.8509    -0.7815 H       
  30 H30            0.4400    -0.9482    -0.7753 H       
  31 H31           -2.3445     1.2303    -0.1516 H       
  32 H32           -0.5465     3.4061     0.5972 H       
  33 H33           -1.1706     4.8052    -1.3526 H       
  34 H34           -0.3145     3.3330    -1.8705 H       
  35 H35           -2.0831     3.4402    -2.0400 H       
  36 H36           -1.8647     5.1749     1.8438 H       
  37 H37           -6.2485     6.0645     3.1408 H       
  38 H38          -10.4706     6.8672     1.9068 H       
  39 H39          -11.8075     8.2000     3.4859 H       
  40 H40          -12.8115     4.6462     5.6358 H       
  41 H41          -11.4845     3.3116     4.0498 H       
  42 H42          -13.2484     5.6829     6.8817 H       
  43 H43          -14.7330     8.3032     7.3789 H       
  44 H44          -14.6801     6.9132     8.4895 H       
  45 H45          -13.1931     7.8236     8.1319 H       
  46 H46          -15.7143     5.4696     6.7320 H       
  47 H47          -15.7671     6.8596     5.6214 H       
  48 H48          -14.9639     5.3516     5.1222 H       
@<TRIPOS>BOND
   1    1    2 1
   2    1    3 2
   3    1    4 am
   4    2   28 1
   5    2   29 1
   6    2   30 1
   7    4    5 1
   8    4   31 1
   9    5    6 1
  10    5   11 1
  11    5   32 1
  12    6   33 1
  13    6   34 1
  14    6   35 1
  15    7    8 1
  16    7   11 1
  17    8    9 2
  18    8   16 1
  19    9   10 1
  20   10   11 2
  21   10   36 1
  22   12   13 1
  23   12   16 1
  24   13   14 2
  25   13   17 1
  26   14   15 1
  27   15   16 2
  28   15   37 1
  29   17   18 1
  30   18   19 ar
  31   18   23 ar
  32   19   20 ar
  33   19   38 1
  34   20   21 ar
  35   20   39 1
  36   21   22 ar
  37   21   24 1
  38   22   23 ar
  39   22   40 1
  40   23   41 1
  41   24   25 1
  42   25   26 1
  43   25   27 1
  44   25   42 1
  45   26   43 1
  46   26   44 1
  47   26   45 1
  48   27   46 1
  49   27   47 1
  50   27   48 1

#	End of record

