#	Name: ASD01812754
#	Creating user name:	WinNT
#	Creation time:	15. 06. 2019 19:29

#	Modifying user name:	WinNT
#	Modification time:	15. 06. 2019 19:29

#	Program:	/corina/corina34_cracker 3.40 0067  02.08.2006

@<TRIPOS>MOLECULE
ASD01812754
  40   43    0    0    0
SMALL
NO_CHARGES


@<TRIPOS>ATOM
   1 N1            -0.0158     1.3146     0.0093 N.ar    
   2 C2             0.0021    -0.0041     0.0020 C.ar    
   3 C3             1.1989    -0.7034    -0.0132 C.ar    
   4 C4             2.3830    -0.0016    -0.0207 C.ar    
   5 C5             2.3452     1.3975    -0.0128 C.ar    
   6 C6             1.0957     2.0332     0.0025 C.ar    
   7 C7             3.8374    -0.3894    -0.0375 C.3     
   8 N8             4.5957     0.8678    -0.0384 N.am    
   9 C9             3.7284     1.8956    -0.0241 C.2     
  10 C10            6.0561     0.9837    -0.0525 C.3     
  11 C11            6.5424     1.0310    -1.4781 C.ar    
  12 C12            6.6709     2.2463    -2.1244 C.ar    
  13 C13            7.1173     2.2902    -3.4318 C.ar    
  14 C14            7.4357     1.1179    -4.0934 C.ar    
  15 C15            7.3070    -0.0979    -3.4463 C.ar    
  16 C16            6.8655    -0.1404    -2.1372 C.ar    
  17 O17            1.0259     3.3855     0.0104 O.3     
  18 O18            4.0434     3.0700    -0.0214 O.2     
  19 C19           -0.2059     3.9610     0.0253 C.ar    
  20 Br20           8.0460     1.1773    -5.8822 Br      
  21 C21           -0.8244     4.2489     1.2339 C.ar    
  22 C22           -2.0770     4.8341     1.2461 C.ar    
  23 C23           -2.7143     5.1323     0.0558 C.ar    
  24 C24           -2.1014     4.8471    -1.1501 C.ar    
  25 C25           -0.8453     4.2672    -1.1689 C.ar    
  26 F26           -0.2442     3.9936    -2.3475 F       
  27 Cl27          -0.0261     3.8740     2.7292 Cl      
  28 H28           -0.9309    -0.5480     0.0084 H       
  29 H29            1.2022    -1.7834    -0.0186 H       
  30 H30            4.0801    -0.9729     0.8507 H       
  31 H31            4.0620    -0.9633    -0.9365 H       
  32 H32            6.3531     1.8968     0.4632 H       
  33 H33            6.4937     0.1225     0.4523 H       
  34 H34            6.4219     3.1615    -1.6079 H       
  35 H35            7.2173     3.2396    -3.9367 H       
  36 H36            7.5552    -1.0134    -3.9626 H       
  37 H37            6.7689    -1.0893    -1.6306 H       
  38 H38           -2.5585     5.0582     2.1865 H       
  39 H39           -3.6930     5.5888     0.0682 H       
  40 H40           -2.6016     5.0812    -2.0783 H       
@<TRIPOS>BOND
   1    1    2 ar
   2    1    6 ar
   3    2    3 ar
   4    2   28 1
   5    3    4 ar
   6    3   29 1
   7    4    7 1
   8    4    5 ar
   9    5    6 ar
  10    5    9 1
  11    6   17 1
  12    7    8 1
  13    7   30 1
  14    7   31 1
  15    8    9 am
  16    8   10 1
  17    9   18 2
  18   10   11 1
  19   10   32 1
  20   10   33 1
  21   11   12 ar
  22   11   16 ar
  23   12   13 ar
  24   12   34 1
  25   13   14 ar
  26   13   35 1
  27   14   15 ar
  28   14   20 1
  29   15   16 ar
  30   15   36 1
  31   16   37 1
  32   17   19 1
  33   19   21 ar
  34   19   25 ar
  35   21   22 ar
  36   21   27 1
  37   22   23 ar
  38   22   38 1
  39   23   24 ar
  40   23   39 1
  41   24   25 ar
  42   24   40 1
  43   25   26 1

#	End of record

