#	Name: ASD01901292
#	Creating user name:	WinNT
#	Creation time:	15. 06. 2019 19:53

#	Modifying user name:	WinNT
#	Modification time:	15. 06. 2019 19:53

#	Program:	/corina/corina34_cracker 3.40 0067  02.08.2006

@<TRIPOS>MOLECULE
ASD01901292
  47   51    0    0    0
SMALL
NO_CHARGES


@<TRIPOS>ATOM
   1 C1             1.8919     1.2916    -0.0484 C.ar    
   2 N2             2.1500     0.0007    -0.0489 N.ar    
   3 C3             3.3815    -0.4641     0.0425 C.ar    
   4 C4             4.4633     0.3921     0.1435 C.ar    
   5 C5             4.2476     1.7587     0.1487 C.ar    
   6 C6             2.9291     2.2231     0.0503 C.ar    
   7 C7             2.6495     3.6275     0.0505 C.1     
   8 C8             2.4202     4.7789     0.0506 C.1     
   9 C9             2.1406     6.1833     0.0508 C.ar    
  10 C10            0.5552     7.9882    -0.0415 C.ar    
  11 C11            0.8212     6.6349    -0.0425 C.ar    
  12 C12            3.1863     7.1061     0.1501 C.ar    
  13 C13            2.9127     8.4581     0.1504 C.ar    
  14 C14            1.5976     8.9035     0.0520 C.ar    
  15 N15            1.3232    10.2774     0.0521 N.am    
  16 N16            1.0213    12.2567    -1.1949 N.am    
  17 C17            1.2778    10.9397    -1.1145 C.2     
  18 C18            1.1039    10.9090     1.2258 C.2     
  19 C19            0.9887    12.9107    -2.5054 C.3     
  20 O20            1.1423    10.3008     2.2781 O.2     
  21 O21            1.4778    10.3220    -2.1424 O.2     
  22 C22            0.7870    13.0025    -0.0489 C.ar    
  23 Cl23          -1.0834     8.5496    -0.1579 Cl      
  24 F24            3.9221     9.3509     0.2467 F       
  25 C25            0.8175    12.3541     1.1982 C.ar    
  26 C26            0.5203    14.3618    -0.1086 C.ar    
  27 C27            0.5802    13.0764     2.3654 C.ar    
  28 C28            0.3162    14.4277     2.2861 C.ar    
  29 C29            0.2863    15.0661     1.0557 C.ar    
  30 C30            2.2539    12.6724    -3.3511 C.3     
  31 C31            0.2498    12.1002    -3.5869 C.3     
  32 O32            1.3436    12.4695    -4.4506 O.3     
  33 H33            0.8707     1.6338    -0.1294 H       
  34 H34            3.5478    -1.5313     0.0386 H       
  35 H35            5.4659    -0.0022     0.2180 H       
  36 H36            5.0739     2.4497     0.2269 H       
  37 H37            0.0107     5.9248    -0.1155 H       
  38 H38            4.2068     6.7608     0.2268 H       
  39 H39            0.6854    13.9563    -2.4522 H       
  40 H40            0.4910    14.8669    -1.0627 H       
  41 H41            0.6025    12.5819     3.3253 H       
  42 H42            0.1312    14.9921     3.1881 H       
  43 H43            0.0787    16.1248     1.0075 H       
  44 H44            2.8853    13.5544    -3.4583 H       
  45 H45            2.8110    11.7789    -3.0691 H       
  46 H46            0.1949    11.0320    -3.3770 H       
  47 H47           -0.7084    12.5284    -3.8812 H       
@<TRIPOS>BOND
   1    1    2 ar
   2    1    6 ar
   3    1   33 1
   4    2    3 ar
   5    3    4 ar
   6    3   34 1
   7    4    5 ar
   8    4   35 1
   9    5    6 ar
  10    5   36 1
  11    6    7 1
  12    7    8 3
  13    8    9 1
  14    9   12 ar
  15    9   11 ar
  16   10   11 ar
  17   10   14 ar
  18   10   23 1
  19   11   37 1
  20   12   13 ar
  21   12   38 1
  22   13   14 ar
  23   13   24 1
  24   14   15 1
  25   15   18 am
  26   15   17 am
  27   16   17 am
  28   16   22 1
  29   16   19 1
  30   17   21 2
  31   18   25 1
  32   18   20 2
  33   19   30 1
  34   19   31 1
  35   19   39 1
  36   22   25 ar
  37   22   26 ar
  38   25   27 ar
  39   26   29 ar
  40   26   40 1
  41   27   28 ar
  42   27   41 1
  43   28   29 ar
  44   28   42 1
  45   29   43 1
  46   30   32 1
  47   30   44 1
  48   30   45 1
  49   31   32 1
  50   31   46 1
  51   31   47 1

#	End of record

