#	Name: ASD03180049
#	Creating user name:	WinNT
#	Creation time:	15. 06. 2019 20:33

#	Modifying user name:	WinNT
#	Modification time:	15. 06. 2019 20:33

#	Program:	/corina/corina34_cracker 3.40 0067  02.08.2006

@<TRIPOS>MOLECULE
ASD03180049
  35   37    0    0    0
SMALL
NO_CHARGES


@<TRIPOS>ATOM
   1 C1             0.3987     1.0205    -1.4894 C.ar    
   2 C2             0.0892    -0.0499    -0.6685 C.ar    
   3 C3             0.9373    -0.3995     0.3658 C.ar    
   4 C4             2.0968     0.3187     0.5833 C.ar    
   5 C5             2.4110     1.3937    -0.2384 C.ar    
   6 C6             1.5572     1.7430    -1.2771 C.ar    
   7 N7             3.5836     2.1223    -0.0207 N.pl3   
   8 C8             3.5685     3.5050    -0.1178 C.2     
   9 C9             4.4047     5.5834    -0.1627 C.2     
  10 N10            4.6123     4.2721    -0.0473 N.2     
  11 S11            2.1306     4.4912    -0.3634 S.3     
  12 C12            3.1216     5.9478    -0.3419 C.2     
  13 C13            5.5064     6.5683    -0.0999 C.2     
  14 S14            5.3447     8.3174    -0.2389 S.3     
  15 C15            7.0342     8.4986    -0.0516 C.2     
  16 N16            7.5965     7.3462     0.0938 N.2     
  17 C17            6.8150     6.2879     0.0799 C.2     
  18 C18            7.7636     9.8173    -0.0562 C.3     
  19 C19            7.3359     4.8835     0.2453 C.3     
  20 C20            3.0201    -0.0632     1.7115 C.3     
  21 Br21          -0.7608     1.4898    -2.9076 Br      
  22 H22           -0.8170    -0.6131    -0.8361 H       
  23 H23            0.6926    -1.2352     1.0048 H       
  24 H24            1.7987     2.5781    -1.9180 H       
  25 H25            4.4080     1.6604     0.1983 H       
  26 H26            2.7613     6.9597    -0.4545 H       
  27 H27            7.8191    10.2054     0.9608 H       
  28 H28            8.7714     9.6736    -0.4458 H       
  29 H29            7.2279    10.5266    -0.6870 H       
  30 H30            7.5854     4.4711    -0.7323 H       
  31 H31            8.2277     4.8982     0.8719 H       
  32 H32            6.5713     4.2655     0.7160 H       
  33 H33            3.7522    -0.7867     1.3528 H       
  34 H34            3.5358     0.8254     2.0756 H       
  35 H35            2.4402    -0.5045     2.5221 H       
@<TRIPOS>BOND
   1    1    2 ar
   2    1    6 ar
   3    1   21 1
   4    2    3 ar
   5    2   22 1
   6    3    4 ar
   7    3   23 1
   8    4    5 ar
   9    4   20 1
  10    5    6 ar
  11    5    7 1
  12    6   24 1
  13    7    8 1
  14    7   25 1
  15    8   11 1
  16    8   10 2
  17    9   10 1
  18    9   12 2
  19    9   13 1
  20   11   12 1
  21   12   26 1
  22   13   14 1
  23   13   17 2
  24   14   15 1
  25   15   16 2
  26   15   18 1
  27   16   17 1
  28   17   19 1
  29   18   27 1
  30   18   28 1
  31   18   29 1
  32   19   30 1
  33   19   31 1
  34   19   32 1
  35   20   33 1
  36   20   34 1
  37   20   35 1

#	End of record

