#	Name: ASD01880288
#	Creating user name:	WinNT
#	Creation time:	15. 06. 2019 19:40

#	Modifying user name:	WinNT
#	Modification time:	15. 06. 2019 19:40

#	Program:	/corina/corina34_cracker 3.40 0067  02.08.2006

@<TRIPOS>MOLECULE
ASD01880288
  38   41    0    0    0
SMALL
NO_CHARGES


@<TRIPOS>ATOM
   1 C1            -0.0164     1.3605     0.0095 C.2     
   2 C2             0.0021    -0.0041     0.0020 C.2     
   3 N3            -1.1565    -0.7092     0.0092 N.am    
   4 C4            -2.3471    -0.0815     0.0235 C.2     
   5 C5            -2.4078     1.3232     0.0311 C.2     
   6 C6            -1.2518     2.0431     0.0309 C.2     
   7 O7            -3.3782    -0.7344     0.0294 O.2     
   8 C8            -1.1115    -2.1735     0.0010 C.3     
   9 C9            -1.0825    -2.6832     1.4188 C.ar    
  10 C10           -2.2548    -2.7579     2.1517 C.ar    
  11 C11           -2.2273    -3.2263     3.4543 C.ar    
  12 C12           -1.0289    -3.6191     4.0219 C.ar    
  13 C13            0.1419    -3.5438     3.2879 C.ar    
  14 C14            0.1135    -3.0815     1.9858 C.ar    
  15 Cl15          -0.9932    -4.2060     5.6553 Cl      
  16 F16           -3.4247    -2.3735     1.5962 F       
  17 C17            1.2567     2.1233     0.0015 C.ar    
  18 C18            2.1079     2.0483    -1.1057 C.ar    
  19 C19            3.2782     2.7455    -1.1195 C.ar    
  20 C20            3.6452     3.5440    -0.0308 C.ar    
  21 C21            2.8073     3.6323     1.0852 C.ar    
  22 C22            1.5957     2.9108     1.0863 C.ar    
  23 S23            5.0744     4.5385     0.2231 S.3     
  24 C24            4.5225     5.0472     1.8071 C.2     
  25 C25            3.3586     4.5068     2.1080 C.2     
  26 H26            0.9471    -0.5268    -0.0101 H       
  27 H27           -3.3631     1.8270     0.0419 H       
  28 H28           -1.2799     3.1227     0.0370 H       
  29 H29           -1.9947    -2.5613    -0.5066 H       
  30 H30           -0.2157    -2.5065    -0.5232 H       
  31 H31           -3.1411    -3.2846     4.0269 H       
  32 H32            1.0776    -3.8506     3.7315 H       
  33 H33            1.0278    -3.0231     1.4138 H       
  34 H34            1.8366     1.4353    -1.9525 H       
  35 H35            3.9291     2.6810    -1.9789 H       
  36 H36            0.9357     2.9666     1.9393 H       
  37 H37            5.0672     5.7185     2.4545 H       
  38 H38            2.8528     4.6991     3.0426 H       
@<TRIPOS>BOND
   1    1    2 2
   2    1   17 1
   3    1    6 1
   4    2    3 1
   5    2   26 1
   6    3    4 am
   7    3    8 1
   8    4    5 1
   9    4    7 2
  10    5    6 2
  11    5   27 1
  12    6   28 1
  13    8    9 1
  14    8   29 1
  15    8   30 1
  16    9   10 ar
  17    9   14 ar
  18   10   11 ar
  19   10   16 1
  20   11   12 ar
  21   11   31 1
  22   12   13 ar
  23   12   15 1
  24   13   14 ar
  25   13   32 1
  26   14   33 1
  27   17   18 ar
  28   17   22 ar
  29   18   19 ar
  30   18   34 1
  31   19   20 ar
  32   19   35 1
  33   20   21 ar
  34   20   23 1
  35   21   22 ar
  36   21   25 1
  37   22   36 1
  38   23   24 1
  39   24   25 2
  40   24   37 1
  41   25   38 1

#	End of record

