#	Name: ASD01001288
#	Creating user name:	WinNT
#	Creation time:	15. 06. 2019 18:55

#	Modifying user name:	WinNT
#	Modification time:	15. 06. 2019 18:55

#	Program:	/corina/corina34_cracker 3.40 0067  02.08.2006

@<TRIPOS>MOLECULE
ASD01001288
  47   49    0    0    0
SMALL
NO_CHARGES


@<TRIPOS>ATOM
   1 C1            -0.0549     1.5790    -0.0304 C.3     
   2 S2            -0.6032    -0.0602    -0.5808 S.3     
   3 C3             1.4312     1.7094    -0.2434 C.ar    
   4 C4            -0.7713     2.6411    -0.8241 C.ar    
   5 C5            -0.3693     1.7484     1.4337 C.ar    
   6 C6            -1.4849     1.1385     1.9762 C.ar    
   7 C7            -1.7733     1.2939     3.3192 C.ar    
   8 C8            -0.9457     2.0589     4.1198 C.ar    
   9 C9             0.1704     2.6680     3.5775 C.ar    
  10 C10            0.4611     2.5091     2.2354 C.ar    
  11 C11            2.3075     0.9683     0.5271 C.ar    
  12 C12            3.6708     1.0879     0.3317 C.ar    
  13 C13            4.1577     1.9482    -0.6346 C.ar    
  14 C14            3.2813     2.6887    -1.4057 C.ar    
  15 C15            1.9179     2.5658    -1.2132 C.ar    
  16 C16           -0.4767     3.9756    -0.6165 C.ar    
  17 C17           -1.1338     4.9498    -1.3446 C.ar    
  18 C18           -2.0852     4.5894    -2.2805 C.ar    
  19 C19           -2.3791     3.2548    -2.4887 C.ar    
  20 C20           -1.7189     2.2804    -1.7637 C.ar    
  21 C21            0.0325    -0.1548    -2.2771 C.3     
  22 C22           -0.4566    -1.4472    -2.9338 C.3     
  23 N23           -1.9188    -1.4051    -3.0685 N.3     
  24 C24            0.1698    -1.5862    -4.2974 C.2     
  25 O25           -0.4596    -1.2876    -5.2846 O.2     
  26 O26            1.4269    -2.0416    -4.4152 O.3     
  27 H27           -2.1314     0.5409     1.3507 H       
  28 H28           -2.6453     0.8180     3.7428 H       
  29 H29           -1.1714     2.1809     5.1689 H       
  30 H30            0.8167     3.2659     4.2029 H       
  31 H31            1.3332     2.9850     1.8118 H       
  32 H32            1.9272     0.2961     1.2820 H       
  33 H33            4.3555     0.5094     0.9342 H       
  34 H34            5.2227     2.0422    -0.7867 H       
  35 H35            3.6617     3.3611    -2.1604 H       
  36 H36            1.2332     3.1443    -1.8157 H       
  37 H37            0.2666     4.2572     0.1147 H       
  38 H38           -0.9042     5.9925    -1.1819 H       
  39 H39           -2.5991     5.3506    -2.8488 H       
  40 H40           -3.1226     2.9733    -3.2197 H       
  41 H41           -1.9485     1.2377    -1.9264 H       
  42 H42           -0.3268     0.7014    -2.8481 H       
  43 H43            1.1223    -0.1470    -2.2576 H       
  44 H44           -0.1731    -2.2988    -2.3152 H       
  45 H45           -2.3646    -1.3770    -2.1638 H       
  46 H46           -2.2070    -0.6236    -3.6381 H       
  47 H47            1.7857    -2.1135    -5.3103 H       
@<TRIPOS>BOND
   1    1    2 1
   2    1    3 1
   3    1    4 1
   4    1    5 1
   5    2   21 1
   6    3   11 ar
   7    3   15 ar
   8    4   16 ar
   9    4   20 ar
  10    5    6 ar
  11    5   10 ar
  12    6    7 ar
  13    6   27 1
  14    7    8 ar
  15    7   28 1
  16    8    9 ar
  17    8   29 1
  18    9   10 ar
  19    9   30 1
  20   10   31 1
  21   11   12 ar
  22   11   32 1
  23   12   13 ar
  24   12   33 1
  25   13   14 ar
  26   13   34 1
  27   14   15 ar
  28   14   35 1
  29   15   36 1
  30   16   17 ar
  31   16   37 1
  32   17   18 ar
  33   17   38 1
  34   18   19 ar
  35   18   39 1
  36   19   20 ar
  37   19   40 1
  38   20   41 1
  39   21   22 1
  40   21   42 1
  41   21   43 1
  42   22   23 1
  43   22   24 1
  44   22   44 1
  45   23   45 1
  46   23   46 1
  47   24   25 2
  48   24   26 1
  49   26   47 1

#	End of record

