#	Name: ASD02408384
#	Creating user name:	WinNT
#	Creation time:	15. 06. 2019 20:21

#	Modifying user name:	WinNT
#	Modification time:	15. 06. 2019 20:21

#	Program:	/corina/corina34_cracker 3.40 0067  02.08.2006

@<TRIPOS>MOLECULE
ASD02408384
  22   23    0    0    0
SMALL
NO_CHARGES


@<TRIPOS>ATOM
   1 C1             0.0001     0.5326     0.6537 C.2     
   2 C2             0.0250     1.3265    -0.5167 C.2     
   3 C3             1.2962     0.0664     0.8573 C.2     
   4 N4             2.0579     0.5596    -0.1451 N.pl3   
   5 N5             1.2444     1.3347    -0.9786 N.2     
   6 C6             3.4305     0.3327    -0.3197 C.ar    
   7 C7             3.9401    -0.9545    -0.2252 C.ar    
   8 C8             5.2932    -1.1753    -0.3976 C.ar    
   9 C9             6.1404    -0.1158    -0.6641 C.ar    
  10 C10            5.6374     1.1690    -0.7592 C.ar    
  11 C11            4.2835     1.3964    -0.5935 C.ar    
  12 N12            1.7237    -0.7467     1.8895 N.pl3   
  13 F13            3.7919     2.6514    -0.6863 F       
  14 C14           -1.1406     0.2642     1.4766 C.1     
  15 N15           -2.0456     0.0513     2.1295 N.1     
  16 H16           -0.8204     1.8379    -0.9527 H       
  17 H17            3.2796    -1.7832    -0.0167 H       
  18 H18            5.6896    -2.1771    -0.3237 H       
  19 H19            7.1975    -0.2918    -0.7980 H       
  20 H20            6.3019     1.9946    -0.9672 H       
  21 H21            1.0794    -1.1213     2.5105 H       
  22 H22            2.6679    -0.9429     1.9932 H       
@<TRIPOS>BOND
   1    1    2 1
   2    1    3 2
   3    1   14 1
   4    2    5 2
   5    2   16 1
   6    3    4 1
   7    3   12 1
   8    4    5 1
   9    4    6 1
  10    6    7 ar
  11    6   11 ar
  12    7    8 ar
  13    7   17 1
  14    8    9 ar
  15    8   18 1
  16    9   10 ar
  17    9   19 1
  18   10   11 ar
  19   10   20 1
  20   11   13 1
  21   12   21 1
  22   12   22 1
  23   14   15 3

#	End of record

