#	Name: ASD01410798
#	Creating user name:	WinNT
#	Creation time:	15. 06. 2019 19:18

#	Modifying user name:	WinNT
#	Modification time:	15. 06. 2019 19:18

#	Program:	/corina/corina34_cracker 3.40 0067  02.08.2006

@<TRIPOS>MOLECULE
ASD01410798
  43   45    0    0    0
SMALL
NO_CHARGES


@<TRIPOS>ATOM
   1 N1            -0.0158     1.3171     0.0093 N.ar    
   2 C2             0.0021    -0.0041     0.0020 C.ar    
   3 C3             1.2097    -0.7206    -0.0134 C.ar    
   4 C4             2.3975    -0.0490    -0.0211 C.ar    
   5 C5             2.3690     1.3612    -0.0132 C.ar    
   6 C6             3.5555     2.1102    -0.0209 C.ar    
   7 C7             3.4995     3.4701    -0.0136 C.ar    
   8 C8             2.2708     4.1363     0.0016 C.ar    
   9 C9             1.0876     3.4316     0.0100 C.ar    
  10 C10            1.1165     2.0262     0.0023 C.ar    
  11 O11            2.2435     5.4947     0.0087 O.3     
  12 C12            3.5033     6.1690    -0.0001 C.3     
  13 C13            3.2724     7.6814     0.0096 C.3     
  14 O14            2.6495     8.0603     1.2387 O.3     
  15 C15            2.3883     9.4607     1.3504 C.3     
  16 S16           -1.4434    -2.4979     0.0036 S.3     
  17 C17           -1.2770    -0.7440     0.0107 C.2     
  18 N18           -2.4624    -0.2042     0.0257 N.2     
  19 C19           -3.4894    -1.0189     0.0322 C.2     
  20 C20           -3.1975    -2.3260     0.0226 C.2     
  21 C21           -4.9099    -0.5161     0.0499 C.3     
  22 C22           -5.4480    -0.4573    -1.3811 C.3     
  23 C23           -5.7761    -1.4639     0.8819 C.3     
  24 Cl24          -0.4303     4.2738     0.0300 Cl      
  25 Cl25           3.9057    -0.9084    -0.0395 Cl      
  26 H26            1.1983    -1.8005    -0.0187 H       
  27 H27            4.5118     1.6084    -0.0323 H       
  28 H28            4.4159     4.0416    -0.0192 H       
  29 H29            4.0747     5.8830     0.8829 H       
  30 H30            4.0575     5.8918    -0.8969 H       
  31 H31            4.2287     8.1956    -0.0866 H       
  32 H32            2.6268     7.9558    -0.8246 H       
  33 H33            3.3263    10.0118     1.2820 H       
  34 H34            1.7244     9.7720     0.5440 H       
  35 H35            1.9152     9.6666     2.3106 H       
  36 H36           -3.9132    -3.1349     0.0256 H       
  37 H37           -4.9369     0.4810     0.4895 H       
  38 H38           -5.4210    -1.4544    -1.8207 H       
  39 H39           -6.4754    -0.0936    -1.3683 H       
  40 H40           -4.8309     0.2179    -1.9739 H       
  41 H41           -5.3928    -1.5057     1.9015 H       
  42 H42           -6.8036    -1.1002     0.8947 H       
  43 H43           -5.7491    -2.4609     0.4424 H       
@<TRIPOS>BOND
   1    1    2 ar
   2    1   10 ar
   3    2    3 ar
   4    2   17 1
   5    3    4 ar
   6    3   26 1
   7    4    5 ar
   8    4   25 1
   9    5    6 ar
  10    5   10 ar
  11    6    7 ar
  12    6   27 1
  13    7    8 ar
  14    7   28 1
  15    8    9 ar
  16    8   11 1
  17    9   10 ar
  18    9   24 1
  19   11   12 1
  20   12   13 1
  21   12   29 1
  22   12   30 1
  23   13   14 1
  24   13   31 1
  25   13   32 1
  26   14   15 1
  27   15   33 1
  28   15   34 1
  29   15   35 1
  30   16   17 1
  31   16   20 1
  32   17   18 2
  33   18   19 1
  34   19   20 2
  35   19   21 1
  36   20   36 1
  37   21   22 1
  38   21   23 1
  39   21   37 1
  40   22   38 1
  41   22   39 1
  42   22   40 1
  43   23   41 1
  44   23   42 1
  45   23   43 1

#	End of record

