#	Name: ASD01913262
#	Creating user name:	WinNT
#	Creation time:	15. 06. 2019 20:01

#	Modifying user name:	WinNT
#	Modification time:	15. 06. 2019 20:01

#	Program:	/corina/corina34_cracker 3.40 0067  02.08.2006

@<TRIPOS>MOLECULE
ASD01913262
  44   47    0    0    0
SMALL
NO_CHARGES


@<TRIPOS>ATOM
   1 C1             0.5067     0.8774     1.0116 C.3     
   2 C2             1.0623    -0.4648     1.4238 C.2     
   3 C3             2.3055    -0.9013     1.0966 C.2     
   4 C4             3.3030    -0.1108     0.2879 C.3     
   5 C5             2.5615     1.0065    -0.4566 C.3     
   6 N6             1.6274     1.6656     0.4676 N.am    
   7 N7             1.2747    -2.4589     2.2980 N.2     
   8 N8             2.4585    -2.1293     1.6213 N.pl3   
   9 C9             0.4391    -1.4562     2.1764 C.2     
  10 C10            1.7915     2.9591     0.8088 C.2     
  11 O11            2.7787     3.5645     0.4395 O.2     
  12 C12            0.7706     3.6417     1.6324 C.ar    
  13 C13            1.1549     4.6006     2.5670 C.ar    
  14 C14            0.1852     5.2400     3.3394 C.ar    
  15 C15           -1.1643     4.9144     3.1704 C.ar    
  16 C16           -1.5365     3.9633     2.2422 C.ar    
  17 C17           -0.5814     3.3306     1.4707 C.ar    
  18 C18           -2.2142     5.6032     4.0037 C.3     
  19 F19           -3.4787     5.1149     3.6577 F       
  20 F20           -1.9723     5.3527     5.3587 F       
  21 F21           -2.1661     6.9814     3.7685 F       
  22 C22            0.5706     6.2267     4.3030 C.1     
  23 C23            0.8865     7.0356     5.0930 C.1     
  24 C24            1.2719     8.0223     6.0566 C.ar    
  25 C25            0.2947     8.6586     6.8268 C.ar    
  26 C26            0.6837     9.6087     7.7532 C.ar    
  27 C27            2.0364     9.8946     7.8825 C.ar    
  28 C28            2.9510     9.2275     7.0884 C.ar    
  29 N29            2.5572     8.3225     6.2161 N.ar    
  30 H30           -0.2583     0.7433     0.2468 H       
  31 H31            0.0820     1.3850     1.8776 H       
  32 H32            4.0484     0.3255     0.9528 H       
  33 H33            3.7920    -0.7673    -0.4317 H       
  34 H34            3.2809     1.7357    -0.8291 H       
  35 H35            2.0066     0.5810    -1.2928 H       
  36 H36            3.2476    -2.6884     1.5455 H       
  37 H37           -0.5579    -1.4075     2.5886 H       
  38 H38            2.1987     4.8475     2.6932 H       
  39 H39           -2.5801     3.7155     2.1155 H       
  40 H40           -0.8804     2.5905     0.7432 H       
  41 H41           -0.7491     8.4122     6.7000 H       
  42 H42           -0.0486    10.1175     8.3626 H       
  43 H43            2.3713    10.6320     8.5970 H       
  44 H44            4.0035     9.4486     7.1877 H       
@<TRIPOS>BOND
   1    1    2 1
   2    1    6 1
   3    1   30 1
   4    1   31 1
   5    2    3 2
   6    2    9 1
   7    3    4 1
   8    3    8 1
   9    4    5 1
  10    4   32 1
  11    4   33 1
  12    5    6 1
  13    5   34 1
  14    5   35 1
  15    6   10 am
  16    7    8 1
  17    7    9 2
  18    8   36 1
  19    9   37 1
  20   10   11 2
  21   10   12 1
  22   12   13 ar
  23   12   17 ar
  24   13   14 ar
  25   13   38 1
  26   14   15 ar
  27   14   22 1
  28   15   16 ar
  29   15   18 1
  30   16   17 ar
  31   16   39 1
  32   17   40 1
  33   18   19 1
  34   18   20 1
  35   18   21 1
  36   22   23 3
  37   23   24 1
  38   24   25 ar
  39   24   29 ar
  40   25   26 ar
  41   25   41 1
  42   26   27 ar
  43   26   42 1
  44   27   28 ar
  45   27   43 1
  46   28   29 ar
  47   28   44 1

#	End of record

