#	Name: ASD02038550
#	Creating user name:	WinNT
#	Creation time:	15. 06. 2019 20:16

#	Modifying user name:	WinNT
#	Modification time:	15. 06. 2019 20:16

#	Program:	/corina/corina34_cracker 3.40 0067  02.08.2006

@<TRIPOS>MOLECULE
ASD02038550
  51   53    0    0    0
SMALL
NO_CHARGES


@<TRIPOS>ATOM
   1 Cl1           -4.7985     3.7526    -6.0115 Cl      
   2 C2             0.2630     1.4460    -0.1703 C.3     
   3 N3             0.0432     0.0005    -0.0226 N.3     
   4 C4             0.7701    -0.5264     1.1401 C.3     
   5 C5            -1.3914    -0.3043     0.0709 C.3     
   6 C6            -2.0986     0.1900    -1.1932 C.3     
   7 N7            -1.8788     1.6355    -1.3410 N.3     
   8 C8            -2.5704     2.1368    -2.4470 C.ar    
   9 C9            -2.3568     1.5918    -3.7066 C.ar    
  10 C10           -3.0416     2.0891    -4.7980 C.ar    
  11 C11           -3.9399     3.1295    -4.6374 C.ar    
  12 C12           -4.1546     3.6744    -3.3836 C.ar    
  13 C13           -3.4768     3.1771    -2.2879 C.ar    
  14 C14           -0.4443     1.9403    -1.4344 C.3     
  15 C15            0.8738    -2.0489     1.0296 C.3     
  16 C16            1.7771    -2.5807     2.1442 C.3     
  17 O17            1.9680    -3.9865     1.9725 O.3     
  18 O18           -0.4277    -2.6253     1.1554 O.3     
  19 C19            2.7520    -4.6191     2.8859 C.ar    
  20 C20            2.9791    -5.9832     2.7787 C.ar    
  21 C21            3.3291    -3.8993     3.9215 C.ar    
  22 C22            4.1254    -4.5419     4.8494 C.ar    
  23 C23            4.3475    -5.9071     4.7457 C.ar    
  24 C24            3.7754    -6.6258     3.7065 C.ar    
  25 O25            5.1318    -6.5396     5.6589 O.3     
  26 C26            1.7631     1.7254    -0.2823 C.3     
  27 H27           -0.1398     1.9658     0.6990 H       
  28 H28            1.7708    -0.0952     1.1689 H       
  29 H29            0.2350    -0.2639     2.0527 H       
  30 H30           -1.5289    -1.3813     0.1669 H       
  31 H31           -1.8134     0.1957     0.9427 H       
  32 H32           -1.6955    -0.3298    -2.0623 H       
  33 H33           -3.1673    -0.0090    -1.1134 H       
  34 H34           -1.6556     0.7800    -3.8325 H       
  35 H35           -2.8757     1.6660    -5.7777 H       
  36 H36           -4.8559     4.4865    -3.2612 H       
  37 H37           -3.6450     3.6025    -1.3095 H       
  38 H38           -0.3068     3.0173    -1.5305 H       
  39 H39           -0.0223     1.4403    -2.3063 H       
  40 H40            1.2970    -2.3149     0.0610 H       
  41 H41            2.7419    -2.0752     2.1023 H       
  42 H42            1.3101    -2.3929     3.1110 H       
  43 H43           -0.8652    -2.4293     1.9952 H       
  44 H44            2.5331    -6.5429     1.9699 H       
  45 H45            3.1561    -2.8363     4.0023 H       
  46 H46            4.5753    -3.9813     5.6554 H       
  47 H47            3.9480    -7.6889     3.6260 H       
  48 H48            4.6489    -6.8763     6.4261 H       
  49 H49            2.1654     1.2061    -1.1521 H       
  50 H50            1.9258     2.7976    -0.3919 H       
  51 H51            2.2667     1.3715     0.6172 H       
@<TRIPOS>BOND
   1    1   11 1
   2    2    3 1
   3    2   26 1
   4    2   14 1
   5    2   27 1
   6    3    4 1
   7    3    5 1
   8    4   15 1
   9    4   28 1
  10    4   29 1
  11    5    6 1
  12    5   30 1
  13    5   31 1
  14    6    7 1
  15    6   32 1
  16    6   33 1
  17    7    8 1
  18    7   14 1
  19    8    9 ar
  20    8   13 ar
  21    9   10 ar
  22    9   34 1
  23   10   11 ar
  24   10   35 1
  25   11   12 ar
  26   12   13 ar
  27   12   36 1
  28   13   37 1
  29   14   38 1
  30   14   39 1
  31   15   16 1
  32   15   18 1
  33   15   40 1
  34   16   17 1
  35   16   41 1
  36   16   42 1
  37   17   19 1
  38   18   43 1
  39   19   20 ar
  40   19   21 ar
  41   20   24 ar
  42   20   44 1
  43   21   22 ar
  44   21   45 1
  45   22   23 ar
  46   22   46 1
  47   23   24 ar
  48   23   25 1
  49   24   47 1
  50   25   48 1
  51   26   49 1
  52   26   50 1
  53   26   51 1

#	End of record

