#	Name: ASD01840435
#	Creating user name:	WinNT
#	Creation time:	15. 06. 2019 19:37

#	Modifying user name:	WinNT
#	Modification time:	15. 06. 2019 19:37

#	Program:	/corina/corina34_cracker 3.40 0067  02.08.2006

@<TRIPOS>MOLECULE
ASD01840435
  54   57    0    0    0
SMALL
NO_CHARGES


@<TRIPOS>ATOM
   1 C1             0.2611     1.7552    -0.9980 C.ar    
   2 C2             0.3841     0.5320    -1.6195 C.ar    
   3 N3             1.4990    -0.1677    -1.4965 N.ar    
   4 N4             2.4999     0.2427    -0.8111 N.ar    
   5 C5             1.3546     2.2267    -0.2364 C.ar    
   6 C6             1.5104     3.4570     0.5171 C.2     
   7 C7             2.4928     1.4121    -0.1670 C.ar    
   8 S8             3.7250     2.1824     0.8223 S.3     
   9 C9             2.7118     3.5783     1.1344 C.2     
  10 C10           -0.9999     2.5697    -1.1313 C.3     
  11 C11           -0.7562    -0.0106    -2.4419 C.3     
  12 N12            0.5179     4.4243     0.5985 N.pl3   
  13 C13            3.1102     4.7236     1.9514 C.2     
  14 O14            2.3404     5.6527     2.1138 O.2     
  15 N15            4.3297     4.7507     2.5248 N.am    
  16 C16            4.7288     5.8982     3.3434 C.3     
  17 C17            4.2634     5.7217     4.8129 C.3     
  18 C18            5.2854     6.5661     5.6030 C.3     
  19 N19            6.4861     6.6952     4.7644 N.am    
  20 C20            6.2680     5.9533     3.5092 C.3     
  21 S21            7.8560     7.5357     5.1632 S.o2    
  22 C22            8.9312     6.4157     5.9963 C.ar    
  23 C23            9.8454     5.6707     5.2745 C.ar    
  24 C24           10.6895     4.7918     5.9253 C.ar    
  25 C25           10.6193     4.6571     7.3043 C.ar    
  26 C26            9.7012     5.4057     8.0262 C.ar    
  27 C27            8.8632     6.2874     7.3713 C.ar    
  28 O28           11.4483     3.7929     7.9467 O.3     
  29 O29            8.4940     7.8679     3.9377 O.2     
  30 O30            7.4654     8.5068     6.1243 O.2     
  31 C31           11.3202     3.7060     9.3673 C.3     
  32 F32           10.0232     3.2961     9.6944 F       
  33 F33           12.2416     2.7771     9.8627 F       
  34 F34           11.5704     4.9596     9.9357 F       
  35 H35           -1.6441     2.3852    -0.2716 H       
  36 H36           -0.7456     3.6287    -1.1742 H       
  37 H37           -1.5220     2.2841    -2.0445 H       
  38 H38           -0.6493     0.3210    -3.4747 H       
  39 H39           -0.7433    -1.1000    -2.4068 H       
  40 H40           -1.7008     0.3547    -2.0389 H       
  41 H41           -0.4028     4.1923     0.4002 H       
  42 H42            0.7452     5.3322     0.8537 H       
  43 H43            4.9430     4.0104     2.3954 H       
  44 H44            4.3471     6.8280     2.9216 H       
  45 H45            3.2546     6.1120     4.9475 H       
  46 H46            4.3158     4.6746     5.1110 H       
  47 H47            4.8701     7.5524     5.8101 H       
  48 H48            5.5378     6.0642     6.5370 H       
  49 H49            6.6775     4.9462     3.5878 H       
  50 H50            6.7211     6.4836     2.6715 H       
  51 H51            9.8994     5.7757     4.2009 H       
  52 H52           11.4031     4.2099     5.3610 H       
  53 H53            9.6446     5.3026     9.0998 H       
  54 H54            8.1515     6.8739     7.9333 H       
@<TRIPOS>BOND
   1    1    2 ar
   2    1    5 ar
   3    1   10 1
   4    2   11 1
   5    2    3 ar
   6    3    4 ar
   7    4    7 ar
   8    5    7 ar
   9    5    6 1
  10    6    9 2
  11    6   12 1
  12    7    8 1
  13    8    9 1
  14    9   13 1
  15   10   35 1
  16   10   36 1
  17   10   37 1
  18   11   38 1
  19   11   39 1
  20   11   40 1
  21   12   41 1
  22   12   42 1
  23   13   14 2
  24   13   15 am
  25   15   16 1
  26   15   43 1
  27   16   17 1
  28   16   20 1
  29   16   44 1
  30   17   18 1
  31   17   45 1
  32   17   46 1
  33   18   19 1
  34   18   47 1
  35   18   48 1
  36   19   20 1
  37   19   21 am
  38   20   49 1
  39   20   50 1
  40   21   22 1
  41   21   29 2
  42   21   30 2
  43   22   23 ar
  44   22   27 ar
  45   23   24 ar
  46   23   51 1
  47   24   25 ar
  48   24   52 1
  49   25   26 ar
  50   25   28 1
  51   26   27 ar
  52   26   53 1
  53   27   54 1
  54   28   31 1
  55   31   32 1
  56   31   33 1
  57   31   34 1

#	End of record

