#	Name: ASD01814195
#	Creating user name:	WinNT
#	Creation time:	15. 06. 2019 19:31

#	Modifying user name:	WinNT
#	Modification time:	15. 06. 2019 19:31

#	Program:	/corina/corina34_cracker 3.40 0067  02.08.2006

@<TRIPOS>MOLECULE
ASD01814195
  51   55    0    0    0
SMALL
NO_CHARGES


@<TRIPOS>ATOM
   1 N1             0.7180     1.1941    -0.5595 N.2     
   2 C2             0.8832    -0.0902    -0.7716 C.2     
   3 C3             2.1416    -0.5902    -1.1400 C.2     
   4 C4             3.1851     0.2653    -1.2750 C.2     
   5 N5             2.9855     1.5974    -1.0483 N.pl3   
   6 C6             1.7415     2.0485    -0.6899 C.2     
   7 N7             3.8383     2.7046    -1.1030 N.2     
   8 C8             3.1530     3.7867    -0.7931 C.2     
   9 C9             1.8425     3.4253    -0.5292 C.2     
  10 C10            3.2863     5.2802    -0.6242 C.3     
  11 N11            1.9724     5.8050    -0.2394 N.am    
  12 C12            1.0568     4.6615    -0.1746 C.3     
  13 C13            1.6647     7.0937     0.0078 C.2     
  14 O14            0.5118     7.4124     0.2259 O.2     
  15 C15            2.7269     8.1176     0.0139 C.ar    
  16 C16            2.7890     9.0626     1.0469 C.ar    
  17 C17            3.6800     8.1473    -1.0072 C.ar    
  18 C18            4.6694     9.1062    -0.9957 C.ar    
  19 C19            4.7243    10.0419     0.0246 C.ar    
  20 C20            3.7919    10.0208     1.0425 C.ar    
  21 O21            1.8721     9.0405     2.0465 O.3     
  22 C22            2.0622     9.9625     3.1216 C.3     
  23 C23            1.3144     9.4820     4.3854 C.3     
  24 C24            4.5465    -0.2468    -1.6692 C.3     
  25 Cl25           2.3607    -2.2894    -1.4201 Cl      
  26 C26           -0.2831    -1.0322    -0.6183 C.3     
  27 O27            2.2216     9.3401     5.4804 O.3     
  28 C28            1.4064    11.3216     2.7914 C.3     
  29 O29            0.8596    11.7821     4.0463 O.3     
  30 C30            0.2952    10.6077     4.6693 C.3     
  31 H31            4.0148     5.5001     0.1562 H       
  32 H32            3.6034     5.7315    -1.5643 H       
  33 H33            0.2427     4.7987    -0.8864 H       
  34 H34            0.6548     4.5672     0.8342 H       
  35 H35            3.6416     7.4195    -1.8041 H       
  36 H36            5.4057     9.1283    -1.7855 H       
  37 H37            5.5037    10.7896     0.0260 H       
  38 H38            3.8434    10.7512     1.8364 H       
  39 H39            3.1243    10.0914     3.3296 H       
  40 H40            0.8017     8.5400     4.1909 H       
  41 H41            4.5032    -1.3276    -1.8037 H       
  42 H42            4.8552     0.2234    -2.6029 H       
  43 H43            5.2658    -0.0066    -0.8863 H       
  44 H44           -1.1702    -0.4683    -0.3299 H       
  45 H45           -0.4671    -1.5397    -1.5653 H       
  46 H46           -0.0555    -1.7701     0.1510 H       
  47 H47            1.7964     9.0983     6.3146 H       
  48 H48            2.1539    12.0240     2.4226 H       
  49 H49            0.6120    11.1911     2.0565 H       
  50 H50           -0.6695    10.3677     4.2224 H       
  51 H51            0.1892    10.7616     5.7431 H       
@<TRIPOS>BOND
   1    1    2 2
   2    1    6 1
   3    2    3 1
   4    2   26 1
   5    3    4 2
   6    3   25 1
   7    4    5 1
   8    4   24 1
   9    5    7 1
  10    5    6 1
  11    6    9 2
  12    7    8 2
  13    8   10 1
  14    8    9 1
  15    9   12 1
  16   10   11 1
  17   10   31 1
  18   10   32 1
  19   11   12 1
  20   11   13 am
  21   12   33 1
  22   12   34 1
  23   13   14 2
  24   13   15 1
  25   15   17 ar
  26   15   16 ar
  27   16   20 ar
  28   16   21 1
  29   17   18 ar
  30   17   35 1
  31   18   19 ar
  32   18   36 1
  33   19   20 ar
  34   19   37 1
  35   20   38 1
  36   21   22 1
  37   22   28 1
  38   22   23 1
  39   22   39 1
  40   23   27 1
  41   23   30 1
  42   23   40 1
  43   24   41 1
  44   24   42 1
  45   24   43 1
  46   26   44 1
  47   26   45 1
  48   26   46 1
  49   27   47 1
  50   28   29 1
  51   28   48 1
  52   28   49 1
  53   29   30 1
  54   30   50 1
  55   30   51 1

#	End of record

