#	Name: ASD02508026
#	Creating user name:	WinNT
#	Creation time:	15. 06. 2019 20:23

#	Modifying user name:	WinNT
#	Modification time:	15. 06. 2019 20:23

#	Program:	/corina/corina34_cracker 3.40 0067  02.08.2006

@<TRIPOS>MOLECULE
ASD02508026
  53   55    0    0    0
SMALL
NO_CHARGES


@<TRIPOS>ATOM
   1 C1             0.2315     1.5093     0.8699 C.3     
   2 N2             0.3119     0.0540     1.0579 N.am    
   3 C3             1.6437     2.0489     0.6118 C.3     
   4 N4             2.2739     1.2332    -0.4358 N.am    
   5 C5             2.3543    -0.2222    -0.2478 C.3     
   6 C6             0.9421    -0.7618     0.0103 C.3     
   7 C7             4.5658     2.3450    -1.4776 C.ar    
   8 C8             5.5614     1.4290    -1.7564 C.ar    
   9 C9             4.8896     3.5805    -0.9482 C.ar    
  10 C10            6.2106     3.9035    -0.6962 C.ar    
  11 C11            7.2106     2.9923    -0.9731 C.ar    
  12 C12            6.8886     1.7501    -1.5044 C.ar    
  13 C13           -1.9802    -1.0573     2.0999 C.ar    
  14 C14           -2.3046    -2.2922     1.5644 C.ar    
  15 C15           -2.9784    -0.1411     2.3849 C.ar    
  16 C16           -4.3018    -0.4586     2.1348 C.ar    
  17 C17           -4.6282    -1.6954     1.5983 C.ar    
  18 C18           -3.6272    -2.6123     1.3133 C.ar    
  19 F19           -2.6602     1.0633     2.9079 F       
  20 F20           -1.3293    -3.1849     1.2865 F       
  21 S21           -0.2962    -0.6541     2.4258 S.o2    
  22 O22            0.3900    -1.8891     2.5774 O.2     
  23 O23           -0.3115     0.3545     3.4268 O.2     
  24 O24           -5.9275    -2.0087     1.3526 O.3     
  25 C25           -6.1901    -3.2999     0.7996 C.3     
  26 S26            2.8820     1.9412    -1.8037 S.o2    
  27 O27            2.8978     0.9325    -2.8045 O.2     
  28 O28            2.1954     3.1760    -1.9556 O.2     
  29 N29            7.8995     0.8245    -1.7857 N.am    
  30 O30            9.1185     1.5281    -0.0708 O.2     
  31 C31            8.9806     0.7432    -0.9851 C.2     
  32 C32           10.0182    -0.3229    -1.2259 C.3     
  33 H33           -0.4075     1.7331     0.0156 H       
  34 H34           -0.1785     1.9720     1.7676 H       
  35 H35            1.5844     3.0860     0.2817 H       
  36 H36            2.2320     1.9868     1.5273 H       
  37 H37            2.7643    -0.6849    -1.1455 H       
  38 H38            2.9932    -0.4459     0.6065 H       
  39 H39            1.0014    -1.7989     0.3404 H       
  40 H40            0.3537    -0.6997    -0.9051 H       
  41 H41            5.3078     0.4639    -2.1695 H       
  42 H42            4.1094     4.2951    -0.7315 H       
  43 H43            6.4603     4.8694    -0.2826 H       
  44 H44            8.2420     3.2454    -0.7767 H       
  45 H45           -5.0803     0.2561     2.3575 H       
  46 H46           -3.8799    -3.5755     0.8953 H       
  47 H47           -7.2634    -3.4210     0.6531 H       
  48 H48           -5.6796    -3.3954    -0.1587 H       
  49 H49           -5.8277    -4.0683     1.4825 H       
  50 H50            7.8222     0.2413    -2.5570 H       
  51 H51            9.7249    -0.9281    -2.0837 H       
  52 H52           10.9818     0.1462    -1.4246 H       
  53 H53           10.0982    -0.9579    -0.3436 H       
@<TRIPOS>BOND
   1    1    2 1
   2    1    3 1
   3    1   33 1
   4    1   34 1
   5    2   21 am
   6    2    6 1
   7    3    4 1
   8    3   35 1
   9    3   36 1
  10    4    5 1
  11    4   26 am
  12    5    6 1
  13    5   37 1
  14    5   38 1
  15    6   39 1
  16    6   40 1
  17    7    8 ar
  18    7    9 ar
  19    7   26 1
  20    8   12 ar
  21    8   41 1
  22    9   10 ar
  23    9   42 1
  24   10   11 ar
  25   10   43 1
  26   11   12 ar
  27   11   44 1
  28   12   29 1
  29   13   14 ar
  30   13   15 ar
  31   13   21 1
  32   14   20 1
  33   14   18 ar
  34   15   16 ar
  35   15   19 1
  36   16   17 ar
  37   16   45 1
  38   17   18 ar
  39   17   24 1
  40   18   46 1
  41   21   22 2
  42   21   23 2
  43   24   25 1
  44   25   47 1
  45   25   48 1
  46   25   49 1
  47   26   27 2
  48   26   28 2
  49   29   31 am
  50   29   50 1
  51   30   31 2
  52   31   32 1
  53   32   51 1
  54   32   52 1
  55   32   53 1

#	End of record

