#	Name: ASD03331077
#	Creating user name:	WinNT
#	Creation time:	15. 06. 2019 20:38

#	Modifying user name:	WinNT
#	Modification time:	15. 06. 2019 20:38

#	Program:	/corina/corina34_cracker 3.40 0067  02.08.2006

@<TRIPOS>MOLECULE
ASD03331077
  53   55    0    0    0
SMALL
NO_CHARGES


@<TRIPOS>ATOM
   1 C1             0.1334     1.4961     0.2249 C.2     
   2 C2             0.1121    -0.0092     0.1578 C.3     
   3 C3            -0.0124    -0.4530    -1.3011 C.3     
   4 O4             1.1882     2.0846     0.2572 O.2     
   5 O5            -1.0194     2.1835     0.2432 O.3     
   6 C6             1.4086    -0.5646     0.7509 C.3     
   7 C7            -1.2519    -1.8430     1.0027 C.2     
   8 O8            -0.5029    -2.6198     0.4417 O.2     
   9 N9            -1.0307    -0.5160     0.9216 N.am    
  10 N10           -3.8681    -3.6904     2.6945 N.pl3   
  11 C11           -2.7406    -3.6610     1.9347 C.2     
  12 C12           -2.0132    -4.8654     1.3966 C.3     
  13 N13           -2.9869    -5.7836     0.7856 N.3     
  14 C14           -3.5169    -6.7273     1.7715 C.3     
  15 C15           -3.6227    -6.0770     3.1479 C.3     
  16 C16           -4.5980    -4.8981     3.0907 C.3     
  17 C17           -4.1885    -2.3998     3.0006 C.2     
  18 N18           -3.3075    -1.6051     2.4390 N.2     
  19 C19           -2.4014    -2.3527     1.7709 C.2     
  20 C20           -2.3964    -6.4926    -0.3575 C.3     
  21 C21           -5.3368    -1.9684     3.8262 C.ar    
  22 C22           -5.1556    -1.0251     4.8416 C.ar    
  23 C23           -6.2326    -0.6256     5.6093 C.ar    
  24 C24           -7.4892    -1.1587     5.3742 C.ar    
  25 C25           -7.6737    -2.0954     4.3680 C.ar    
  26 C26           -6.6063    -2.4972     3.5908 C.ar    
  27 F27           -8.5390    -0.7652     6.1280 F       
  28 F28           -3.9301    -0.5054     5.0720 F       
  29 Cl29          -9.2520    -2.7590     4.0813 Cl      
  30 C30           -0.9229     3.6308     0.3085 C.3     
  31 H31            0.8379    -0.0759    -1.8695 H       
  32 H32           -0.0278    -1.5418    -1.3497 H       
  33 H33           -0.9360    -0.0573    -1.7237 H       
  34 H34            1.4973    -0.2484     1.7902 H       
  35 H35            1.3932    -1.6534     0.7023 H       
  36 H36            2.2588    -0.1875     0.1825 H       
  37 H37           -1.6281     0.1036     1.3690 H       
  38 H38           -1.2898    -4.5486     0.6453 H       
  39 H39           -1.4957    -5.3724     2.2111 H       
  40 H40           -4.5060    -7.0582     1.4548 H       
  41 H41           -2.8542    -7.5905     1.8332 H       
  42 H42           -3.9832    -6.8109     3.8687 H       
  43 H43           -2.6402    -5.7198     3.4564 H       
  44 H44           -5.0457    -4.7475     4.0730 H       
  45 H45           -5.3800    -5.1071     2.3607 H       
  46 H46           -1.4945    -7.0133    -0.0355 H       
  47 H47           -3.1136    -7.2151    -0.7468 H       
  48 H48           -2.1428    -5.7755    -1.1382 H       
  49 H49           -6.0944     0.1032     6.3943 H       
  50 H50           -6.7526    -3.2230     2.8046 H       
  51 H51           -1.9241     4.0617     0.3170 H       
  52 H52           -0.3955     3.9191     1.2179 H       
  53 H53           -0.3766     3.9981    -0.5603 H       
@<TRIPOS>BOND
   1    1    2 1
   2    1    4 2
   3    1    5 1
   4    2    3 1
   5    2    6 1
   6    2    9 1
   7    3   31 1
   8    3   32 1
   9    3   33 1
  10    5   30 1
  11    6   34 1
  12    6   35 1
  13    6   36 1
  14    7    8 2
  15    7    9 am
  16    7   19 1
  17    9   37 1
  18   10   11 1
  19   10   16 1
  20   10   17 1
  21   11   12 1
  22   11   19 2
  23   12   13 1
  24   12   38 1
  25   12   39 1
  26   13   14 1
  27   13   20 1
  28   14   15 1
  29   14   40 1
  30   14   41 1
  31   15   16 1
  32   15   42 1
  33   15   43 1
  34   16   44 1
  35   16   45 1
  36   17   18 2
  37   17   21 1
  38   18   19 1
  39   20   46 1
  40   20   47 1
  41   20   48 1
  42   21   22 ar
  43   21   26 ar
  44   22   23 ar
  45   22   28 1
  46   23   24 ar
  47   23   49 1
  48   24   25 ar
  49   24   27 1
  50   25   26 ar
  51   25   29 1
  52   26   50 1
  53   30   51 1
  54   30   52 1
  55   30   53 1

#	End of record

