#	Name: ASD01209046
#	Creating user name:	WinNT
#	Creation time:	15. 06. 2019 19:10

#	Modifying user name:	WinNT
#	Modification time:	15. 06. 2019 19:10

#	Program:	/corina/corina34_cracker 3.40 0067  02.08.2006

@<TRIPOS>MOLECULE
ASD01209046
  55   59    0    0    0
SMALL
NO_CHARGES


@<TRIPOS>ATOM
   1 C1            -1.9556     1.4810    -1.4295 C.3     
   2 C2            -2.1355    -0.0352    -1.3070 C.3     
   3 C3            -1.5337    -0.5170     0.0146 C.3     
   4 C4            -1.5410    -2.0465     0.0509 C.3     
   5 C5            -0.7795    -2.5240     1.2605 C.2     
   6 N6             0.5493    -2.3153     1.3459 N.am    
   7 C7             1.2709    -2.8522     2.4069 C.2     
   8 N8            -2.9232    -2.5266     0.1232 N.pl3   
   9 N9             2.5482    -2.7179     2.5925 N.2     
  10 C10            3.0632    -3.2997     3.6596 C.2     
  11 C11            2.2001    -3.9649     4.4306 C.2     
  12 S12            0.5954    -3.8166     3.7172 S.3     
  13 F13            2.5037    -4.6326     5.5652 F       
  14 C14           -3.4736    -3.4898    -0.6816 C.ar    
  15 C15           -4.8131    -3.6424    -0.2739 C.ar    
  16 C16           -5.0158    -2.7042     0.8257 C.2     
  17 N17           -3.8911    -2.0798     1.0286 N.2     
  18 C18           -7.2046    -5.4209     1.2687 C.3     
  19 O19           -1.3623    -3.0961     2.1572 O.2     
  20 C20           -2.9839    -4.2655    -1.7290 C.ar    
  21 C21           -3.8133    -5.1719    -2.3538 C.ar    
  22 C22           -5.1362    -5.3188    -1.9478 C.ar    
  23 C23           -5.6357    -4.5693    -0.9231 C.ar    
  24 C24           -8.5118    -5.8168     1.9580 C.3     
  25 C25           -7.5426    -6.8985     1.4770 C.3     
  26 C26           -3.6310    -0.3651    -1.3394 C.3     
  27 C27           -4.2402     0.1899    -2.6295 C.3     
  28 O28           -4.0108     1.5988    -2.6954 O.3     
  29 C29           -2.6296     1.9647    -2.7162 C.3     
  30 F30           -3.3376    -5.9243    -3.3701 F       
  31 S31           -7.3127    -4.7668    -0.4198 S.o2    
  32 O32           -7.8302    -5.7517    -1.3039 O.2     
  33 O33           -7.8337    -3.4448    -0.4101 O.2     
  34 H34           -2.4137     1.9727    -0.5713 H       
  35 H35           -0.8927     1.7201    -1.4629 H       
  36 H36           -1.6335    -0.5303    -2.1382 H       
  37 H37           -0.5085    -0.1564     0.0998 H       
  38 H38           -2.1247    -0.1310     0.8451 H       
  39 H39           -1.0687    -2.4336    -0.8520 H       
  40 H40            1.0024    -1.7907     0.6674 H       
  41 H41            4.1159    -3.2415     3.8938 H       
  42 H42           -5.9335    -2.5573     1.3759 H       
  43 H43           -6.4181    -4.9918     1.8895 H       
  44 H44           -1.9586    -4.1572    -2.0508 H       
  45 H45           -5.7732    -6.0331    -2.4483 H       
  46 H46           -8.5853    -5.6486     3.0324 H       
  47 H47           -9.4369    -5.6843     1.3969 H       
  48 H48           -7.8299    -7.4776     0.5994 H       
  49 H49           -6.9783    -7.4418     2.2349 H       
  50 H50           -3.7663    -1.4463    -1.3083 H       
  51 H51           -4.1230     0.0892    -0.4794 H       
  52 H52           -3.7760    -0.2946    -3.4885 H       
  53 H53           -5.3127    -0.0046    -2.6381 H       
  54 H54           -2.5417     3.0488    -2.7871 H       
  55 H55           -2.1442     1.5035    -3.5763 H       
@<TRIPOS>BOND
   1    1    2 1
   2    1   29 1
   3    1   34 1
   4    1   35 1
   5    2    3 1
   6    2   26 1
   7    2   36 1
   8    3    4 1
   9    3   37 1
  10    3   38 1
  11    4    5 1
  12    4    8 1
  13    4   39 1
  14    5    6 am
  15    5   19 2
  16    6    7 1
  17    6   40 1
  18    7    9 2
  19    7   12 1
  20    8   14 1
  21    8   17 1
  22    9   10 1
  23   10   11 2
  24   10   41 1
  25   11   12 1
  26   11   13 1
  27   14   15 ar
  28   14   20 ar
  29   15   16 1
  30   15   23 ar
  31   16   17 2
  32   16   42 1
  33   18   24 1
  34   18   31 1
  35   18   25 1
  36   18   43 1
  37   20   21 ar
  38   20   44 1
  39   21   22 ar
  40   21   30 1
  41   22   23 ar
  42   22   45 1
  43   23   31 1
  44   24   25 1
  45   24   46 1
  46   24   47 1
  47   25   48 1
  48   25   49 1
  49   26   27 1
  50   26   50 1
  51   26   51 1
  52   27   28 1
  53   27   52 1
  54   27   53 1
  55   28   29 1
  56   29   54 1
  57   29   55 1
  58   31   32 2
  59   31   33 2

#	End of record

