#	Name: ASD02820006
#	Creating user name:	WinNT
#	Creation time:	15. 06. 2019 20:26

#	Modifying user name:	WinNT
#	Modification time:	15. 06. 2019 20:26

#	Program:	/corina/corina34_cracker 3.40 0067  02.08.2006

@<TRIPOS>MOLECULE
ASD02820006
  48   51    0    0    0
SMALL
NO_CHARGES


@<TRIPOS>ATOM
   1 C1            -0.0168     1.3872     0.0097 C.ar    
   2 C2             0.0021    -0.0041     0.0020 C.ar    
   3 C3             1.1824    -0.6885    -0.0129 C.ar    
   4 C4             2.3891     0.0184    -0.0205 C.ar    
   5 C5             2.3722     1.4344    -0.0128 C.ar    
   6 C6             1.1424     2.1056     0.0025 C.ar    
   7 C7             3.6451    -0.6388    -0.0355 C.ar    
   8 N8             4.7424     0.1033    -0.0415 N.ar    
   9 C9             4.6811     1.4322    -0.0340 C.ar    
  10 N10            3.5402     2.0943    -0.0200 N.ar    
  11 N11            3.7226    -2.0149    -0.0430 N.pl3   
  12 C12            5.0304    -2.6749    -0.0584 C.3     
  13 C13            4.9044    -4.0538     0.5364 C.ar    
  14 C14            5.5290    -2.7853    -1.5007 C.3     
  15 C15            5.8950    -4.5408     1.3685 C.ar    
  16 C16            5.7794    -5.8056     1.9141 C.ar    
  17 C17            4.6729    -6.5833     1.6280 C.ar    
  18 C18            3.6818    -6.0959     0.7967 C.ar    
  19 C19            3.7954    -4.8294     0.2545 C.ar    
  20 N20            5.8635     2.1499    -0.0410 N.3     
  21 C21            5.6018     3.5959    -0.0310 C.3     
  22 C22            6.9308     4.3516     0.0412 C.3     
  23 N23            7.7666     3.9785    -1.1086 N.3     
  24 C24            8.0282     2.5324    -1.1186 C.3     
  25 C25            6.6992     1.7768    -1.1908 C.3     
  26 H26           -0.9639     1.9061     0.0169 H       
  27 H27           -0.9300    -0.5495     0.0083 H       
  28 H28            1.1848    -1.7685    -0.0184 H       
  29 H29            1.1126     3.1851     0.0082 H       
  30 H30            2.9112    -2.5464    -0.0381 H       
  31 H31            5.7395    -2.0899     0.5274 H       
  32 H32            4.8199    -3.3702    -2.0865 H       
  33 H33            5.6202    -1.7879    -1.9309 H       
  34 H34            6.5021    -3.2763    -1.5122 H       
  35 H35            6.7595    -3.9332     1.5920 H       
  36 H36            6.5537    -6.1864     2.5636 H       
  37 H37            4.5829    -7.5717     2.0537 H       
  38 H38            2.8175    -6.7036     0.5729 H       
  39 H39            3.0211    -4.4486    -0.3949 H       
  40 H40            5.0732     3.8762    -0.9421 H       
  41 H41            4.9920     3.8492     0.8362 H       
  42 H42            6.7407     5.4247     0.0195 H       
  43 H43            7.4470     4.0920     0.9654 H       
  44 H44            7.3430     4.2753    -1.9750 H       
  45 H45            8.6380     2.2792    -1.9859 H       
  46 H46            8.5569     2.2522    -0.2076 H       
  47 H47            6.8894     0.7037    -1.1691 H       
  48 H48            6.1830     2.0363    -2.1150 H       
@<TRIPOS>BOND
   1    1    2 ar
   2    1    6 ar
   3    1   26 1
   4    2    3 ar
   5    2   27 1
   6    3    4 ar
   7    3   28 1
   8    4    5 ar
   9    4    7 ar
  10    5    6 ar
  11    5   10 ar
  12    6   29 1
  13    7    8 ar
  14    7   11 1
  15    8    9 ar
  16    9   10 ar
  17    9   20 1
  18   11   12 1
  19   11   30 1
  20   12   13 1
  21   12   14 1
  22   12   31 1
  23   13   15 ar
  24   13   19 ar
  25   14   32 1
  26   14   33 1
  27   14   34 1
  28   15   16 ar
  29   15   35 1
  30   16   17 ar
  31   16   36 1
  32   17   18 ar
  33   17   37 1
  34   18   19 ar
  35   18   38 1
  36   19   39 1
  37   20   21 1
  38   20   25 1
  39   21   22 1
  40   21   40 1
  41   21   41 1
  42   22   23 1
  43   22   42 1
  44   22   43 1
  45   23   24 1
  46   23   44 1
  47   24   25 1
  48   24   45 1
  49   24   46 1
  50   25   47 1
  51   25   48 1

#	End of record

