#	Name: ASD08070245
#	Creating user name:	WinNT
#	Creation time:	15. 06. 2019 21:14

#	Modifying user name:	WinNT
#	Modification time:	15. 06. 2019 21:14

#	Program:	/corina/corina34_cracker 3.40 0067  02.08.2006

@<TRIPOS>MOLECULE
ASD08070245
  32   34    0    0    0
SMALL
NO_CHARGES


@<TRIPOS>ATOM
   1 N1            -0.0172     1.3441     0.0196 N.am    
   2 C2             0.0015    -0.0033    -0.0076 C.2     
   3 O3             1.0625    -0.5959    -0.0473 O.2     
   4 N4            -1.1558    -0.6938     0.0094 N.am    
   5 C5            -1.1402    -2.0910    -0.1041 C.ar    
   6 C6            -2.2467    -2.7602    -0.6142 C.ar    
   7 C7            -2.2279    -4.1400    -0.7253 C.ar    
   8 C8             1.1480     2.2343     0.0064 C.3     
   9 C9            -0.0180    -2.8072     0.2872 C.ar    
  10 C10           -0.0030    -4.1846     0.1747 C.ar    
  11 C11           -1.1061    -4.8520    -0.3281 C.ar    
  12 F12           -3.3390    -2.0652    -1.0003 F       
  13 F13           -1.0882    -6.1985    -0.4368 F       
  14 C14            0.6410     3.6536     0.0479 C.ar    
  15 C15           -0.7391     3.6338     0.0840 C.ar    
  16 C16           -1.2067     2.2005     0.0616 C.3     
  17 C17            1.3149     4.8630     0.0541 C.ar    
  18 C18            0.6087     6.0495     0.0967 C.ar    
  19 C19           -0.7733     6.0296     0.1328 C.ar    
  20 C20           -1.4463     4.8232     0.1259 C.ar    
  21 F21           -3.3022    -4.7927    -1.2203 F       
  22 H22           -1.9996    -0.2239     0.1001 H       
  23 H23            1.7719     2.0392     0.8787 H       
  24 H24            1.7247     2.0745    -0.9046 H       
  25 H25            0.8440    -2.2881     0.6795 H       
  26 H26            0.8711    -4.7410     0.4795 H       
  27 H27           -1.8255     2.0275    -0.8189 H       
  28 H28           -1.7782     1.9842     0.9642 H       
  29 H29            2.3944     4.8788     0.0258 H       
  30 H30            1.1358     6.9921     0.1021 H       
  31 H31           -1.3263     6.9567     0.1662 H       
  32 H32           -2.5258     4.8079     0.1541 H       
@<TRIPOS>BOND
   1    1    2 am
   2    1    8 1
   3    1   16 1
   4    2    3 2
   5    2    4 am
   6    4    5 1
   7    4   22 1
   8    5    6 ar
   9    5    9 ar
  10    6    7 ar
  11    6   12 1
  12    7   21 1
  13    7   11 ar
  14    8   14 1
  15    8   23 1
  16    8   24 1
  17    9   10 ar
  18    9   25 1
  19   10   11 ar
  20   10   26 1
  21   11   13 1
  22   14   15 ar
  23   14   17 ar
  24   15   16 1
  25   15   20 ar
  26   16   27 1
  27   16   28 1
  28   17   18 ar
  29   17   29 1
  30   18   19 ar
  31   18   30 1
  32   19   20 ar
  33   19   31 1
  34   20   32 1

#	End of record

