#	Name: ASD03090800
#	Creating user name:	WinNT
#	Creation time:	15. 06. 2019 20:29

#	Modifying user name:	WinNT
#	Modification time:	15. 06. 2019 20:29

#	Program:	/corina/corina34_cracker 3.40 0067  02.08.2006

@<TRIPOS>MOLECULE
ASD03090800
  32   33    0    0    0
SMALL
NO_CHARGES


@<TRIPOS>ATOM
   1 C1            -1.0282     2.1473     0.0109 C.ar    
   2 N2            -0.9030     0.8766    -0.3216 N.ar    
   3 C3            -1.9382     0.0596    -0.3626 C.ar    
   4 C4            -3.2092     0.5087    -0.0550 C.ar    
   5 C5            -3.3872     1.8477     0.3025 C.ar    
   6 C6            -2.2628     2.6766     0.3386 C.ar    
   7 C7            -4.7326     2.3737     0.6406 C.2     
   8 N8            -4.8824     3.6587     0.9805 N.2     
   9 C9            -6.0969     4.1586     1.1652 C.2     
  10 N10           -6.3989     4.8065     2.3289 N.pl3   
  11 C11           -7.7041     5.2600     2.5597 C.ar    
  12 C12           -8.7755     4.3857     2.4376 C.ar    
  13 C13          -10.2863     6.1540     3.0160 C.ar    
  14 C14           -7.9276     6.5846     2.9169 C.ar    
  15 C15          -10.0624     4.8336     2.6653 C.ar    
  16 S16           -7.3207     3.9868    -0.0908 S.3     
  17 O17           -5.7008     1.6353     0.6086 O.2     
  18 Cl18          -1.7013    -1.6012    -0.8092 Cl      
  19 Cl19           0.3768     3.1664     0.0444 Cl      
  20 F20           -6.8866     7.4368     3.0411 F       
  21 F21          -11.5459     6.5886     3.2388 F       
  22 C22           -9.2190     7.0295     3.1447 C.ar    
  23 F23           -9.4393     8.3179     3.4865 F       
  24 C24           -7.7270     2.2338     0.1040 C.3     
  25 H25           -4.0521    -0.1655    -0.0910 H       
  26 H26           -2.3580     3.7176     0.6100 H       
  27 H27           -5.7097     4.9526     2.9957 H       
  28 H28           -8.6030     3.3552     2.1642 H       
  29 H29          -10.8952     4.1527     2.5694 H       
  30 H30           -7.2846     1.6652    -0.7139 H       
  31 H31           -7.3316     1.8725     1.0533 H       
  32 H32           -8.8097     2.1080     0.0899 H       
@<TRIPOS>BOND
   1    1    2 ar
   2    1   19 1
   3    1    6 ar
   4    2    3 ar
   5    3    4 ar
   6    3   18 1
   7    4    5 ar
   8    4   25 1
   9    5    6 ar
  10    5    7 1
  11    6   26 1
  12    7    8 1
  13    7   17 2
  14    8    9 2
  15    9   10 1
  16    9   16 1
  17   10   11 1
  18   10   27 1
  19   11   12 ar
  20   11   14 ar
  21   12   15 ar
  22   12   28 1
  23   13   22 ar
  24   13   21 1
  25   13   15 ar
  26   14   20 1
  27   14   22 ar
  28   15   29 1
  29   16   24 1
  30   22   23 1
  31   24   30 1
  32   24   31 1
  33   24   32 1

#	End of record

