#	Name: ASD01028672
#	Creating user name:	WinNT
#	Creation time:	15. 06. 2019 18:57

#	Modifying user name:	WinNT
#	Modification time:	15. 06. 2019 18:57

#	Program:	/corina/corina34_cracker 3.40 0067  02.08.2006

@<TRIPOS>MOLECULE
ASD01028672
  42   46    0    0    0
SMALL
NO_CHARGES


@<TRIPOS>ATOM
   1 N1            -0.0157     1.3066     0.0092 N.ar    
   2 C2             0.0021    -0.0041     0.0020 C.ar    
   3 C3             1.1967    -0.7211    -0.0128 C.ar    
   4 C4             2.3902    -0.0572    -0.0206 C.ar    
   5 C5             2.3672     1.3504    -0.0132 C.ar    
   6 C6             3.5535     2.1011    -0.0200 C.ar    
   7 C7             3.4892     3.4613    -0.0122 C.ar    
   8 C8             2.2611     4.1187     0.0030 C.ar    
   9 C9             1.0917     3.4224     0.0100 C.ar    
  10 C10            1.1167     2.0170     0.0022 C.ar    
  11 C11            4.7634     4.2659    -0.0195 C.3     
  12 C12            5.4159     5.4487    -3.4125 C.2     
  13 C13            5.2305     6.4104    -4.4285 C.2     
  14 C14            4.4493     7.4960    -4.1840 C.2     
  15 C15            3.8355     7.6453    -2.9178 C.2     
  16 C16            4.0264     6.7067    -1.9515 C.2     
  17 N17            4.8091     5.6169    -2.1924 N.pl3   
  18 N18            5.9479     3.7902    -2.1840 N.2     
  19 N19            6.0945     4.3146    -3.3497 N.2     
  20 C20            5.1751     4.5418    -1.4427 C.2     
  21 C21            2.9815     8.8276    -2.6435 C.ar    
  22 C22            3.5394    10.1043    -2.6269 C.ar    
  23 C23            2.7405    11.2004    -2.3712 C.ar    
  24 C24            1.3885    11.0332    -2.1318 C.ar    
  25 C25            0.8295     9.7680    -2.1466 C.ar    
  26 C26            1.6179     8.6655    -2.4073 C.ar    
  27 F27            5.8236     6.2540    -5.6322 F       
  28 H28           -0.9341    -0.5425     0.0081 H       
  29 H29            1.1789    -1.8009    -0.0177 H       
  30 H30            3.3255    -0.5970    -0.0317 H       
  31 H31            4.5116     1.6027    -0.0311 H       
  32 H32            2.2365     5.1984     0.0097 H       
  33 H33            0.1481     3.9476     0.0221 H       
  34 H34            4.6001     5.2097     0.5009 H       
  35 H35            5.5504     3.7047     0.4842 H       
  36 H36            4.2985     8.2405    -4.9518 H       
  37 H37            3.5558     6.8265    -0.9868 H       
  38 H38            4.5950    10.2359    -2.8134 H       
  39 H39            3.1719    12.1904    -2.3578 H       
  40 H40            0.7670    11.8936    -1.9322 H       
  41 H41           -0.2266     9.6431    -1.9583 H       
  42 H42            1.1796     7.6786    -2.4235 H       
@<TRIPOS>BOND
   1    1    2 ar
   2    1   10 ar
   3    2    3 ar
   4    2   28 1
   5    3    4 ar
   6    3   29 1
   7    4    5 ar
   8    4   30 1
   9    5    6 ar
  10    5   10 ar
  11    6    7 ar
  12    6   31 1
  13    7    8 ar
  14    7   11 1
  15    8    9 ar
  16    8   32 1
  17    9   10 ar
  18    9   33 1
  19   11   20 1
  20   11   34 1
  21   11   35 1
  22   12   13 1
  23   12   17 1
  24   12   19 2
  25   13   14 2
  26   13   27 1
  27   14   15 1
  28   14   36 1
  29   15   16 2
  30   15   21 1
  31   16   17 1
  32   16   37 1
  33   17   20 1
  34   18   19 1
  35   18   20 2
  36   21   22 ar
  37   21   26 ar
  38   22   23 ar
  39   22   38 1
  40   23   24 ar
  41   23   39 1
  42   24   25 ar
  43   24   40 1
  44   25   26 ar
  45   25   41 1
  46   26   42 1

#	End of record

