#	Name: ASD02398014
#	Creating user name:	WinNT
#	Creation time:	15. 06. 2019 20:20

#	Modifying user name:	WinNT
#	Modification time:	15. 06. 2019 20:20

#	Program:	/corina/corina34_cracker 3.40 0067  02.08.2006

@<TRIPOS>MOLECULE
ASD02398014
  56   59    0    0    0
SMALL
NO_CHARGES


@<TRIPOS>ATOM
   1 C1            -0.0354     1.3033    -0.0250 C.ar    
   2 C2            -0.0196    -0.0894     0.0207 C.ar    
   3 C3             1.1977    -0.7668     0.0411 C.ar    
   4 C4             2.3807    -0.0560     0.0161 C.ar    
   5 C5             2.3591     1.3261    -0.0287 C.ar    
   6 C6             1.1532     2.0039    -0.0497 C.ar    
   7 C7             3.6982    -0.7872     0.0381 C.3     
   8 C8             4.1353    -1.0776    -1.3745 C.2     
   9 O9             3.4475    -0.7267    -2.3039 O.2     
  10 O10            5.2886    -1.7260    -1.6004 O.3     
  11 C11           -1.2946    -0.8482     0.0479 C.ar    
  12 C12           -2.2371    -0.5964     1.0431 C.ar    
  13 C13           -1.5561    -1.8108    -0.9246 C.ar    
  14 C14           -2.7438    -2.5137    -0.8945 C.ar    
  15 C15           -3.6734    -2.2634     0.0985 C.ar    
  16 C16           -3.4210    -1.3049     1.0637 C.ar    
  17 C17           -1.9636     0.4474     2.0951 C.3     
  18 N18           -3.1472     0.6076     2.9434 N.am    
  19 C19           -3.4577    -0.1556     4.0002 C.2     
  20 O20           -4.5950     0.1993     4.6084 O.3     
  21 C21           -5.1767     1.3447     3.9209 C.3     
  22 C22           -4.1855     1.6364     2.7778 C.3     
  23 O23           -2.7691    -1.0852     4.3718 O.2     
  24 C24           -4.8720     1.4833     1.4190 C.3     
  25 C25           -6.5361     0.9967     3.3715 C.ar    
  26 C26           -7.5274     1.9587     3.3191 C.ar    
  27 C27           -6.7901    -0.2831     2.9148 C.ar    
  28 C28           -8.0371    -0.6023     2.4108 C.ar    
  29 C29           -9.0302     0.3580     2.3640 C.ar    
  30 C30           -8.7744     1.6394     2.8152 C.ar    
  31 C31           -4.9684    -3.0337     0.1259 C.3     
  32 F32           -4.9979    -3.9346    -0.9440 F       
  33 F33           -5.0670    -3.7374     1.3310 F       
  34 F34           -6.0425    -2.1440     0.0162 F       
  35 H35           -0.9763     1.8332    -0.0455 H       
  36 H36            1.2157    -1.8461     0.0769 H       
  37 H37            3.2870     1.8784    -0.0478 H       
  38 H38            1.1421     3.0833    -0.0843 H       
  39 H39            4.4486    -0.1691     0.5309 H       
  40 H40            3.5845    -1.7243     0.5831 H       
  41 H41            5.5270    -1.8895    -2.5232 H       
  42 H42           -0.8312    -2.0065    -1.7009 H       
  43 H43           -2.9476    -3.2602    -1.6479 H       
  44 H44           -4.1502    -1.1138     1.8370 H       
  45 H45           -1.1179     0.1338     2.7070 H       
  46 H46           -1.7309     1.3969     1.6130 H       
  47 H47           -5.2426     2.2005     4.5928 H       
  48 H48           -3.7621     2.6352     2.8836 H       
  49 H49           -5.6587     2.2317     1.3231 H       
  50 H50           -4.1394     1.6224     0.6240 H       
  51 H51           -5.3071     0.4869     1.3420 H       
  52 H52           -7.3277     2.9596     3.6722 H       
  53 H53           -6.0141    -1.0334     2.9513 H       
  54 H54           -8.2353    -1.6020     2.0533 H       
  55 H55          -10.0044     0.1087     1.9699 H       
  56 H56           -9.5503     2.3898     2.7786 H       
@<TRIPOS>BOND
   1    1    2 ar
   2    1    6 ar
   3    1   35 1
   4    2    3 ar
   5    2   11 1
   6    3    4 ar
   7    3   36 1
   8    4    5 ar
   9    4    7 1
  10    5    6 ar
  11    5   37 1
  12    6   38 1
  13    7    8 1
  14    7   39 1
  15    7   40 1
  16    8    9 2
  17    8   10 1
  18   10   41 1
  19   11   12 ar
  20   11   13 ar
  21   12   17 1
  22   12   16 ar
  23   13   14 ar
  24   13   42 1
  25   14   15 ar
  26   14   43 1
  27   15   16 ar
  28   15   31 1
  29   16   44 1
  30   17   18 1
  31   17   45 1
  32   17   46 1
  33   18   19 am
  34   18   22 1
  35   19   20 1
  36   19   23 2
  37   20   21 1
  38   21   22 1
  39   21   25 1
  40   21   47 1
  41   22   24 1
  42   22   48 1
  43   24   49 1
  44   24   50 1
  45   24   51 1
  46   25   26 ar
  47   25   27 ar
  48   26   30 ar
  49   26   52 1
  50   27   28 ar
  51   27   53 1
  52   28   29 ar
  53   28   54 1
  54   29   30 ar
  55   29   55 1
  56   30   56 1
  57   31   32 1
  58   31   33 1
  59   31   34 1

#	End of record

