#	Name: ASD03170012
#	Creating user name:	WinNT
#	Creation time:	15. 06. 2019 20:33

#	Modifying user name:	WinNT
#	Modification time:	15. 06. 2019 20:33

#	Program:	/corina/corina34_cracker 3.40 0067  02.08.2006

@<TRIPOS>MOLECULE
ASD03170012
  68   71    0    0    0
SMALL
NO_CHARGES


@<TRIPOS>ATOM
   1 C1             0.2813     1.1880    -0.5920 C.3     
   2 O2             0.2127    -0.2613    -0.5355 O.3     
   3 C3            -0.9758    -0.8035    -0.2269 C.2     
   4 O4            -1.9273    -0.0907    -0.0112 O.2     
   5 C5            -1.1236    -2.3024    -0.1495 C.3     
   6 C6            -0.5980    -2.9202    -1.4433 C.3     
   7 C7            -0.7897    -4.4351    -1.4535 C.3     
   8 O8            -0.3465    -4.9737    -2.7274 O.3     
   9 C9             0.9410    -5.3421    -2.8184 C.2     
  10 O10            1.6735    -5.2187    -1.8655 O.2     
  11 C11            1.4729    -5.9096    -4.1092 C.3     
  12 C12           -2.2731    -4.7723    -1.2509 C.3     
  13 C13           -2.7114    -4.1782     0.0859 C.3     
  14 C14           -2.6077    -2.6600     0.0557 C.3     
  15 C15           -3.4008    -2.0316    -1.0898 C.3     
  16 C16           -3.0817    -2.0527     1.3769 C.3     
  17 C17           -4.4800    -2.5643     1.7366 C.3     
  18 C18           -4.4268    -4.0767     1.8895 C.3     
  19 C19           -4.0368    -4.7331     0.5601 C.3     
  20 C20           -5.1450    -4.5588    -0.4738 C.3     
  21 C21           -3.9032    -6.2358     0.8668 C.3     
  22 C22           -5.2511    -6.8088     1.2916 C.3     
  23 O23           -6.0583    -5.9142     2.0706 O.3     
  24 C24           -5.7528    -4.6422     2.3269 C.2     
  25 O25           -6.5439    -3.9276     2.9197 O.2     
  26 C26           -5.0101    -8.0694     2.0815 C.2     
  27 C27           -4.9302    -8.1797     3.4887 C.2     
  28 C28           -4.7065    -9.4768     3.7659 C.2     
  29 O29           -4.6470   -10.1541     2.6077 O.3     
  30 C30           -4.8354    -9.3065     1.5831 C.2     
  31 C31           -4.8408    -9.6771     0.1224 C.3     
  32 O32           -3.5151    -9.5724    -0.4006 O.3     
  33 C33           -4.5489   -10.0694     5.1425 C.3     
  34 O34           -5.8276   -10.4733     5.6365 O.3     
  35 H35            1.2950     1.4939    -0.8509 H       
  36 H36           -0.4132     1.5554    -1.3474 H       
  37 H37            0.0138     1.6025     0.3800 H       
  38 H38           -0.5506    -2.6798     0.6988 H       
  39 H39           -1.0887    -2.4770    -2.3079 H       
  40 H40            0.4774    -2.7043    -1.5206 H       
  41 H41           -0.2087    -4.8844    -0.6476 H       
  42 H42            1.3521    -5.1756    -4.9059 H       
  43 H43            2.5300    -6.1487    -3.9927 H       
  44 H44            0.9214    -6.8150    -4.3626 H       
  45 H45           -2.8530    -4.3779    -2.0776 H       
  46 H46           -2.3816    -5.8593    -1.2221 H       
  47 H47           -1.9479    -4.5231     0.8297 H       
  48 H48           -2.9771    -2.3497    -2.0424 H       
  49 H49           -4.4410    -2.3515    -1.0299 H       
  50 H50           -3.3498    -0.9454    -1.0140 H       
  51 H51           -2.3836    -2.3227     2.1700 H       
  52 H52           -3.1247    -0.9655     1.2892 H       
  53 H53           -4.7828    -2.1162     2.6912 H       
  54 H54           -5.2007    -2.2719     0.9786 H       
  55 H55           -3.6695    -4.3301     2.6420 H       
  56 H56           -5.4302    -3.5081    -0.5271 H       
  57 H57           -4.7868    -4.8880    -1.4493 H       
  58 H58           -6.0096    -5.1558    -0.1838 H       
  59 H59           -3.5526    -6.7478    -0.0308 H       
  60 H60           -3.1719    -6.3682     1.6651 H       
  61 H61           -5.8086    -7.1021     0.3882 H       
  62 H62           -5.0292    -7.3765     4.2039 H       
  63 H63           -5.1965   -10.7011     0.0086 H       
  64 H64           -5.5004    -9.0009    -0.4216 H       
  65 H65           -3.4433    -9.7969    -1.3384 H       
  66 H66           -3.8889   -10.9354     5.0919 H       
  67 H67           -4.1197    -9.3240     5.8120 H       
  68 H68           -5.8021   -10.8646     6.5204 H       
@<TRIPOS>BOND
   1    1    2 1
   2    1   35 1
   3    1   36 1
   4    1   37 1
   5    2    3 1
   6    3    4 2
   7    3    5 1
   8    5    6 1
   9    5   14 1
  10    5   38 1
  11    6    7 1
  12    6   39 1
  13    6   40 1
  14    7    8 1
  15    7   12 1
  16    7   41 1
  17    8    9 1
  18    9   10 2
  19    9   11 1
  20   11   42 1
  21   11   43 1
  22   11   44 1
  23   12   13 1
  24   12   45 1
  25   12   46 1
  26   13   14 1
  27   13   19 1
  28   13   47 1
  29   14   15 1
  30   14   16 1
  31   15   48 1
  32   15   49 1
  33   15   50 1
  34   16   17 1
  35   16   51 1
  36   16   52 1
  37   17   18 1
  38   17   53 1
  39   17   54 1
  40   18   19 1
  41   18   24 1
  42   18   55 1
  43   19   20 1
  44   19   21 1
  45   20   56 1
  46   20   57 1
  47   20   58 1
  48   21   22 1
  49   21   59 1
  50   21   60 1
  51   22   23 1
  52   22   26 1
  53   22   61 1
  54   23   24 1
  55   24   25 2
  56   26   27 1
  57   26   30 2
  58   27   28 2
  59   27   62 1
  60   28   29 1
  61   28   33 1
  62   29   30 1
  63   30   31 1
  64   31   32 1
  65   31   63 1
  66   31   64 1
  67   32   65 1
  68   33   34 1
  69   33   66 1
  70   33   67 1
  71   34   68 1

#	End of record

