#	Name: ASD01916035
#	Creating user name:	WinNT
#	Creation time:	15. 06. 2019 20:06

#	Modifying user name:	WinNT
#	Modification time:	15. 06. 2019 20:06

#	Program:	/corina/corina34_cracker 3.40 0067  02.08.2006

@<TRIPOS>MOLECULE
ASD01916035
  38   39    0    0    0
SMALL
NO_CHARGES


@<TRIPOS>ATOM
   1 C1            -0.0169     1.3977     0.0097 C.ar    
   2 C2             0.0021    -0.0041     0.0020 C.ar    
   3 C3            -1.2047    -0.6766     0.0100 C.ar    
   4 C4            -2.3925     0.0553     0.0253 C.ar    
   5 C5            -3.6890    -0.6577     0.0339 C.2     
   6 N6            -4.8419     0.0402     0.0487 N.am    
   7 O7            -3.7144    -1.8729     0.0276 O.2     
   8 C8             1.2071     2.1408     0.0020 C.1     
   9 C9             2.2107     2.7500    -0.0043 C.1     
  10 C10            3.4348     3.4932    -0.0120 C.ar    
  11 C11            3.4269     4.8950    -0.0044 C.ar    
  12 C12            5.8289     3.5962    -0.0281 C.ar    
  13 C13            4.6290     5.5702    -0.0117 C.ar    
  14 N14           -2.3753     1.3838     0.0327 N.ar    
  15 C15           -1.2511     2.0611     0.0192 C.ar    
  16 C16            4.6744     2.8395    -0.0214 C.ar    
  17 N17            5.7748     4.9157    -0.0257 N.ar    
  18 C18           -6.1256    -0.6657     0.0572 C.3     
  19 C19           -7.2675     0.3524     0.0736 C.3     
  20 C20           -6.2369    -1.5368    -1.1957 C.3     
  21 C21           -6.2129    -1.5502     1.3026 C.3     
  22 F22           -7.1876     1.1611    -1.0651 F       
  23 F23           -8.4933    -0.3217     0.0818 F       
  24 F24           -7.1657     1.1489     1.2193 F       
  25 Cl25           7.3728     2.8026    -0.0463 Cl      
  26 H26            0.9369    -0.5448    -0.0102 H       
  27 H27           -1.2284    -1.7563     0.0040 H       
  28 H28           -4.8217     1.0100     0.0537 H       
  29 H29            2.4934     5.4379     0.0067 H       
  30 H30            4.6330     6.6502    -0.0063 H       
  31 H31           -1.2775     3.1408     0.0262 H       
  32 H32            4.7256     1.7607    -0.0230 H       
  33 H33           -5.4233    -2.2621    -1.2074 H       
  34 H34           -7.1919    -2.0620    -1.1894 H       
  35 H35           -6.1746    -0.9067    -2.0830 H       
  36 H36           -6.1336    -0.9296     2.1952 H       
  37 H37           -7.1680    -2.0754     1.3089 H       
  38 H38           -5.3994    -2.2755     1.2909 H       
@<TRIPOS>BOND
   1    1    2 ar
   2    1    8 1
   3    1   15 ar
   4    2    3 ar
   5    2   26 1
   6    3    4 ar
   7    3   27 1
   8    4   14 ar
   9    4    5 1
  10    5    6 am
  11    5    7 2
  12    6   18 1
  13    6   28 1
  14    8    9 3
  15    9   10 1
  16   10   11 ar
  17   10   16 ar
  18   11   13 ar
  19   11   29 1
  20   12   17 ar
  21   12   25 1
  22   12   16 ar
  23   13   17 ar
  24   13   30 1
  25   14   15 ar
  26   15   31 1
  27   16   32 1
  28   18   20 1
  29   18   21 1
  30   18   19 1
  31   19   22 1
  32   19   23 1
  33   19   24 1
  34   20   33 1
  35   20   34 1
  36   20   35 1
  37   21   36 1
  38   21   37 1
  39   21   38 1

#	End of record

