#	Name: ASD01200534
#	Creating user name:	WinNT
#	Creation time:	15. 06. 2019 19:09

#	Modifying user name:	WinNT
#	Modification time:	15. 06. 2019 19:09

#	Program:	/corina/corina34_cracker 3.40 0067  02.08.2006

@<TRIPOS>MOLECULE
ASD01200534
  38   40    0    0    0
SMALL
NO_CHARGES


@<TRIPOS>ATOM
   1 N1             2.2307     1.3387     0.5646 N.ar    
   2 C2             2.2417     0.0209     0.5646 C.ar    
   3 C3             1.2057    -0.6961    -0.0206 C.ar    
   4 C4             0.1516    -0.0017    -0.6089 C.ar    
   5 C5             0.1813     1.3832    -0.5852 C.ar    
   6 C6             1.2474     2.0256     0.0161 C.ar    
   7 N7             1.2214    -2.0945    -0.0195 N.am    
   8 C8             0.0669    -2.7813     0.0900 C.2     
   9 O9            -0.9777    -2.1883     0.2860 O.2     
  10 O10            1.1516    -5.0191    -0.2424 O.3     
  11 C11            0.0694    -4.2428    -0.0269 C.2     
  12 C12           -1.0233    -5.0570     0.0637 C.2     
  13 C13           -0.5621    -6.3717    -0.1064 C.2     
  14 C14            0.7748    -6.3035    -0.2909 C.2     
  15 C15            1.6909    -7.4789    -0.5150 C.3     
  16 N16            1.7940    -7.7509    -1.9508 N.pl3   
  17 N17            2.7377    -7.2010    -2.8281 N.2     
  18 C18            2.5121    -7.6809    -4.0242 C.2     
  19 C19            1.4193    -8.5505    -3.9472 C.2     
  20 C20            1.0005    -8.5799    -2.6608 C.2     
  21 C21           -0.1487    -9.3903    -2.1188 C.3     
  22 C22            3.2943    -7.3530    -5.2698 C.3     
  23 H23            3.0644    -0.5069     1.0238 H       
  24 H24           -0.6686    -0.5297    -1.0724 H       
  25 H25           -0.6190     1.9544    -1.0320 H       
  26 H26            1.2753     3.1050     0.0376 H       
  27 H27            2.0631    -2.5702    -0.0975 H       
  28 H28           -2.0445    -4.7489     0.2332 H       
  29 H29           -1.1627    -7.2692    -0.0918 H       
  30 H30            2.6794    -7.2502    -0.1166 H       
  31 H31            1.2883    -8.3553    -0.0071 H       
  32 H32            0.9887    -9.1041    -4.7684 H       
  33 H33           -1.0668    -8.8061    -2.1819 H       
  34 H34           -0.2579   -10.3030    -2.7046 H       
  35 H35            0.0473    -9.6478    -1.0780 H       
  36 H36            4.1196    -8.0570    -5.3765 H       
  37 H37            2.6405    -7.4252    -6.1390 H       
  38 H38            3.6886    -6.3395    -5.1950 H       
@<TRIPOS>BOND
   1    1    2 ar
   2    1    6 ar
   3    2    3 ar
   4    2   23 1
   5    3    4 ar
   6    3    7 1
   7    4    5 ar
   8    4   24 1
   9    5    6 ar
  10    5   25 1
  11    6   26 1
  12    7    8 am
  13    7   27 1
  14    8    9 2
  15    8   11 1
  16   10   11 1
  17   10   14 1
  18   11   12 2
  19   12   13 1
  20   12   28 1
  21   13   14 2
  22   13   29 1
  23   14   15 1
  24   15   16 1
  25   15   30 1
  26   15   31 1
  27   16   17 1
  28   16   20 1
  29   17   18 2
  30   18   19 1
  31   18   22 1
  32   19   20 2
  33   19   32 1
  34   20   21 1
  35   21   33 1
  36   21   34 1
  37   21   35 1
  38   22   36 1
  39   22   37 1
  40   22   38 1

#	End of record

