#	Name: ASD01420084
#	Creating user name:	WinNT
#	Creation time:	15. 06. 2019 19:20

#	Modifying user name:	WinNT
#	Modification time:	15. 06. 2019 19:20

#	Program:	/corina/corina34_cracker 3.40 0067  02.08.2006

@<TRIPOS>MOLECULE
ASD01420084
  41   43    0    0    0
SMALL
NO_CHARGES


@<TRIPOS>ATOM
   1 C1            -0.0144     1.2120     0.0087 C.2     
   2 O2             0.0248     0.2228    -0.6978 O.2     
   3 C3             1.1676     2.0837     0.1217 C.ar    
   4 C4             2.4451     1.5225     0.2720 C.ar    
   5 C5             3.5504     2.3487     0.3769 C.ar    
   6 C6             3.3940     3.7265     0.3336 C.ar    
   7 C7             2.1280     4.2844     0.1846 C.ar    
   8 C8             1.0221     3.4734     0.0739 C.ar    
   9 C9             1.9682     5.7822     0.1391 C.3     
  10 C10            1.3371     6.1875    -1.1944 C.3     
  11 C11            1.0655     6.2340     1.2888 C.3     
  12 O12            4.4801     4.5335     0.4373 O.3     
  13 O13            2.5959     0.1750     0.3146 O.3     
  14 C14           -2.4288     0.8185     0.5895 C.3     
  15 N15           -1.1412     1.5137     0.6838 N.am    
  16 C16           -1.3143     2.6000     1.6535 C.3     
  17 C17           -2.7379     2.5506     2.1479 C.ar    
  18 C18           -3.4150     3.3426     3.0627 C.ar    
  19 C19           -4.7440     3.0881     3.3513 C.ar    
  20 C20           -5.3980     2.0428     2.7270 C.ar    
  21 C21           -4.7229     1.2521     1.8141 C.ar    
  22 C22           -3.3909     1.5067     1.5244 C.ar    
  23 F23           -5.3623     0.2303     1.2040 F       
  24 F24           -2.7760     4.3643     3.6734 F       
  25 H25            4.5351     1.9207     0.4930 H       
  26 H26            0.0416     3.9102    -0.0460 H       
  27 H27            2.9455     6.2550     0.2372 H       
  28 H28            0.3599     5.7147    -1.2925 H       
  29 H29            1.2216     7.2708    -1.2273 H       
  30 H30            1.9803     5.8656    -2.0135 H       
  31 H31            0.0883     5.7612     1.1908 H       
  32 H32            1.5151     5.9452     2.2389 H       
  33 H33            0.9499     7.3173     1.2559 H       
  34 H34            4.8912     4.7507    -0.4107 H       
  35 H35            2.7354    -0.2327    -0.5511 H       
  36 H36           -2.8041     0.8729    -0.4325 H       
  37 H37           -2.3085    -0.2238     0.8847 H       
  38 H38           -0.6281     2.4623     2.4890 H       
  39 H39           -1.1236     3.5590     1.1718 H       
  40 H40           -5.2700     3.7056     4.0643 H       
  41 H41           -6.4352     1.8430     2.9518 H       
@<TRIPOS>BOND
   1    1    2 2
   2    1    3 1
   3    1   15 am
   4    3    4 ar
   5    3    8 ar
   6    4    5 ar
   7    4   13 1
   8    5    6 ar
   9    5   25 1
  10    6    7 ar
  11    6   12 1
  12    7    8 ar
  13    7    9 1
  14    8   26 1
  15    9   10 1
  16    9   11 1
  17    9   27 1
  18   10   28 1
  19   10   29 1
  20   10   30 1
  21   11   31 1
  22   11   32 1
  23   11   33 1
  24   12   34 1
  25   13   35 1
  26   14   15 1
  27   14   22 1
  28   14   36 1
  29   14   37 1
  30   15   16 1
  31   16   17 1
  32   16   38 1
  33   16   39 1
  34   17   18 ar
  35   17   22 ar
  36   18   19 ar
  37   18   24 1
  38   19   20 ar
  39   19   40 1
  40   20   21 ar
  41   20   41 1
  42   21   22 ar
  43   21   23 1

#	End of record

