#	Name: ASD01815884
#	Creating user name:	WinNT
#	Creation time:	15. 06. 2019 19:34

#	Modifying user name:	WinNT
#	Modification time:	15. 06. 2019 19:34

#	Program:	/corina/corina34_cracker 3.40 0067  02.08.2006

@<TRIPOS>MOLECULE
ASD01815884
  51   56    0    0    0
SMALL
NO_CHARGES


@<TRIPOS>ATOM
   1 C1             0.1064     1.4783     0.3815 C.ar    
   2 C2             0.0862     0.0932     0.3728 C.ar    
   3 C3             1.2565    -0.6271     0.2341 C.ar    
   4 C4             2.4729     0.0371     0.1007 C.ar    
   5 C5             2.4904     1.4412     0.1094 C.ar    
   6 C6             1.3032     2.1568     0.2505 C.ar    
   7 N7             3.6500    -0.6796    -0.0383 N.pl3   
   8 C8             4.8508    -0.0942    -0.1700 C.2     
   9 C9             4.9914     1.2715    -0.1756 C.2     
  10 C10            3.7896     2.1248    -0.0333 C.2     
  11 C11            6.1080     2.2036    -0.2956 C.2     
  12 N12            5.5737     3.4420    -0.2263 N.am    
  13 N13            4.1876     3.3643    -0.0696 N.2     
  14 C14            6.3070     4.6375    -0.3005 C.2     
  15 O15            7.2876     1.9208    -0.4310 O.2     
  16 C16            3.5814    -2.1430    -0.0411 C.3     
  17 C17            3.4352    -2.6362    -1.4576 C.ar    
  18 C18            4.5548    -2.7854    -2.2553 C.ar    
  19 C19            4.4239    -3.2368    -3.5541 C.ar    
  20 C20            3.1667    -3.5414    -4.0583 C.ar    
  21 C21            2.0445    -3.3911    -3.2547 C.ar    
  22 C22            2.1823    -2.9442    -1.9551 C.ar    
  23 N23            3.0306    -3.9994    -5.3762 N.pl3   
  24 C24            1.8709    -4.3298    -5.9881 C.2     
  25 N25            7.6387     4.7407    -0.4508 N.2     
  26 C26            5.7976     5.8890    -0.2394 C.2     
  27 C27            7.9730     6.0021    -0.4793 C.2     
  28 F28            1.3218     3.5076     0.2582 F       
  29 F29            1.2210    -1.9776     0.2282 F       
  30 C30            2.1677    -4.7220    -7.2487 C.2     
  31 C31            3.5541    -4.6287    -7.4137 C.2     
  32 N32            4.0713    -4.1901    -6.2944 N.2     
  33 N33            6.8580     6.7521    -0.3507 N.pl3   
  34 C34            6.7922     8.2156    -0.3368 C.3     
  35 H35           -0.8163     2.0295     0.4866 H       
  36 H36           -0.8538    -0.4285     0.4758 H       
  37 H37            5.7293    -0.7137    -0.2740 H       
  38 H38            4.4945    -2.5503     0.3930 H       
  39 H39            2.7231    -2.4677     0.5471 H       
  40 H40            5.5325    -2.5483    -1.8626 H       
  41 H41            5.2986    -3.3524    -4.1769 H       
  42 H42            1.0652    -3.6269    -3.6443 H       
  43 H43            1.3097    -2.8270    -1.3296 H       
  44 H44            0.8849    -4.2886    -5.5494 H       
  45 H45            4.7576     6.1569    -0.1253 H       
  46 H46            8.9774     6.3834    -0.5901 H       
  47 H47            1.4596    -5.0493    -7.9956 H       
  48 H48            4.1024    -4.8722    -8.3117 H       
  49 H49            6.8871     8.5738     0.6882 H       
  50 H50            7.6042     8.6215    -0.9402 H       
  51 H51            5.8365     8.5402    -0.7483 H       
@<TRIPOS>BOND
   1    1    2 ar
   2    1    6 ar
   3    1   35 1
   4    2    3 ar
   5    2   36 1
   6    3    4 ar
   7    3   29 1
   8    4    5 ar
   9    4    7 1
  10    5    6 ar
  11    5   10 1
  12    6   28 1
  13    7    8 1
  14    7   16 1
  15    8    9 2
  16    8   37 1
  17    9   10 1
  18    9   11 1
  19   10   13 2
  20   11   12 am
  21   11   15 2
  22   12   13 1
  23   12   14 1
  24   14   25 1
  25   14   26 2
  26   16   17 1
  27   16   38 1
  28   16   39 1
  29   17   18 ar
  30   17   22 ar
  31   18   19 ar
  32   18   40 1
  33   19   20 ar
  34   19   41 1
  35   20   21 ar
  36   20   23 1
  37   21   22 ar
  38   21   42 1
  39   22   43 1
  40   23   24 1
  41   23   32 1
  42   24   30 2
  43   24   44 1
  44   25   27 2
  45   26   33 1
  46   26   45 1
  47   27   33 1
  48   27   46 1
  49   30   31 1
  50   30   47 1
  51   31   32 2
  52   31   48 1
  53   33   34 1
  54   34   49 1
  55   34   50 1
  56   34   51 1

#	End of record

