#	Name: ASD00170047
#	Creating user name:	WinNT
#	Creation time:	15. 06. 2019 18:31

#	Modifying user name:	WinNT
#	Modification time:	15. 06. 2019 18:31

#	Program:	/corina/corina34_cracker 3.40 0067  02.08.2006

@<TRIPOS>MOLECULE
ASD00170047
  45   48    0    0    0
SMALL
NO_CHARGES


@<TRIPOS>ATOM
   1 C1             3.3272     1.4448    -3.6823 C.ar    
   2 C2             3.3696     0.0603    -3.6922 C.ar    
   3 C3             3.5121    -0.6422    -2.5070 C.ar    
   4 C4             3.6130     0.0338    -1.3094 C.ar    
   5 C5             3.5713     1.4293    -1.2931 C.ar    
   6 C6             3.4271     2.1319    -2.4909 C.ar    
   7 Cl7            3.2432    -0.7977    -5.1960 Cl      
   8 C8             5.0076     4.3522    -0.1144 C.2     
   9 C9             3.7607     3.6201    -0.0080 C.2     
  10 C10            3.6785     2.1602    -0.0121 C.2     
  11 O11            3.6982     1.5462     1.0395 O.2     
  12 C12            4.8182     5.7080    -0.0803 C.2     
  13 S13            3.1120     6.0852     0.0746 S.3     
  14 C14            2.6630     4.4428     0.0978 C.2     
  15 N15            1.3658     3.9949     0.2074 N.pl3   
  16 C16            5.8657     6.6811    -0.1594 C.1     
  17 C17            6.7246     7.4789    -0.2242 C.1     
  18 C18            7.7721     8.4521    -0.3033 C.ar    
  19 C19            7.4687     9.8168    -0.2591 C.ar    
  20 C20            8.4830    10.7476    -0.3359 C.ar    
  21 C21            9.7985    10.3346    -0.4569 C.ar    
  22 C22           10.1069     8.9860    -0.5018 C.ar    
  23 C23            9.1045     8.0428    -0.4194 C.ar    
  24 C24            6.3330     3.7084    -0.2392 C.ar    
  25 C25            7.0847     3.8714    -1.4043 C.ar    
  26 C26            8.3205     3.2684    -1.5140 C.ar    
  27 C27            8.8152     2.5031    -0.4727 C.ar    
  28 C28            8.0753     2.3375     0.6848 C.ar    
  29 C29            6.8406     2.9397     0.8098 C.ar    
  30 H30            3.2201     1.9874    -4.6100 H       
  31 H31            3.5438    -1.7217    -2.5208 H       
  32 H32            3.7236    -0.5150    -0.3858 H       
  33 H33            3.3942     3.2113    -2.4844 H       
  34 H34            0.6451     4.6273     0.3543 H       
  35 H35            1.1726     3.0469     0.1379 H       
  36 H36            6.4426    10.1405    -0.1654 H       
  37 H37            8.2504    11.8017    -0.3019 H       
  38 H38           10.5885    11.0685    -0.5169 H       
  39 H39           11.1358     8.6717    -0.5967 H       
  40 H40            9.3471     6.9908    -0.4498 H       
  41 H41            6.6994     4.4679    -2.2179 H       
  42 H42            8.9031     3.3937    -2.4147 H       
  43 H43            9.7831     2.0326    -0.5640 H       
  44 H44            8.4671     1.7386     1.4936 H       
  45 H45            6.2660     2.8133     1.7155 H       
@<TRIPOS>BOND
   1    1    2 ar
   2    1    6 ar
   3    1   30 1
   4    2    3 ar
   5    2    7 1
   6    3    4 ar
   7    3   31 1
   8    4    5 ar
   9    4   32 1
  10    5    6 ar
  11    5   10 1
  12    6   33 1
  13    8   24 1
  14    8    9 1
  15    8   12 2
  16    9   10 1
  17    9   14 2
  18   10   11 2
  19   12   13 1
  20   12   16 1
  21   13   14 1
  22   14   15 1
  23   15   34 1
  24   15   35 1
  25   16   17 3
  26   17   18 1
  27   18   19 ar
  28   18   23 ar
  29   19   20 ar
  30   19   36 1
  31   20   21 ar
  32   20   37 1
  33   21   22 ar
  34   21   38 1
  35   22   23 ar
  36   22   39 1
  37   23   40 1
  38   24   25 ar
  39   24   29 ar
  40   25   26 ar
  41   25   41 1
  42   26   27 ar
  43   26   42 1
  44   27   28 ar
  45   27   43 1
  46   28   29 ar
  47   28   44 1
  48   29   45 1

#	End of record

