#	Name: ASD01911102
#	Creating user name:	WinNT
#	Creation time:	15. 06. 2019 19:57

#	Modifying user name:	WinNT
#	Modification time:	15. 06. 2019 19:57

#	Program:	/corina/corina34_cracker 3.40 0067  02.08.2006

@<TRIPOS>MOLECULE
ASD01911102
  45   48    0    0    0
SMALL
NO_CHARGES


@<TRIPOS>ATOM
   1 C1            -0.1528     1.0284    -0.1829 C.2     
   2 O2            -1.1059     1.7812    -0.2303 O.2     
   3 N3             1.0999     1.5234    -0.2307 N.am    
   4 C4             2.2603     0.6442    -0.0326 C.3     
   5 C5             3.1387     1.2297     1.0775 C.3     
   6 C6             3.4981     2.6759     0.7289 C.3     
   7 C7             2.2199     3.5120     0.6328 C.3     
   8 C8             1.3312     2.9514    -0.4879 C.3     
   9 O9             5.3161     0.2155     0.2512 O.3     
  10 N10            6.2086    -0.4874     0.6761 N.2     
  11 C11            5.9732    -0.8115     1.9178 C.2     
  12 N12            4.8059    -0.2332     2.2683 N.2     
  13 C13            4.3999     0.4145     1.2036 C.2     
  14 O14            6.7565    -1.5858     2.7091 O.3     
  15 C15            7.8484    -2.1703     2.1497 C.ar    
  16 C16            8.2179    -1.8526     0.8506 C.ar    
  17 C17            9.3282    -2.4482     0.2843 C.ar    
  18 C18           10.0709    -3.3606     1.0108 C.ar    
  19 C19            9.7046    -3.6793     2.3054 C.ar    
  20 C20            8.5990    -3.0815     2.8787 C.ar    
  21 C21           -0.3675    -0.4299    -0.0665 C.ar    
  22 C22           -1.4196    -0.9233     0.7061 C.ar    
  23 C23           -1.6156    -2.2873     0.8114 C.ar    
  24 C24           -0.7700    -3.1642     0.1517 C.ar    
  25 C25            0.2760    -2.6798    -0.6166 C.ar    
  26 C26            0.4778    -1.3176    -0.7335 C.ar    
  27 F27            1.0972    -3.5405    -1.2569 F       
  28 F28           -2.6335    -2.7665     1.5594 F       
  29 H29            1.9202    -0.3501     0.2567 H       
  30 H30            2.8336     0.5819    -0.9576 H       
  31 H31            2.5946     1.2075     2.0217 H       
  32 H32            4.1434     3.0870     1.5052 H       
  33 H33            4.0204     2.6998    -0.2275 H       
  34 H34            1.6844     3.4683     1.5812 H       
  35 H35            2.4780     4.5467     0.4075 H       
  36 H36            1.8303     3.0733    -1.4493 H       
  37 H37            0.3779     3.4798    -0.4991 H       
  38 H38            7.6377    -1.1406     0.2825 H       
  39 H39            9.6162    -2.2013    -0.7269 H       
  40 H40           10.9384    -3.8254     0.5661 H       
  41 H41           10.2860    -4.3928     2.8705 H       
  42 H42            8.3160    -3.3272     3.8916 H       
  43 H43           -2.0792    -0.2406     1.2211 H       
  44 H44           -0.9266    -4.2294     0.2370 H       
  45 H45            1.2908    -0.9409    -1.3364 H       
@<TRIPOS>BOND
   1    1    2 2
   2    1    3 am
   3    1   21 1
   4    3    4 1
   5    3    8 1
   6    4    5 1
   7    4   29 1
   8    4   30 1
   9    5    6 1
  10    5   13 1
  11    5   31 1
  12    6    7 1
  13    6   32 1
  14    6   33 1
  15    7    8 1
  16    7   34 1
  17    7   35 1
  18    8   36 1
  19    8   37 1
  20    9   10 1
  21    9   13 1
  22   10   11 2
  23   11   12 1
  24   11   14 1
  25   12   13 2
  26   14   15 1
  27   15   16 ar
  28   15   20 ar
  29   16   17 ar
  30   16   38 1
  31   17   18 ar
  32   17   39 1
  33   18   19 ar
  34   18   40 1
  35   19   20 ar
  36   19   41 1
  37   20   42 1
  38   21   22 ar
  39   21   26 ar
  40   22   23 ar
  41   22   43 1
  42   23   24 ar
  43   23   28 1
  44   24   25 ar
  45   24   44 1
  46   25   26 ar
  47   25   27 1
  48   26   45 1

#	End of record

