#	Name: ASD01240024
#	Creating user name:	WinNT
#	Creation time:	15. 06. 2019 19:15

#	Modifying user name:	WinNT
#	Modification time:	15. 06. 2019 19:15

#	Program:	/corina/corina34_cracker 3.40 0067  02.08.2006

@<TRIPOS>MOLECULE
ASD01240024
 130  132    0    0    0
SMALL
NO_CHARGES


@<TRIPOS>ATOM
   1 C1             0.0879     1.5730    -1.9654 C.3     
   2 C2             0.1118     0.0436    -2.0041 C.3     
   3 C3             1.5146     2.1014    -1.8036 C.3     
   4 C4             1.4906     3.6308    -1.7649 C.3     
   5 C5             2.9173     4.1592    -1.6031 C.3     
   6 C6             2.8934     5.6885    -1.5644 C.3     
   7 C7             4.3201     6.2170    -1.4026 C.3     
   8 C8             4.2961     7.7463    -1.3639 C.3     
   9 C9             5.7228     8.2748    -1.2021 C.3     
  10 C10            5.6989     9.8041    -1.1634 C.3     
  11 C11            7.1256    10.3326    -1.0016 C.3     
  12 C12            7.1016    11.8619    -0.9629 C.3     
  13 C13            8.5283    12.3904    -0.8011 C.3     
  14 C14            8.5044    13.9197    -0.7624 C.3     
  15 C15            9.9311    14.4482    -0.6006 C.3     
  16 C16            9.9075    15.9545    -0.5625 C.2     
  17 O17            8.8530    16.5473    -0.6557 O.2     
  18 S18           11.3687    16.8293    -0.3878 S.3     
  19 C19           10.7264    18.5214    -0.4088 C.3     
  20 C20           11.8858    19.5089    -0.2622 C.3     
  21 N21           11.3659    20.8784    -0.2792 N.am    
  22 C22           12.2114    21.9217    -0.1636 C.2     
  23 C23           11.6766    23.3305    -0.1811 C.3     
  24 C24           12.8361    24.3180    -0.0346 C.3     
  25 N25           12.3162    25.6875    -0.0516 N.am    
  26 C26           13.1616    26.7307     0.0640 C.2     
  27 C27           12.6425    28.1394    -0.0668 C.3     
  28 C28           13.2131    28.7776    -1.3349 C.3     
  29 C29           12.5816    30.1558    -1.5409 C.3     
  30 O30           13.1145    30.7518    -2.7253 O.3     
  31 P31           12.6723    32.2086    -3.2491 P.3     
  32 O32           13.5639    32.6127    -4.5273 O.3     
  33 P33           13.9207    34.0086    -5.2459 P.3     
  34 O34           15.1694    33.7968    -6.2398 O.3     
  35 C35           15.7921    34.8711    -6.9471 C.3     
  36 C36           16.9402    34.3240    -7.7977 C.3     
  37 C37           17.5544    35.4465    -8.6724 C.3     
  38 O38           13.4026    21.7266    -0.0456 O.2     
  39 O39           14.3403    26.5358     0.2732 O.2     
  40 O40           11.2159    28.1159    -0.1459 O.3     
  41 C41           14.7291    28.9273    -1.1928 C.3     
  42 C42           12.8992    27.8877    -2.5393 C.3     
  43 O43           11.1805    32.1808    -3.6499 O.co2   
  44 O44           12.8842    33.2465    -2.1245 O.co2   
  45 O45           12.6980    34.4999    -6.0525 O.co2   
  46 O46           14.2875    35.0601    -4.1750 O.co2   
  47 C47           18.9871    34.9157    -8.9221 C.3     
  48 C48           19.2166    33.8993    -7.7868 C.3     
  49 O49           18.0407    33.9093    -6.9602 O.3     
  50 O50           16.8397    35.5835    -9.9022 O.3     
  51 O51           19.0667    34.2704   -10.1947 O.3     
  52 N52           19.4190    32.5617    -8.3490 N.pl3   
  53 C53           20.4370    34.3095    -6.9602 C.3     
  54 C54           18.6529    31.4606    -8.1068 C.2     
  55 N55           19.1173    30.4414    -8.7696 N.2     
  56 C56           20.2078    30.8228    -9.4771 C.ar    
  57 C57           20.4110    32.1890    -9.2204 C.ar    
  58 C58           21.0980    30.1719   -10.3485 C.ar    
  59 N59           22.0901    30.8763   -10.8824 N.ar    
  60 C60           22.2441    32.1587   -10.6065 C.ar    
  61 N61           21.4277    32.8124    -9.8073 N.ar    
  62 N62           20.9450    28.8284   -10.6432 N.pl3   
  63 P63           16.1329    36.9565   -10.3573 P.3     
  64 O64           15.1475    37.4331    -9.2365 O.co2   
  65 O65           17.2262    38.0537   -10.5927 O.co2   
  66 O66           15.3372    36.7189   -11.6858 O.co2   
  67 H67           -0.3372     1.9533    -2.8942 H       
  68 H68           -0.5204     1.9057    -1.1244 H       
  69 H69            0.7201    -0.2891    -2.8451 H       
  70 H70            0.5370    -0.3367    -1.0752 H       
  71 H71           -0.9046    -0.3329    -2.1194 H       
  72 H72            1.9397     1.7211    -0.8747 H       
  73 H73            2.1229     1.7687    -2.6446 H       
  74 H74            1.0655     4.0111    -2.6937 H       
  75 H75            0.8823     3.9635    -0.9239 H       
  76 H76            3.3425     3.7789    -0.6742 H       
  77 H77            3.5256     3.8265    -2.4441 H       
  78 H78            2.4682     6.0689    -2.4932 H       
  79 H79            2.2851     6.0213    -0.7234 H       
  80 H80            4.7452     5.8367    -0.4737 H       
  81 H81            4.9284     5.8843    -2.2436 H       
  82 H82            3.8710     8.1266    -2.2928 H       
  83 H83            3.6878     8.0791    -0.5229 H       
  84 H84            6.1480     7.8945    -0.2732 H       
  85 H85            6.3311     7.9421    -2.0431 H       
  86 H86            5.2737    10.1844    -2.0923 H       
  87 H87            5.0906    10.1369    -0.3224 H       
  88 H88            7.5507     9.9523    -0.0727 H       
  89 H89            7.7339     9.9999    -1.8426 H       
  90 H90            6.6765    12.2422    -1.8918 H       
  91 H91            6.4933    12.1946    -0.1219 H       
  92 H92            8.9534    12.0101     0.1278 H       
  93 H93            9.1366    12.0577    -1.6421 H       
  94 H94            8.0792    14.3000    -1.6913 H       
  95 H95            7.8961    14.2524     0.0786 H       
  96 H96           10.3562    14.0679     0.3283 H       
  97 H97           10.5394    14.1155    -1.4416 H       
  98 H98           10.2115    18.7029    -1.3522 H       
  99 H99           10.0284    18.6554     0.4177 H       
 100 H100          12.4006    19.3274     0.6812 H       
 101 H101          12.5838    19.3749    -1.0886 H       
 102 H102          10.4132    21.0344    -0.3736 H       
 103 H103          11.1618    23.5120    -1.1246 H       
 104 H104          10.9786    23.4644     0.6453 H       
 105 H105          13.3509    24.1364     0.9089 H       
 106 H106          13.5340    24.1840    -0.8610 H       
 107 H107          11.3635    25.8435    -0.1460 H       
 108 H108          12.9487    28.7216     0.8023 H       
 109 H109          11.5015    30.0491    -1.6421 H       
 110 H110          12.8052    30.7898    -0.6829 H       
 111 H111          15.0590    35.3537    -7.5935 H       
 112 H112          16.1822    35.5976    -6.2343 H       
 113 H113          16.5956    33.4979    -8.4198 H       
 114 H114          17.5789    36.3921    -8.1308 H       
 115 H115          10.8718    27.6141    -0.8975 H       
 116 H116          15.1903    27.9402    -1.1605 H       
 117 H117          15.1207    29.4836    -2.0444 H       
 118 H118          14.9564    29.4648    -0.2721 H       
 119 H119          11.8192    27.7810    -2.6406 H       
 120 H120          13.3057    28.3423    -3.4427 H       
 121 H121          13.3492    26.9057    -2.3926 H       
 122 H122          19.7113    35.7279    -8.8592 H       
 123 H123          18.8729    34.8514   -10.9430 H       
 124 H124          20.2695    35.2971    -6.5304 H       
 125 H125          20.5932    33.5865    -6.1595 H       
 126 H126          21.3178    34.3370    -7.6017 H       
 127 H127          17.7883    31.4373    -7.4600 H       
 128 H128          23.0642    32.6936   -11.0623 H       
 129 H129          20.2168    28.3248   -10.2469 H       
 130 H130          21.5659    28.3904   -11.2462 H       
@<TRIPOS>BOND
   1    1    2 1
   2    1    3 1
   3    1   67 1
   4    1   68 1
   5    2   69 1
   6    2   70 1
   7    2   71 1
   8    3    4 1
   9    3   72 1
  10    3   73 1
  11    4    5 1
  12    4   74 1
  13    4   75 1
  14    5    6 1
  15    5   76 1
  16    5   77 1
  17    6    7 1
  18    6   78 1
  19    6   79 1
  20    7    8 1
  21    7   80 1
  22    7   81 1
  23    8    9 1
  24    8   82 1
  25    8   83 1
  26    9   10 1
  27    9   84 1
  28    9   85 1
  29   10   11 1
  30   10   86 1
  31   10   87 1
  32   11   12 1
  33   11   88 1
  34   11   89 1
  35   12   13 1
  36   12   90 1
  37   12   91 1
  38   13   14 1
  39   13   92 1
  40   13   93 1
  41   14   15 1
  42   14   94 1
  43   14   95 1
  44   15   16 1
  45   15   96 1
  46   15   97 1
  47   16   17 2
  48   16   18 1
  49   18   19 1
  50   19   20 1
  51   19   98 1
  52   19   99 1
  53   20   21 1
  54   20  100 1
  55   20  101 1
  56   21   22 am
  57   21  102 1
  58   22   23 1
  59   22   38 2
  60   23   24 1
  61   23  103 1
  62   23  104 1
  63   24   25 1
  64   24  105 1
  65   24  106 1
  66   25   26 am
  67   25  107 1
  68   26   27 1
  69   26   39 2
  70   27   28 1
  71   27   40 1
  72   27  108 1
  73   28   29 1
  74   28   41 1
  75   28   42 1
  76   29   30 1
  77   29  109 1
  78   29  110 1
  79   30   31 1
  80   31   32 1
  81   31   43 ar
  82   31   44 ar
  83   32   33 1
  84   33   34 1
  85   33   45 ar
  86   33   46 ar
  87   34   35 1
  88   35   36 1
  89   35  111 1
  90   35  112 1
  91   36   37 1
  92   36   49 1
  93   36  113 1
  94   37   47 1
  95   37   50 1
  96   37  114 1
  97   40  115 1
  98   41  116 1
  99   41  117 1
 100   41  118 1
 101   42  119 1
 102   42  120 1
 103   42  121 1
 104   47   48 1
 105   47   51 1
 106   47  122 1
 107   48   49 1
 108   48   52 1
 109   48   53 1
 110   50   63 1
 111   51  123 1
 112   52   54 1
 113   52   57 1
 114   53  124 1
 115   53  125 1
 116   53  126 1
 117   54   55 2
 118   54  127 1
 119   55   56 1
 120   56   57 ar
 121   56   58 ar
 122   57   61 ar
 123   58   59 ar
 124   58   62 1
 125   59   60 ar
 126   60   61 ar
 127   60  128 1
 128   62  129 1
 129   62  130 1
 130   63   64 ar
 131   63   65 ar
 132   63   66 ar

#	End of record

