#	Name: ASD05503063
#	Creating user name:	WinNT
#	Creation time:	15. 06. 2019 21:01

#	Modifying user name:	WinNT
#	Modification time:	15. 06. 2019 21:01

#	Program:	/corina/corina34_cracker 3.40 0067  02.08.2006

@<TRIPOS>MOLECULE
ASD05503063
  40   42    0    0    0
SMALL
NO_CHARGES


@<TRIPOS>ATOM
   1 C1            -0.1114     1.3743     0.0037 C.ar    
   2 C2            -0.0646    -0.0110    -0.0287 C.ar    
   3 C3            -1.2420    -0.7477    -0.0500 C.ar    
   4 C4            -2.4669    -0.0974    -0.0361 C.ar    
   5 C5            -2.5100     1.2911    -0.0007 C.ar    
   6 C6            -1.3380     2.0192     0.0153 C.ar    
   7 N7            -3.6541    -0.8362    -0.0582 N.am    
   8 C8            -4.7366    -0.3922     0.6108 C.2     
   9 C9            -6.0239    -1.1074     0.4907 C.ar    
  10 C10           -6.1226    -2.2432    -0.3148 C.ar    
  11 C11           -7.3274    -2.9065    -0.4222 C.ar    
  12 C12           -8.4372    -2.4485     0.2657 C.ar    
  13 C13           -8.3477    -1.3235     1.0656 C.ar    
  14 C14           -7.1467    -0.6533     1.1873 C.ar    
  15 Br15          -7.0257     0.8841     2.2816 Br      
  16 O16           -4.6538     0.5967     1.3131 O.2     
  17 C17            1.1459     2.2034     0.0207 C.3     
  18 C18            2.3309     1.3692     0.5065 C.3     
  19 C19            2.3909     0.0708    -0.3087 C.3     
  20 N20            1.1629    -0.6881    -0.0351 N.am    
  21 C21            1.2158    -2.0130     0.2060 C.2     
  22 C22            2.5202    -2.7537     0.0619 C.3     
  23 O23            0.2135    -2.6092     0.5391 O.2     
  24 H24           -1.2037    -1.8267    -0.0778 H       
  25 H25           -3.4620     1.8010     0.0114 H       
  26 H26           -1.3768     3.0981     0.0433 H       
  27 H27           -3.6984    -1.6681    -0.5550 H       
  28 H28           -5.2576    -2.6017    -0.8531 H       
  29 H29           -7.4047    -3.7853    -1.0452 H       
  30 H30           -9.3779    -2.9718     0.1775 H       
  31 H31           -9.2179    -0.9713     1.5995 H       
  32 H32            1.3507     2.5669    -0.9863 H       
  33 H33            1.0070     3.0538     0.6882 H       
  34 H34            3.2545     1.9309     0.3670 H       
  35 H35            2.2018     1.1317     1.5624 H       
  36 H36            2.4513     0.3047    -1.3716 H       
  37 H37            3.2607    -0.5137    -0.0086 H       
  38 H38            3.2553    -2.3318     0.7473 H       
  39 H39            2.3677    -3.8072     0.2962 H       
  40 H40            2.8812    -2.6578    -0.9621 H       
@<TRIPOS>BOND
   1    1    2 ar
   2    1   17 1
   3    1    6 ar
   4    2    3 ar
   5    2   20 1
   6    3    4 ar
   7    3   24 1
   8    4    5 ar
   9    4    7 1
  10    5    6 ar
  11    5   25 1
  12    6   26 1
  13    7    8 am
  14    7   27 1
  15    8    9 1
  16    8   16 2
  17    9   10 ar
  18    9   14 ar
  19   10   11 ar
  20   10   28 1
  21   11   12 ar
  22   11   29 1
  23   12   13 ar
  24   12   30 1
  25   13   14 ar
  26   13   31 1
  27   14   15 1
  28   17   18 1
  29   17   32 1
  30   17   33 1
  31   18   19 1
  32   18   34 1
  33   18   35 1
  34   19   20 1
  35   19   36 1
  36   19   37 1
  37   20   21 am
  38   21   22 1
  39   21   23 2
  40   22   38 1
  41   22   39 1
  42   22   40 1

#	End of record

