#	Name: ASD04590724
#	Creating user name:	WinNT
#	Creation time:	15. 06. 2019 20:51

#	Modifying user name:	WinNT
#	Modification time:	15. 06. 2019 20:51

#	Program:	/corina/corina34_cracker 3.40 0067  02.08.2006

@<TRIPOS>MOLECULE
ASD04590724
  79   85    0    0    0
SMALL
NO_CHARGES


@<TRIPOS>ATOM
   1 N1            -0.1031     1.1140     0.1026 N.ar    
   2 C2            -0.1113    -0.2064    -0.0277 C.ar    
   3 N3             1.0018    -0.9213    -0.0557 N.ar    
   4 C4             2.1886    -0.3304     0.0471 C.ar    
   5 C5             2.2311     1.0715     0.1863 C.ar    
   6 C6             1.0344     1.7806     0.2110 C.ar    
   7 N7             3.4765    -0.8058     0.0492 N.pl3   
   8 C8             4.3767     0.2368     0.1855 C.ar    
   9 C9             3.6504     1.4377     0.2759 C.ar    
  10 C10            5.7631     0.2956     0.2437 C.ar    
  11 N11            6.3797     1.4517     0.3805 N.ar    
  12 C12            5.7271     2.5974     0.4682 C.ar    
  13 C13            4.3498     2.6355     0.4194 C.ar    
  14 C14            3.8461    -2.2180    -0.0749 C.3     
  15 N15           -1.3278    -0.8595    -0.1378 N.pl3   
  16 C16           -2.5178    -0.1432    -0.0107 C.ar    
  17 N17           -2.4787     1.1355     0.3274 N.ar    
  18 C18           -3.5790     1.8519     0.4592 C.ar    
  19 C19           -4.8254     1.2828     0.2460 C.ar    
  20 C20           -4.9062    -0.0622    -0.1116 C.ar    
  21 C21           -3.7316    -0.7796    -0.2462 C.ar    
  22 N22           -5.9882     2.0493     0.3886 N.3     
  23 C23           -5.6648     3.4304     0.7686 C.3     
  24 C24           -6.9573     4.1975     1.0568 C.3     
  25 C25           -7.8414     4.1860    -0.1933 C.3     
  26 C26           -8.1235     2.7359    -0.5960 C.3     
  27 C27           -6.7972     2.0111    -0.8363 C.3     
  28 C28            3.2301    -3.0098     1.0803 C.3     
  29 C29            3.6161    -4.4846     0.9507 C.3     
  30 C30            3.0947    -5.0333    -0.3790 C.3     
  31 C31            3.7108    -4.2415    -1.5341 C.3     
  32 C32            3.3248    -2.7667    -1.4045 C.3     
  33 C33            3.4808    -6.5082    -0.5086 C.3     
  34 C34            1.5713    -4.8991    -0.4239 C.3     
  35 N35           -9.1086     4.8707     0.0953 N.3     
  36 C36           -8.8773     6.2832     0.4494 C.3     
  37 C37           -9.7018     7.1416    -0.5327 C.3     
  38 C38          -10.7962     6.1575    -1.0234 C.3     
  39 C39          -10.0157     4.8202    -1.0711 C.3     
  40 H40            1.0340     2.8554     0.3168 H       
  41 H41            6.3407    -0.6145     0.1767 H       
  42 H42            6.2810     3.5178     0.5797 H       
  43 H43            3.8225     3.5753     0.4913 H       
  44 H44            4.9314    -2.3136    -0.0429 H       
  45 H45           -1.3521    -1.8150    -0.3032 H       
  46 H46           -3.5079     2.8933     0.7365 H       
  47 H47           -5.8634    -0.5318    -0.2838 H       
  48 H48           -3.7571    -1.8234    -0.5224 H       
  49 H49           -5.0393     3.4245     1.6612 H       
  50 H50           -5.1287     3.9154    -0.0472 H       
  51 H51           -7.4871     3.7210     1.8816 H       
  52 H52           -6.7177     5.2269     1.3236 H       
  53 H53           -7.3275     4.6968    -1.0076 H       
  54 H54           -8.6716     2.2364     0.2028 H       
  55 H55           -8.7171     2.7209    -1.5101 H       
  56 H56           -6.2558     2.5028    -1.6445 H       
  57 H57           -6.9941     0.9744    -1.1093 H       
  58 H58            3.6015    -2.6189     2.0276 H       
  59 H59            2.1447    -2.9141     1.0483 H       
  60 H60            4.7014    -4.5803     0.9827 H       
  61 H61            3.1772    -5.0488     1.7736 H       
  62 H62            4.7961    -4.3372    -1.5021 H       
  63 H63            3.3394    -4.6324    -2.4814 H       
  64 H64            2.2394    -2.6710    -1.4365 H       
  65 H65            3.7637    -2.2026    -2.2275 H       
  66 H66            3.0419    -7.0723     0.3144 H       
  67 H67            3.1093    -6.8991    -1.4558 H       
  68 H68            4.5661    -6.6038    -0.4766 H       
  69 H69            1.2963    -3.8484    -0.3316 H       
  70 H70            1.1999    -5.2900    -1.3712 H       
  71 H71            1.1324    -5.4632     0.3991 H       
  72 H72           -9.2080     6.4682     1.4714 H       
  73 H73           -7.8182     6.5214     0.3512 H       
  74 H74          -10.1505     7.9917    -0.0186 H       
  75 H75           -9.0830     7.4762    -1.3653 H       
  76 H76          -11.6202     6.1035    -0.3119 H       
  77 H77          -11.1554     6.4355    -2.0142 H       
  78 H78           -9.4421     4.7484    -1.9951 H       
  79 H79          -10.7013     3.9774    -0.9825 H       
@<TRIPOS>BOND
   1    1    2 ar
   2    1    6 ar
   3    2    3 ar
   4    2   15 1
   5    3    4 ar
   6    4    5 ar
   7    4    7 1
   8    5    6 ar
   9    5    9 1
  10    6   40 1
  11    7    8 1
  12    7   14 1
  13    8    9 ar
  14    8   10 ar
  15    9   13 ar
  16   10   11 ar
  17   10   41 1
  18   11   12 ar
  19   12   13 ar
  20   12   42 1
  21   13   43 1
  22   14   28 1
  23   14   32 1
  24   14   44 1
  25   15   16 1
  26   15   45 1
  27   16   17 ar
  28   16   21 ar
  29   17   18 ar
  30   18   19 ar
  31   18   46 1
  32   19   20 ar
  33   19   22 1
  34   20   21 ar
  35   20   47 1
  36   21   48 1
  37   22   23 1
  38   22   27 1
  39   23   24 1
  40   23   49 1
  41   23   50 1
  42   24   25 1
  43   24   51 1
  44   24   52 1
  45   25   26 1
  46   25   35 1
  47   25   53 1
  48   26   27 1
  49   26   54 1
  50   26   55 1
  51   27   56 1
  52   27   57 1
  53   28   29 1
  54   28   58 1
  55   28   59 1
  56   29   30 1
  57   29   60 1
  58   29   61 1
  59   30   31 1
  60   30   33 1
  61   30   34 1
  62   31   32 1
  63   31   62 1
  64   31   63 1
  65   32   64 1
  66   32   65 1
  67   33   66 1
  68   33   67 1
  69   33   68 1
  70   34   69 1
  71   34   70 1
  72   34   71 1
  73   35   36 1
  74   35   39 1
  75   36   37 1
  76   36   72 1
  77   36   73 1
  78   37   38 1
  79   37   74 1
  80   37   75 1
  81   38   39 1
  82   38   76 1
  83   38   77 1
  84   39   78 1
  85   39   79 1

#	End of record

