#	Name: ASD01150796
#	Creating user name:	WinNT
#	Creation time:	15. 06. 2019 19:05

#	Modifying user name:	WinNT
#	Modification time:	15. 06. 2019 19:05

#	Program:	/corina/corina34_cracker 3.40 0067  02.08.2006

@<TRIPOS>MOLECULE
ASD01150796
  55   57    0    0    0
SMALL
NO_CHARGES


@<TRIPOS>ATOM
   1 N1            -0.0179     1.4659     0.0101 N.3     
   2 C2             0.0021    -0.0041     0.0020 C.3     
   3 C3             0.7497    -0.4921    -1.2417 C.3     
   4 O4             2.0659     0.0673    -1.2506 O.3     
   5 C5             2.0838     1.4973    -1.2437 C.3     
   6 C6             1.3496     2.0055    -0.0001 C.3     
   7 C7            -0.7765     1.9758     1.1601 C.3     
   8 C8             0.6633     5.2561     2.0254 C.ar    
   9 N9             0.4770     3.9478     1.9195 N.ar    
  10 C10           -0.5725     3.4644     1.2763 C.ar    
  11 C11           -1.4826     4.3436     0.7098 C.ar    
  12 C12           -1.2576     5.7051     0.8393 C.ar    
  13 N13           -0.1878     6.1229     1.4954 N.ar    
  14 C14           -2.2201     6.6974     0.2392 C.3     
  15 S15            2.0715     5.8567     2.8976 S.3     
  16 C16            1.8127     7.6396     2.7227 C.3     
  17 C17            2.9297     8.3794     3.4125 C.ar    
  18 C18            4.0748     8.7109     2.7126 C.ar    
  19 C19            5.0995     9.3895     3.3453 C.ar    
  20 C20            4.9790     9.7370     4.6779 C.ar    
  21 C21            3.8336     9.4063     5.3775 C.ar    
  22 C22            2.8070     8.7315     4.7436 C.ar    
  23 C23            6.0965    10.4759     5.3679 C.3     
  24 C24            6.3403    11.8096     4.6588 C.3     
  25 C25            5.7119    10.7363     6.8257 C.3     
  26 C26            7.3719     9.6321     5.3199 C.3     
  27 H27            0.5087    -0.3661     0.8967 H       
  28 H28           -1.0202    -0.3818    -0.0162 H       
  29 H29            0.8167    -1.5799    -1.2226 H       
  30 H30            0.2136    -0.1754    -2.1363 H       
  31 H31            3.1155     1.8483    -1.2262 H       
  32 H32            1.5864     1.8718    -2.1384 H       
  33 H33            1.3110     3.0946    -0.0198 H       
  34 H34            1.8778     1.6756     0.8946 H       
  35 H35           -1.8364     1.7643     1.0189 H       
  36 H36           -0.4270     1.4890     2.0706 H       
  37 H37           -2.3480     3.9755     0.1789 H       
  38 H38           -2.9914     6.9426     0.9693 H       
  39 H39           -1.6816     7.6034    -0.0386 H       
  40 H40           -2.6834     6.2639    -0.6471 H       
  41 H41            1.8011     7.9030     1.6651 H       
  42 H42            0.8604     7.9146     3.1761 H       
  43 H43            4.1689     8.4395     1.6715 H       
  44 H44            5.9944     9.6479     2.7987 H       
  45 H45            3.7395     9.6774     6.4187 H       
  46 H46            1.9106     8.4763     5.2893 H       
  47 H47            5.4317    12.4107     4.6930 H       
  48 H48            7.1486    12.3440     5.1579 H       
  49 H49            6.6143    11.6241     3.6202 H       
  50 H50            5.5382     9.7862     7.3309 H       
  51 H51            6.5202    11.2708     7.3248 H       
  52 H52            4.8033    11.3375     6.8600 H       
  53 H53            7.6459     9.4466     4.2813 H       
  54 H54            8.1802    10.1666     5.8190 H       
  55 H55            7.1982     8.6820     5.8251 H       
@<TRIPOS>BOND
   1    1    2 1
   2    1    6 1
   3    1    7 1
   4    2    3 1
   5    2   27 1
   6    2   28 1
   7    3    4 1
   8    3   29 1
   9    3   30 1
  10    4    5 1
  11    5    6 1
  12    5   31 1
  13    5   32 1
  14    6   33 1
  15    6   34 1
  16    7   10 1
  17    7   35 1
  18    7   36 1
  19    8    9 ar
  20    8   13 ar
  21    8   15 1
  22    9   10 ar
  23   10   11 ar
  24   11   12 ar
  25   11   37 1
  26   12   13 ar
  27   12   14 1
  28   14   38 1
  29   14   39 1
  30   14   40 1
  31   15   16 1
  32   16   17 1
  33   16   41 1
  34   16   42 1
  35   17   18 ar
  36   17   22 ar
  37   18   19 ar
  38   18   43 1
  39   19   20 ar
  40   19   44 1
  41   20   21 ar
  42   20   23 1
  43   21   22 ar
  44   21   45 1
  45   22   46 1
  46   23   24 1
  47   23   26 1
  48   23   25 1
  49   24   47 1
  50   24   48 1
  51   24   49 1
  52   25   50 1
  53   25   51 1
  54   25   52 1
  55   26   53 1
  56   26   54 1
  57   26   55 1

#	End of record

