#	Name: ASD09530026
#	Creating user name:	WinNT
#	Creation time:	15. 06. 2019 21:22

#	Modifying user name:	WinNT
#	Modification time:	15. 06. 2019 21:22

#	Program:	/corina/corina34_cracker 3.40 0067  02.08.2006

@<TRIPOS>MOLECULE
ASD09530026
  55   57    0    0    0
SMALL
NO_CHARGES


@<TRIPOS>ATOM
   1 C1            -0.0167     1.3781     0.0096 C.ar    
   2 C2             0.0021    -0.0041     0.0020 C.ar    
   3 C3             1.2084    -0.6789    -0.0132 C.ar    
   4 C4             2.3960     0.0285    -0.0212 C.ar    
   5 C5             2.3773     1.4107    -0.0145 C.ar    
   6 C6             1.1710     2.0855     0.0021 C.ar    
   7 C7            -1.2926    -0.7753     0.0108 C.3     
   8 C8             3.6720     2.1819    -0.0223 C.3     
   9 C9             4.0910     2.4457    -1.4456 C.2     
  10 N10            5.2273     3.1249    -1.6987 N.am    
  11 O11            3.4058     2.0467    -2.3634 O.2     
  12 C12            5.6347     3.3813    -3.0824 C.3     
  13 C13            6.5139     4.6044    -3.1288 C.ar    
  14 N14            7.1925     4.9586    -2.0553 N.ar    
  15 C15            7.9745     6.0200    -2.0470 C.ar    
  16 C16            8.1104     6.8079    -3.1805 C.ar    
  17 C17            7.4085     6.4630    -4.3313 C.ar    
  18 C18            6.6025     5.3367    -4.2981 C.ar    
  19 O19            8.9174     7.9014    -3.1671 O.3     
  20 C20            9.6026     8.1871    -1.9461 C.3     
  21 C21            6.4096     2.1756    -3.6177 C.3     
  22 C22           -1.7846    -1.0318    -1.4151 C.3     
  23 C23           -1.1429    -2.1021     0.7933 C.3     
  24 C24           -2.4766    -2.2139     1.5072 C.2     
  25 N25           -3.0553    -1.0770     1.4629 N.2     
  26 O26           -2.2965    -0.0918     0.7892 O.3     
  27 C27           -3.0258    -3.4571     2.1582 C.3     
  28 C28           10.4560     9.4447    -2.1223 C.3     
  29 F29            9.6318    10.5242    -2.4581 F       
  30 F30           11.1268     9.7244    -0.9270 F       
  31 F31           11.3895     9.2356    -3.1431 F       
  32 H32           -0.9592     1.9054     0.0170 H       
  33 H33            1.2231    -1.7588    -0.0184 H       
  34 H34            3.3386    -0.4987    -0.0324 H       
  35 H35            1.1563     3.1654     0.0069 H       
  36 H36            3.5333     3.1300     0.4972 H       
  37 H37            4.4441     1.6008     0.4820 H       
  38 H38            5.7753     3.4440    -0.9647 H       
  39 H39            4.7497     3.5465    -3.6970 H       
  40 H40            8.5145     6.2790    -1.1483 H       
  41 H41            7.4933     7.0563    -5.2297 H       
  42 H42            6.0432     5.0391    -5.1728 H       
  43 H43            8.8753     8.3501    -1.1508 H       
  44 H44           10.2447     7.3461    -1.6844 H       
  45 H45            7.2945     2.0104    -3.0031 H       
  46 H46            5.7736     1.2909    -3.5842 H       
  47 H47            6.7127     2.3663    -4.6472 H       
  48 H48           -1.0422    -1.6192    -1.9554 H       
  49 H49           -2.7267    -1.5790    -1.3815 H       
  50 H50           -1.9353    -0.0799    -1.9242 H       
  51 H51           -0.9975    -2.9397     0.1111 H       
  52 H52           -0.3242    -2.0386     1.5101 H       
  53 H53           -2.7067    -3.4930     3.1999 H       
  54 H54           -4.1147    -3.4407     2.1121 H       
  55 H55           -2.6531    -4.3369     1.6336 H       
@<TRIPOS>BOND
   1    1    2 ar
   2    1    6 ar
   3    1   32 1
   4    2    3 ar
   5    2    7 1
   6    3    4 ar
   7    3   33 1
   8    4    5 ar
   9    4   34 1
  10    5    6 ar
  11    5    8 1
  12    6   35 1
  13    7   22 1
  14    7   23 1
  15    7   26 1
  16    8    9 1
  17    8   36 1
  18    8   37 1
  19    9   10 am
  20    9   11 2
  21   10   12 1
  22   10   38 1
  23   12   13 1
  24   12   21 1
  25   12   39 1
  26   13   14 ar
  27   13   18 ar
  28   14   15 ar
  29   15   16 ar
  30   15   40 1
  31   16   17 ar
  32   16   19 1
  33   17   18 ar
  34   17   41 1
  35   18   42 1
  36   19   20 1
  37   20   28 1
  38   20   43 1
  39   20   44 1
  40   21   45 1
  41   21   46 1
  42   21   47 1
  43   22   48 1
  44   22   49 1
  45   22   50 1
  46   23   24 1
  47   23   51 1
  48   23   52 1
  49   24   25 2
  50   24   27 1
  51   25   26 1
  52   27   53 1
  53   27   54 1
  54   27   55 1
  55   28   29 1
  56   28   30 1
  57   28   31 1

#	End of record

