#	Name: ASD03090167
#	Creating user name:	WinNT
#	Creation time:	15. 06. 2019 20:28

#	Modifying user name:	WinNT
#	Modification time:	15. 06. 2019 20:28

#	Program:	/corina/corina34_cracker 3.40 0067  02.08.2006

@<TRIPOS>MOLECULE
ASD03090167
  45   48    0    0    0
SMALL
NO_CHARGES


@<TRIPOS>ATOM
   1 C1            -0.2666     1.1679    -0.7742 C.ar    
   2 N2             0.8405     1.6119    -1.3609 N.ar    
   3 C3             1.9874     0.9849    -1.2289 C.ar    
   4 C4             2.0865    -0.1809    -0.4618 C.ar    
   5 C5             0.9473    -0.6831     0.1726 C.ar    
   6 C6            -0.2483     0.0025     0.0139 C.ar    
   7 C7             3.3845    -0.8754    -0.3241 C.2     
   8 N8             6.8923    -1.0617    -0.4668 N.pl3   
   9 C9             7.3711     0.1480    -0.9805 C.ar    
  10 C10            6.6172     0.8573    -1.9063 C.ar    
  11 C11            7.0919     2.0519    -2.4120 C.ar    
  12 C12            8.3184     2.5420    -1.9968 C.ar    
  13 C13            9.0721     1.8360    -1.0740 C.ar    
  14 C14            8.5988     0.6444    -0.5612 C.ar    
  15 N15            4.5728    -0.3511    -0.5513 N.2     
  16 C16            5.5182    -1.2655    -0.3266 C.2     
  17 N17            4.9485    -2.3877     0.0476 N.2     
  18 N18            3.5631    -2.1587     0.0628 N.pl3   
  19 C19            2.5181    -3.1219     0.4182 C.3     
  20 C20            2.2619    -3.0604     1.9020 C.2     
  21 N21            1.3344    -3.8637     2.4596 N.am    
  22 F22            8.7809     3.7103    -2.4930 F       
  23 C23            1.0854    -3.8039     3.9021 C.3     
  24 O24            2.8904    -2.2880     2.5944 O.2     
  25 O25           -1.5003    -0.1964     0.4711 O.3     
  26 C26           -2.3277     0.7657     0.0299 C.2     
  27 C27           -1.6543     1.6411    -0.7322 C.2     
  28 C28           10.4072     2.3716    -0.6249 C.3     
  29 F29           10.9751     1.4908     0.3020 F       
  30 F30           11.2556     2.4960    -1.7303 F       
  31 F31           10.2304     3.6251    -0.0293 F       
  32 H32            2.8666     1.3748    -1.7202 H       
  33 H33            0.9962    -1.5813     0.7703 H       
  34 H34            7.5149    -1.7590    -0.2079 H       
  35 H35            5.6607     0.4750    -2.2309 H       
  36 H36            6.5059     2.6039    -3.1319 H       
  37 H37            9.1868     0.0945     0.1587 H       
  38 H38            1.6016    -2.8784    -0.1191 H       
  39 H39            2.8424    -4.1265     0.1469 H       
  40 H40            0.8318    -4.4814     1.9059 H       
  41 H41            0.3078    -4.5205     4.1666 H       
  42 H42            2.0019    -4.0473     4.4394 H       
  43 H43            0.7611    -2.7992     4.1734 H       
  44 H44           -3.3814     0.8275     0.2585 H       
  45 H45           -2.0554     2.5159    -1.2222 H       
@<TRIPOS>BOND
   1    1    2 ar
   2    1    6 ar
   3    1   27 1
   4    2    3 ar
   5    3    4 ar
   6    3   32 1
   7    4    5 ar
   8    4    7 1
   9    5    6 ar
  10    5   33 1
  11    6   25 1
  12    7   15 2
  13    7   18 1
  14    8    9 1
  15    8   16 1
  16    8   34 1
  17    9   10 ar
  18    9   14 ar
  19   10   11 ar
  20   10   35 1
  21   11   12 ar
  22   11   36 1
  23   12   13 ar
  24   12   22 1
  25   13   14 ar
  26   13   28 1
  27   14   37 1
  28   15   16 1
  29   16   17 2
  30   17   18 1
  31   18   19 1
  32   19   20 1
  33   19   38 1
  34   19   39 1
  35   20   21 am
  36   20   24 2
  37   21   23 1
  38   21   40 1
  39   23   41 1
  40   23   42 1
  41   23   43 1
  42   25   26 1
  43   26   27 2
  44   26   44 1
  45   27   45 1
  46   28   29 1
  47   28   30 1
  48   28   31 1

#	End of record

