#	Name: ASD03090889
#	Creating user name:	WinNT
#	Creation time:	15. 06. 2019 20:29

#	Modifying user name:	WinNT
#	Modification time:	15. 06. 2019 20:29

#	Program:	/corina/corina34_cracker 3.40 0067  02.08.2006

@<TRIPOS>MOLECULE
ASD03090889
  51   54    0    0    0
SMALL
NO_CHARGES


@<TRIPOS>ATOM
   1 N1            -0.0149     1.3421     0.1047 N.am    
   2 C2             0.0030    -0.0051     0.0718 C.2     
   3 O3            -1.0442    -0.6288     0.0747 O.2     
   4 N4             1.1687    -0.6570     0.0360 N.2     
   5 C5             1.2438     2.0918     0.1012 C.3     
   6 C6             1.6415     2.3764    -1.2872 C.1     
   7 C7             1.9587     2.6034    -2.3945 C.1     
   8 S8            -0.1729    -3.0447     0.0007 S.3     
   9 C9             1.1864    -1.9875     0.0035 C.2     
  10 N10            2.2793    -2.7909    -0.0347 N.pl3   
  11 C11            2.0560    -4.1338    -0.0638 C.2     
  12 C12            0.7906    -4.5309    -0.0520 C.2     
  13 O13            7.3995    -0.6836    -0.0827 O.3     
  14 C14            8.4608    -1.5246     0.3820 C.3     
  15 C15            8.2947    -2.9077    -0.2621 C.3     
  16 O16            7.0209    -3.4330     0.1269 O.3     
  17 C17            5.9571    -2.5888     0.0357 C.ar    
  18 C18            6.1456    -1.2151    -0.0670 C.ar    
  19 C19            4.6732    -3.1108     0.0454 C.ar    
  20 C20            3.5781    -2.2627    -0.0443 C.ar    
  21 C21            3.7693    -0.8916    -0.1440 C.ar    
  22 C22            5.0490    -0.3708    -0.1552 C.ar    
  23 F23            8.3509    -2.7894    -1.6549 F       
  24 F24            9.3119    -3.7598     0.1812 F       
  25 F25            9.6936    -0.9767     0.0118 F       
  26 F26            8.3948    -1.6417     1.7746 F       
  27 C27            0.2795    -5.9484    -0.0784 C.3     
  28 C28           -1.2932     2.0571     0.1378 C.3     
  29 C29           -1.7139     2.2678     1.5695 C.ar    
  30 C30           -1.3222     3.4090     2.2442 C.ar    
  31 C31           -1.7081     3.6022     3.5575 C.ar    
  32 C32           -2.4860     2.6546     4.1959 C.ar    
  33 C33           -2.8785     1.5138     3.5209 C.ar    
  34 C34           -2.4962     1.3226     2.2063 C.ar    
  35 H35            1.1096     3.0296     0.6402 H       
  36 H36            2.0199     1.5009     0.5876 H       
  37 H37            2.2424     2.8064    -3.3849 H       
  38 H38            2.8708    -4.8420    -0.0949 H       
  39 H39            4.5248    -4.1777     0.1237 H       
  40 H40            2.9174    -0.2314    -0.2128 H       
  41 H41            5.1956     0.6964    -0.2325 H       
  42 H42           -0.8103    -5.9421    -0.0605 H       
  43 H43            0.6251    -6.4423    -0.9865 H       
  44 H44            0.6541    -6.4860     0.7927 H       
  45 H45           -1.1819     3.0234    -0.3541 H       
  46 H46           -2.0512     1.4704    -0.3810 H       
  47 H47           -0.7144     4.1494     1.7454 H       
  48 H48           -1.4014     4.4935     4.0848 H       
  49 H49           -2.7869     2.8052     5.2221 H       
  50 H50           -3.4860     0.7733     4.0198 H       
  51 H51           -2.8060     0.4332     1.6778 H       
@<TRIPOS>BOND
   1    1    2 am
   2    1    5 1
   3    1   28 1
   4    2    3 2
   5    2    4 1
   6    4    9 2
   7    5    6 1
   8    5   35 1
   9    5   36 1
  10    6    7 3
  11    7   37 1
  12    8    9 1
  13    8   12 1
  14    9   10 1
  15   10   11 1
  16   10   20 1
  17   11   12 2
  18   11   38 1
  19   12   27 1
  20   13   14 1
  21   13   18 1
  22   14   15 1
  23   14   25 1
  24   14   26 1
  25   15   16 1
  26   15   23 1
  27   15   24 1
  28   16   17 1
  29   17   18 ar
  30   17   19 ar
  31   18   22 ar
  32   19   20 ar
  33   19   39 1
  34   20   21 ar
  35   21   22 ar
  36   21   40 1
  37   22   41 1
  38   27   42 1
  39   27   43 1
  40   27   44 1
  41   28   29 1
  42   28   45 1
  43   28   46 1
  44   29   30 ar
  45   29   34 ar
  46   30   31 ar
  47   30   47 1
  48   31   32 ar
  49   31   48 1
  50   32   33 ar
  51   32   49 1
  52   33   34 ar
  53   33   50 1
  54   34   51 1

#	End of record

