#	Name: ASD03330137
#	Creating user name:	WinNT
#	Creation time:	15. 06. 2019 20:36

#	Modifying user name:	WinNT
#	Modification time:	15. 06. 2019 20:36

#	Program:	/corina/corina34_cracker 3.40 0067  02.08.2006

@<TRIPOS>MOLECULE
ASD03330137
  36   38    0    0    0
SMALL
NO_CHARGES


@<TRIPOS>ATOM
   1 C1             0.0165     1.4069    -0.0097 C.2     
   2 C2            -0.0251     0.0438    -0.0095 C.2     
   3 C3             1.2096    -0.5700    -0.0038 C.2     
   4 C4             2.2754     0.3011     0.0007 C.2     
   5 S5             1.6857     1.9572    -0.0024 S.3     
   6 C6            -1.1561     2.2826    -0.0207 C.2     
   7 O7            -2.2738     1.8025    -0.0306 O.2     
   8 O8            -0.9975     3.6225    -0.0199 O.3     
   9 C9             1.3751    -2.0433    -0.0026 C.ar    
  10 C10            0.7753    -2.8130     0.9932 C.ar    
  11 C11            0.9313    -4.1834     0.9915 C.ar    
  12 C12            1.6846    -4.7964    -0.0004 C.ar    
  13 C13            2.2831    -4.0330    -0.9934 C.ar    
  14 C14            2.1263    -2.6628    -1.0007 C.ar    
  15 O15            1.8368    -6.1470     0.0010 O.3     
  16 C16            2.6245    -6.7121    -1.0488 C.3     
  17 C17            3.6968    -0.0949     0.0075 C.ar    
  18 C18            4.5874     0.4679    -0.9117 C.ar    
  19 C19            5.9157     0.0925    -0.8985 C.ar    
  20 C20            6.3656    -0.8381     0.0213 C.ar    
  21 C21            5.4894    -1.3989     0.9337 C.ar    
  22 C22            4.1603    -1.0296     0.9361 C.ar    
  23 Cl23           4.0242     1.6352    -2.0667 Cl      
  24 H24           -0.9517    -0.5109    -0.0131 H       
  25 H25           -1.8286     4.1169    -0.0276 H       
  26 H26            0.1894    -2.3366     1.7654 H       
  27 H27            0.4673    -4.7801     1.7628 H       
  28 H28            2.8688    -4.5130    -1.7634 H       
  29 H29            2.5882    -2.0699    -1.7762 H       
  30 H30            2.6653    -7.7948    -0.9299 H       
  31 H31            2.1750    -6.4690    -2.0116 H       
  32 H32            3.6342    -6.3036    -1.0057 H       
  33 H33            6.6052     0.5258    -1.6079 H       
  34 H34            7.4059    -1.1285     0.0270 H       
  35 H35            5.8480    -2.1246     1.6486 H       
  36 H36            3.4789    -1.4651     1.6519 H       
@<TRIPOS>BOND
   1    1    2 2
   2    1    5 1
   3    1    6 1
   4    2    3 1
   5    2   24 1
   6    3    4 2
   7    3    9 1
   8    4    5 1
   9    4   17 1
  10    6    7 2
  11    6    8 1
  12    8   25 1
  13    9   10 ar
  14    9   14 ar
  15   10   11 ar
  16   10   26 1
  17   11   12 ar
  18   11   27 1
  19   12   13 ar
  20   12   15 1
  21   13   14 ar
  22   13   28 1
  23   14   29 1
  24   15   16 1
  25   16   30 1
  26   16   31 1
  27   16   32 1
  28   17   18 ar
  29   17   22 ar
  30   18   19 ar
  31   18   23 1
  32   19   20 ar
  33   19   33 1
  34   20   21 ar
  35   20   34 1
  36   21   22 ar
  37   21   35 1
  38   22   36 1

#	End of record

