#	Name: ASD00310185
#	Creating user name:	WinNT
#	Creation time:	15. 06. 2019 18:33

#	Modifying user name:	WinNT
#	Modification time:	15. 06. 2019 18:33

#	Program:	/corina/corina34_cracker 3.40 0067  02.08.2006

@<TRIPOS>MOLECULE
ASD00310185
  40   42    0    0    0
SMALL
NO_CHARGES


@<TRIPOS>ATOM
   1 N1            -0.0163     1.3498     0.0095 N.pl3   
   2 C2             0.0021    -0.0041     0.0020 C.2     
   3 C3             1.2923    -0.4484    -0.0127 C.2     
   4 C4             2.1477     0.7537    -0.0144 C.ar    
   5 C5             3.5235     0.9578    -0.0268 C.ar    
   6 C6             4.0248     2.2535    -0.0251 C.ar    
   7 C7             3.1472     3.3435    -0.0108 C.ar    
   8 C8             1.7857     3.1434     0.0019 C.ar    
   9 C9             1.2700     1.8500    -0.0001 C.ar    
  10 C10            1.7402    -1.8454    -0.0240 C.2     
  11 O11            2.9286    -2.1028    -0.0364 O.2     
  12 O12            0.8341    -2.8441    -0.0208 O.3     
  13 C13            6.1232     3.0886     1.0520 C.ar    
  14 C14            5.4901     2.4815    -0.0378 C.ar    
  15 C15            6.2583     2.0928    -1.1381 C.ar    
  16 C16            7.6209     2.3251    -1.1054 C.ar    
  17 C17            8.1820     2.9336     0.0123 C.ar    
  18 N18            7.4294     3.2918     1.0425 N.ar    
  19 O19            5.3901     3.4766     2.1249 O.3     
  20 C20            6.0959     4.0904     3.2052 C.3     
  21 N21            9.5509     3.1689     0.0493 N.pl3   
  22 C22           10.3762     2.8778    -1.1255 C.3     
  23 C23           10.1688     3.7080     1.2633 C.3     
  24 Cl24           3.7807     4.9598    -0.0087 Cl      
  25 H25           -0.8206     1.8921     0.0164 H       
  26 H26           -0.8729    -0.6372     0.0073 H       
  27 H27            4.1979     0.1143    -0.0375 H       
  28 H28            1.1162     3.9908     0.0136 H       
  29 H29            1.1772    -3.7481    -0.0286 H       
  30 H30            5.7986     1.6215    -1.9942 H       
  31 H31            8.2434     2.0364    -1.9394 H       
  32 H32            5.3933     4.3515     3.9966 H       
  33 H33            6.8399     3.3955     3.5946 H       
  34 H34            6.5930     4.9925     2.8485 H       
  35 H35           10.4261     3.7610    -1.7624 H       
  36 H36           11.3813     2.6041    -0.8047 H       
  37 H37            9.9354     2.0518    -1.6836 H       
  38 H38            9.4033     3.8592     2.0243 H       
  39 H39           10.9156     3.0057     1.6336 H       
  40 H40           10.6474     4.6604     1.0352 H       
@<TRIPOS>BOND
   1    1    2 1
   2    1    9 1
   3    1   25 1
   4    2    3 2
   5    2   26 1
   6    3    4 1
   7    3   10 1
   8    4    5 ar
   9    4    9 ar
  10    5    6 ar
  11    5   27 1
  12    6    7 ar
  13    6   14 1
  14    7    8 ar
  15    7   24 1
  16    8    9 ar
  17    8   28 1
  18   10   11 2
  19   10   12 1
  20   12   29 1
  21   13   14 ar
  22   13   18 ar
  23   13   19 1
  24   14   15 ar
  25   15   16 ar
  26   15   30 1
  27   16   17 ar
  28   16   31 1
  29   17   18 ar
  30   17   21 1
  31   19   20 1
  32   20   32 1
  33   20   33 1
  34   20   34 1
  35   21   22 1
  36   21   23 1
  37   22   35 1
  38   22   36 1
  39   22   37 1
  40   23   38 1
  41   23   39 1
  42   23   40 1

#	End of record

