#	Name: ASD01915782
#	Creating user name:	WinNT
#	Creation time:	15. 06. 2019 20:06

#	Modifying user name:	WinNT
#	Modification time:	15. 06. 2019 20:06

#	Program:	/corina/corina34_cracker 3.40 0067  02.08.2006

@<TRIPOS>MOLECULE
ASD01915782
  48   51    0    0    0
SMALL
NO_CHARGES


@<TRIPOS>ATOM
   1 C1            -0.0086     1.4174     0.0999 C.2     
   2 N2             0.0286     0.0457    -0.0148 N.pl3   
   3 C3            -1.2048    -0.7397    -0.1431 C.3     
   4 C4            -2.3388    -0.0222     0.5871 C.3     
   5 N5            -2.4043     1.3988     0.2637 N.am    
   6 C6            -1.2833     2.1498     0.1398 C.2     
   7 C7             1.2863     1.8479     0.1723 C.2     
   8 C8             2.0605     0.6816     0.1073 C.2     
   9 N9             1.2440    -0.3409     0.0027 N.2     
  10 C10            3.5654     0.6134     0.1493 C.3     
  11 O11            4.0990     1.9338     0.2670 O.3     
  12 C12            5.4520     2.0502     0.3183 C.ar    
  13 O13           -1.3287     3.3630     0.0661 O.2     
  14 C14            6.0379     3.3025     0.4326 C.ar    
  15 C15            6.2496     0.9164     0.2623 C.ar    
  16 C16            7.6247     1.0373     0.3146 C.ar    
  17 C17            8.2063     2.2870     0.4227 C.ar    
  18 C18            7.4135     3.4181     0.4845 C.ar    
  19 C19           -3.6491     1.9979     0.0772 C.ar    
  20 N20           -4.2776     2.5384     1.1100 N.ar    
  21 C21           -4.2158     2.0270    -1.1927 C.ar    
  22 C22           -5.4543     2.6257    -1.3678 C.ar    
  23 C23           -6.0858     3.1766    -0.2642 C.ar    
  24 C24           -5.4612     3.1176     0.9755 C.ar    
  25 F25           -3.5671     1.4787    -2.2433 F       
  26 N26           -6.0882     3.6682     2.0888 N.pl3   
  27 C27           -7.4455     4.2075     1.9731 C.3     
  28 C28           -5.3913     3.7087     3.3768 C.3     
  29 H29           -1.4607    -0.8457    -1.1974 H       
  30 H30           -1.0556    -1.7259     0.2965 H       
  31 H31           -3.2849    -0.4896     0.3140 H       
  32 H32           -2.1912    -0.1324     1.6615 H       
  33 H33            1.6369     2.8657     0.2601 H       
  34 H34            3.8783     0.0173     1.0065 H       
  35 H35            3.9339     0.1530    -0.7675 H       
  36 H36            5.4191     4.1863     0.4805 H       
  37 H37            5.7957    -0.0600     0.1782 H       
  38 H38            8.2460     0.1550     0.2714 H       
  39 H39            9.2816     2.3795     0.4634 H       
  40 H40            7.8702     4.3932     0.5685 H       
  41 H41           -5.9165     2.6622    -2.3432 H       
  42 H42           -7.0509     3.6503    -0.3673 H       
  43 H43           -8.1687     3.4193     2.1827 H       
  44 H44           -7.5759     5.0197     2.6882 H       
  45 H45           -7.6017     4.5846     0.9625 H       
  46 H46           -4.4013     3.2656     3.2683 H       
  47 H47           -5.2921     4.7438     3.7039 H       
  48 H48           -5.9617     3.1470     4.1164 H       
@<TRIPOS>BOND
   1    1    2 1
   2    1    7 2
   3    1    6 1
   4    2    3 1
   5    2    9 1
   6    3    4 1
   7    3   29 1
   8    3   30 1
   9    4    5 1
  10    4   31 1
  11    4   32 1
  12    5    6 am
  13    5   19 1
  14    6   13 2
  15    7    8 1
  16    7   33 1
  17    8    9 2
  18    8   10 1
  19   10   11 1
  20   10   34 1
  21   10   35 1
  22   11   12 1
  23   12   14 ar
  24   12   15 ar
  25   14   18 ar
  26   14   36 1
  27   15   16 ar
  28   15   37 1
  29   16   17 ar
  30   16   38 1
  31   17   18 ar
  32   17   39 1
  33   18   40 1
  34   19   21 ar
  35   19   20 ar
  36   20   24 ar
  37   21   22 ar
  38   21   25 1
  39   22   23 ar
  40   22   41 1
  41   23   24 ar
  42   23   42 1
  43   24   26 1
  44   26   27 1
  45   26   28 1
  46   27   43 1
  47   27   44 1
  48   27   45 1
  49   28   46 1
  50   28   47 1
  51   28   48 1

#	End of record

