#	Name: ASD04882482
#	Creating user name:	WinNT
#	Creation time:	15. 06. 2019 20:54

#	Modifying user name:	WinNT
#	Modification time:	15. 06. 2019 20:54

#	Program:	/corina/corina34_cracker 3.40 0067  02.08.2006

@<TRIPOS>MOLECULE
ASD04882482
  80   85    0    0    0
SMALL
NO_CHARGES


@<TRIPOS>ATOM
   1 C1            -0.0215     1.4013    -0.0094 C.ar    
   2 C2            -0.0117     0.0037    -0.0051 C.ar    
   3 C3            -1.2095    -0.7018    -0.0165 C.ar    
   4 C4            -2.4098    -0.0266    -0.0315 C.ar    
   5 C5            -2.4268     1.3710    -0.0354 C.ar    
   6 C6            -1.2240     2.0827    -0.0192 C.ar    
   7 N7             1.1996    -0.6831     0.0100 N.3     
   8 C8             1.3065    -1.5360     1.2020 C.3     
   9 C9             1.3723    -1.4734    -1.2168 C.3     
  10 C10            2.7461    -2.1477    -1.1969 C.3     
  11 N11            2.8530    -3.0007    -0.0050 N.3     
  12 C12            2.6803    -2.2103     1.2219 C.3     
  13 C13           -3.7127     2.0940    -0.0514 C.2     
  14 O14           -3.7266     3.3099    -0.0548 O.2     
  15 N15           -4.8721     1.4068    -0.0624 N.am    
  16 N16            1.1863     2.1109     0.0021 N.am    
  17 C17            4.0680    -3.6895     0.0103 C.ar    
  18 C18            4.0807    -5.0784     0.0145 C.ar    
  19 C19            5.2839    -5.7564     0.0291 C.ar    
  20 C20            6.4749    -5.0542     0.0399 C.ar    
  21 C21            6.4659    -3.6711     0.0357 C.ar    
  22 C22            5.2666    -2.9870     0.0154 C.ar    
  23 C23            1.2294     3.3599     0.5068 C.2     
  24 C24            2.5092     4.0695     0.5995 C.2     
  25 O25            0.2059     3.8988     0.8856 O.2     
  26 C26            2.6935     5.3314     1.0877 C.2     
  27 C27            4.0665     5.6058     0.9887 C.2     
  28 C28            4.6527     4.5133     0.4513 C.2     
  29 O29            3.7118     3.5878     0.2228 O.3     
  30 C30            2.7831    -5.8446     0.0038 C.3     
  31 C31           -6.1490     2.1247    -0.0783 C.3     
  32 C32           -7.3004     1.1173    -0.0883 C.3     
  33 C33           -8.6340     1.8671    -0.1049 C.3     
  34 N34           -9.7365     0.9024    -0.1145 N.am    
  35 C35          -10.3447     0.3844     0.9816 C.2     
  36 C36          -10.3819     0.3308    -1.3307 C.3     
  37 C37          -11.8619     0.1858    -0.8232 C.3     
  38 C38          -11.4462    -0.5665     0.4915 C.3     
  39 O39          -10.0689     0.6278     2.1373 O.2     
  40 C40           -9.9337    -1.1645    -1.3373 C.3     
  41 C41          -10.6593    -1.7739    -0.1106 C.3     
  42 O42          -10.3544    -1.8087    -2.5415 O.3     
  43 O43           -9.7133    -2.2783     0.8342 O.3     
  44 H44           -1.1988    -1.7817    -0.0139 H       
  45 H45           -3.3386    -0.5775    -0.0406 H       
  46 H46           -1.2341     3.1627    -0.0218 H       
  47 H47            1.1878    -0.9260     2.0975 H       
  48 H48            0.5277    -2.2981     1.1748 H       
  49 H49            0.5943    -2.2348    -1.2714 H       
  50 H50            1.3016    -0.8178    -2.0847 H       
  51 H51            2.8648    -2.7577    -2.0924 H       
  52 H52            3.5249    -1.3856    -1.1697 H       
  53 H53            3.4584    -1.4489     1.2765 H       
  54 H54            2.7511    -2.8659     2.0898 H       
  55 H55           -4.8610     0.4369    -0.0597 H       
  56 H56            1.9917     1.7034    -0.3532 H       
  57 H57            5.2945    -6.8364     0.0324 H       
  58 H58            7.4144    -5.5868     0.0520 H       
  59 H59            7.3980    -3.1256     0.0445 H       
  60 H60            5.2603    -1.9070     0.0117 H       
  61 H61            1.9306     5.9908     1.4744 H       
  62 H62            4.5614     6.5185     1.2862 H       
  63 H63            5.7068     4.4031     0.2437 H       
  64 H64            2.4805    -6.0324    -1.0264 H       
  65 H65            2.9175    -6.7942     0.5218 H       
  66 H66            2.0126    -5.2615     0.5081 H       
  67 H67           -6.2237     2.7531     0.8093 H       
  68 H68           -6.2041     2.7483    -0.9706 H       
  69 H69           -7.2258     0.4890    -0.9758 H       
  70 H70           -7.2453     0.4937     0.8040 H       
  71 H71           -8.7087     2.4954     0.7826 H       
  72 H72           -8.6891     2.4907    -0.9972 H       
  73 H73          -10.2396     0.8888    -2.2562 H       
  74 H74          -12.3285     1.1496    -0.6196 H       
  75 H75          -12.4698    -0.4329    -1.4833 H       
  76 H76          -12.2421    -0.7956     1.2001 H       
  77 H77           -8.8525    -1.2401    -1.2219 H       
  78 H78          -11.3457    -2.5604    -0.4243 H       
  79 H79          -10.1019    -2.7404    -2.5980 H       
  80 H80           -9.1971    -3.0295     0.5111 H       
@<TRIPOS>BOND
   1    1    2 ar
   2    1   16 1
   3    1    6 ar
   4    2    3 ar
   5    2    7 1
   6    3    4 ar
   7    3   44 1
   8    4    5 ar
   9    4   45 1
  10    5    6 ar
  11    5   13 1
  12    6   46 1
  13    7    8 1
  14    7    9 1
  15    8   12 1
  16    8   47 1
  17    8   48 1
  18    9   10 1
  19    9   49 1
  20    9   50 1
  21   10   11 1
  22   10   51 1
  23   10   52 1
  24   11   12 1
  25   11   17 1
  26   12   53 1
  27   12   54 1
  28   13   14 2
  29   13   15 am
  30   15   31 1
  31   15   55 1
  32   16   23 am
  33   16   56 1
  34   17   18 ar
  35   17   22 ar
  36   18   19 ar
  37   18   30 1
  38   19   20 ar
  39   19   57 1
  40   20   21 ar
  41   20   58 1
  42   21   22 ar
  43   21   59 1
  44   22   60 1
  45   23   24 1
  46   23   25 2
  47   24   26 2
  48   24   29 1
  49   26   27 1
  50   26   61 1
  51   27   28 2
  52   27   62 1
  53   28   29 1
  54   28   63 1
  55   30   64 1
  56   30   65 1
  57   30   66 1
  58   31   32 1
  59   31   67 1
  60   31   68 1
  61   32   33 1
  62   32   69 1
  63   32   70 1
  64   33   34 1
  65   33   71 1
  66   33   72 1
  67   34   35 am
  68   34   36 1
  69   35   39 2
  70   35   38 1
  71   36   37 1
  72   36   40 1
  73   36   73 1
  74   37   38 1
  75   37   74 1
  76   37   75 1
  77   38   41 1
  78   38   76 1
  79   40   42 1
  80   40   41 1
  81   40   77 1
  82   41   43 1
  83   41   78 1
  84   42   79 1
  85   43   80 1

#	End of record

