#	Name: ASD08170436
#	Creating user name:	WinNT
#	Creation time:	15. 06. 2019 21:17

#	Modifying user name:	WinNT
#	Modification time:	15. 06. 2019 21:17

#	Program:	/corina/corina34_cracker 3.40 0067  02.08.2006

@<TRIPOS>MOLECULE
ASD08170436
  56   59    0    0    0
SMALL
NO_CHARGES


@<TRIPOS>ATOM
   1 N1             0.0781     1.0516     0.4983 N.2     
   2 C2             0.0632    -0.2285     0.2781 C.2     
   3 S3             1.6755    -0.8073     0.2959 S.3     
   4 C4             2.2396     0.8328     0.6175 C.2     
   5 N5             1.2000     1.6031     0.6740 N.2     
   6 C6             7.3276     1.9275     4.1097 C.2     
   7 S7             8.7435     0.8783     4.0334 S.3     
   8 C8             9.7422     2.2364     4.3377 C.2     
   9 N9             8.9891     3.2873     4.4624 N.2     
  10 N10            7.7421     3.1326     4.3402 N.2     
  11 N11           -1.0731    -1.0010     0.0640 N.am    
  12 C12           -2.2915    -0.4249     0.0742 C.2     
  13 O13           -2.3971     0.7703     0.2707 O.2     
  14 N14           -3.3928    -1.1736    -0.1333 N.am    
  15 C15           -4.6624    -0.5946    -0.0288 C.ar    
  16 C16           -4.8666     0.7144    -0.4450 C.ar    
  17 C17           -6.1209     1.2830    -0.3404 C.ar    
  18 C18           -7.1727     0.5505     0.1784 C.ar    
  19 C19           -6.9726    -0.7533     0.5937 C.ar    
  20 C20           -5.7221    -1.3297     0.4861 C.ar    
  21 N21           11.1293     2.2169     4.4355 N.am    
  22 C22           11.8038     3.3580     4.6792 C.2     
  23 O23           11.1996     4.4045     4.8136 O.2     
  24 N24           13.1481     3.3391     4.7740 N.am    
  25 C25           13.8554     4.5363     4.9307 C.ar    
  26 C26           13.3160     5.5694     5.6858 C.ar    
  27 C27           14.0165     6.7499     5.8385 C.ar    
  28 C28           15.2536     6.9038     5.2401 C.ar    
  29 C29           15.7935     5.8770     4.4876 C.ar    
  30 C30           15.1007     4.6918     4.3361 C.ar    
  31 C31            3.6736     1.2607     0.7951 C.3     
  32 C32            4.0556     1.1629     2.2734 C.3     
  33 C33            5.5115     1.5974     2.4538 C.3     
  34 C34            5.8935     1.4996     3.9321 C.3     
  35 H35           -0.9889    -1.9546    -0.0928 H       
  36 H36           -3.3053    -2.1138    -0.3551 H       
  37 H37           -4.0453     1.2873    -0.8496 H       
  38 H38           -6.2803     2.3010    -0.6639 H       
  39 H39           -8.1524     0.9976     0.2598 H       
  40 H40           -7.7961    -1.3228     0.9985 H       
  41 H41           -5.5675    -2.3494     0.8065 H       
  42 H42           11.6114     1.3820     4.3283 H       
  43 H43           13.6254     2.4956     4.7335 H       
  44 H44           12.3495     5.4501     6.1528 H       
  45 H45           13.5975     7.5537     6.4257 H       
  46 H46           15.7991     7.8281     5.3605 H       
  47 H47           16.7599     6.0003     4.0215 H       
  48 H48           15.5249     3.8885     3.7520 H       
  49 H49            4.3222     0.6101     0.2085 H       
  50 H50            3.7900     2.2904     0.4571 H       
  51 H51            3.4070     1.8135     2.8601 H       
  52 H52            3.9392     0.1333     2.6115 H       
  53 H53            6.1601     0.9468     1.8671 H       
  54 H54            5.6280     2.6271     2.1157 H       
  55 H55            5.7771     0.4699     4.2701 H       
  56 H56            5.2449     2.1502     4.5187 H       
@<TRIPOS>BOND
   1    1    2 2
   2    1    5 1
   3    2    3 1
   4    2   11 1
   5    3    4 1
   6    4    5 2
   7    4   31 1
   8    6    7 1
   9    6   34 1
  10    6   10 2
  11    7    8 1
  12    8    9 2
  13    8   21 1
  14    9   10 1
  15   11   12 am
  16   11   35 1
  17   12   13 2
  18   12   14 am
  19   14   15 1
  20   14   36 1
  21   15   16 ar
  22   15   20 ar
  23   16   17 ar
  24   16   37 1
  25   17   18 ar
  26   17   38 1
  27   18   19 ar
  28   18   39 1
  29   19   20 ar
  30   19   40 1
  31   20   41 1
  32   21   22 am
  33   21   42 1
  34   22   23 2
  35   22   24 am
  36   24   25 1
  37   24   43 1
  38   25   26 ar
  39   25   30 ar
  40   26   27 ar
  41   26   44 1
  42   27   28 ar
  43   27   45 1
  44   28   29 ar
  45   28   46 1
  46   29   30 ar
  47   29   47 1
  48   30   48 1
  49   31   32 1
  50   31   49 1
  51   31   50 1
  52   32   33 1
  53   32   51 1
  54   32   52 1
  55   33   34 1
  56   33   53 1
  57   33   54 1
  58   34   55 1
  59   34   56 1

#	End of record

