#	Name: ASD04220045
#	Creating user name:	WinNT
#	Creation time:	15. 06. 2019 20:48

#	Modifying user name:	WinNT
#	Modification time:	15. 06. 2019 20:48

#	Program:	/corina/corina34_cracker 3.40 0067  02.08.2006

@<TRIPOS>MOLECULE
ASD04220045
  82   86    0    0    0
SMALL
NO_CHARGES


@<TRIPOS>ATOM
   1 C1            -0.0168     1.3909     0.0097 C.ar    
   2 C2             0.0021    -0.0041     0.0020 C.ar    
   3 C3            -1.1845    -0.7121     0.0091 C.ar    
   4 C4            -2.3952    -0.0265     0.0243 C.ar    
   5 C5            -2.4171     1.3754     0.0325 C.ar    
   6 C6            -1.2170     2.0760     0.0306 C.ar    
   7 C7            -3.8128    -0.4423     0.0360 C.2     
   8 C8            -4.5353     0.7114     0.0498 C.2     
   9 O9            -3.7097     1.7642     0.0476 O.3     
  10 C10           -6.0401     0.7908     0.0647 C.3     
  11 O11           -6.5028     0.8080     1.4166 O.3     
  12 C12           -7.8479     0.8780     1.6082 C.ar    
  13 C13           -8.3675     0.8985     2.9028 C.ar    
  14 C14           -8.6982     0.9346     0.5205 C.ar    
  15 C15          -10.0728     1.0066     0.7243 C.ar    
  16 C16          -10.5979     1.0219     2.0242 C.ar    
  17 C17           -9.7321     0.9700     3.1099 C.ar    
  18 C18          -11.2435     1.0785    -0.1741 C.2     
  19 C19          -12.3318     1.1290     0.6421 C.2     
  20 O20          -11.9419     1.0953     1.9216 O.3     
  21 O21            1.1896    -0.6677    -0.0129 O.3     
  22 C22          -13.7621     1.2113     0.1745 C.3     
  23 C23          -11.2349     1.0930    -1.6430 C.2     
  24 O24          -11.2877     0.0477    -2.2616 O.2     
  25 C25           -4.3345    -1.8156     0.0327 C.2     
  26 O26           -4.5397    -2.3905     1.0841 O.2     
  27 C27            1.1347    -2.0956    -0.0200 C.3     
  28 C28            2.5351    -2.6521    -0.0364 C.2     
  29 N29            3.2235    -2.9277     1.0071 N.2     
  30 C30            4.4656    -3.4218     0.8362 C.ar    
  31 C31            4.8132    -3.5579    -0.5118 C.ar    
  32 S32            3.4507    -3.0211    -1.4914 S.3     
  33 C33            5.4099    -3.7996     1.8146 C.ar    
  34 C34            6.6286    -4.2840     1.4513 C.ar    
  35 C35            6.9694    -4.4174     0.1084 C.ar    
  36 C36            6.0644    -4.0557    -0.8702 C.ar    
  37 O37           -7.5248     0.8473     3.9692 O.3     
  38 C38           -8.1200     0.8718     5.2681 C.3     
  39 O39          -11.1684     2.2655    -2.3051 O.3     
  40 C40          -11.0849     3.6215    -4.3262 C.3     
  41 C41          -11.1640     2.2040    -3.7558 C.3     
  42 O42           -4.5856    -2.4384    -1.1364 O.3     
  43 C43           -5.3217    -4.3322    -2.4788 C.3     
  44 C44           -5.0997    -3.7944    -1.0637 C.3     
  45 O45            1.1546     2.0819     0.0022 O.3     
  46 C46            1.0667     3.5081     0.0107 C.3     
  47 O47            8.1909    -4.9025    -0.2393 O.3     
  48 S48            8.2335    -6.4154    -0.3996 S.o2    
  49 O49            9.6372    -6.7969    -0.4089 O.co2   
  50 O50            7.5224    -6.9779     0.7379 O.co2   
  51 O51            7.5761    -6.7223    -1.6605 O.co2   
  52 H52           -1.1722    -1.7920     0.0025 H       
  53 H53           -1.2222     3.1560     0.0372 H       
  54 H54           -6.3609     1.7017    -0.4407 H       
  55 H55           -6.4549    -0.0757    -0.4503 H       
  56 H56           -8.2980     0.9234    -0.4825 H       
  57 H57          -10.1258     0.9809     4.1155 H       
  58 H58          -14.1625     0.2051     0.0510 H       
  59 H59          -14.3553     1.7504     0.9131 H       
  60 H60          -13.8028     1.7381    -0.7789 H       
  61 H61            0.6158    -2.4438     0.8731 H       
  62 H62            0.5988    -2.4342    -0.9068 H       
  63 H63            5.1631    -3.7031     2.8616 H       
  64 H64            7.3393    -4.5677     2.2134 H       
  65 H65            6.3264    -4.1586    -1.9129 H       
  66 H66           -7.3386     0.8257     6.0267 H       
  67 H67           -8.6900     1.7930     5.3893 H       
  68 H68           -8.7852     0.0156     5.3792 H       
  69 H69          -11.9471     4.1973    -3.9895 H       
  70 H70          -10.1697     4.1019    -3.9801 H       
  71 H71          -11.0816     3.5754    -5.4152 H       
  72 H72          -10.3018     1.6283    -4.0924 H       
  73 H73          -12.0792     1.7237    -4.1019 H       
  74 H74           -6.0397    -3.6988    -2.9997 H       
  75 H75           -4.3758    -4.3308    -3.0205 H       
  76 H76           -5.7076    -5.3501    -2.4242 H       
  77 H77           -4.3817    -4.4278    -0.5428 H       
  78 H78           -6.0456    -3.7958    -0.5220 H       
  79 H79            2.0700     3.9341     0.0034 H       
  80 H80            0.5230     3.8439    -0.8723 H       
  81 H81            0.5400     3.8343     0.9075 H       
  82 Na82          14.6372     9.1973    11.0267 Du      
@<TRIPOS>BOND
   1    1    2 ar
   2    1   45 1
   3    1    6 ar
   4    2    3 ar
   5    2   21 1
   6    3    4 ar
   7    3   52 1
   8    4    5 ar
   9    4    7 1
  10    5    6 ar
  11    5    9 1
  12    6   53 1
  13    7    8 2
  14    7   25 1
  15    8    9 1
  16    8   10 1
  17   10   11 1
  18   10   54 1
  19   10   55 1
  20   11   12 1
  21   12   13 ar
  22   12   14 ar
  23   13   37 1
  24   13   17 ar
  25   14   15 ar
  26   14   56 1
  27   15   16 ar
  28   15   18 1
  29   16   17 ar
  30   16   20 1
  31   17   57 1
  32   18   19 2
  33   18   23 1
  34   19   20 1
  35   19   22 1
  36   21   27 1
  37   22   58 1
  38   22   59 1
  39   22   60 1
  40   23   24 2
  41   23   39 1
  42   25   26 2
  43   25   42 1
  44   27   28 1
  45   27   61 1
  46   27   62 1
  47   28   29 2
  48   28   32 1
  49   29   30 1
  50   30   31 ar
  51   30   33 ar
  52   31   32 1
  53   31   36 ar
  54   33   34 ar
  55   33   63 1
  56   34   35 ar
  57   34   64 1
  58   35   36 ar
  59   35   47 1
  60   36   65 1
  61   37   38 1
  62   38   66 1
  63   38   67 1
  64   38   68 1
  65   39   41 1
  66   40   41 1
  67   40   69 1
  68   40   70 1
  69   40   71 1
  70   41   72 1
  71   41   73 1
  72   42   44 1
  73   43   44 1
  74   43   74 1
  75   43   75 1
  76   43   76 1
  77   44   77 1
  78   44   78 1
  79   45   46 1
  80   46   79 1
  81   46   80 1
  82   46   81 1
  83   47   48 1
  84   48   49 ar
  85   48   50 ar
  86   48   51 ar

#	End of record

