#	Name: ASD01510057
#	Creating user name:	WinNT
#	Creation time:	15. 06. 2019 19:21

#	Modifying user name:	WinNT
#	Modification time:	15. 06. 2019 19:21

#	Program:	/corina/corina34_cracker 3.40 0067  02.08.2006

@<TRIPOS>MOLECULE
ASD01510057
  47   49    0    0    0
SMALL
NO_CHARGES


@<TRIPOS>ATOM
   1 C1             2.3574    -2.6598    -0.0319 C.2     
   2 C2             1.1965    -2.0101    -0.0205 C.2     
   3 C3            -0.0669    -2.7623    -0.0088 C.2     
   4 O4            -0.0506    -3.9783    -0.0095 O.2     
   5 N5            -1.2429    -2.1042     0.0026 N.am    
   6 C6            -2.4353    -2.8106    -0.0947 C.ar    
   7 C7            -3.6599    -2.1518     0.0238 C.ar    
   8 C8            -4.8213    -2.8946    -0.0795 C.ar    
   9 N9            -4.7392    -4.1999    -0.2864 N.ar    
  10 C10           -3.5617    -4.7995    -0.3949 C.ar    
  11 N11           -2.4261    -4.1219    -0.3072 N.ar    
  12 S12           -3.5053    -6.5391    -0.6694 S.3     
  13 C13           -5.2297    -6.8992    -0.7052 C.ar    
  14 C14           -5.9435    -6.8591    -1.9029 C.ar    
  15 O15           -5.3199    -6.5415    -3.0647 O.3     
  16 C16           -6.1218    -6.5225    -4.2473 C.3     
  17 N17           -7.2428    -7.1368    -1.8898 N.ar    
  18 C18           -7.8592    -7.4483    -0.7599 C.ar    
  19 N19           -7.2153    -7.4965     0.3962 N.ar    
  20 C20           -5.9137    -7.2371     0.4624 C.ar    
  21 O21           -5.2618    -7.2887     1.6507 O.3     
  22 C22           -6.0369    -7.6304     2.8016 C.3     
  23 N23           -9.2160    -7.7311    -0.7880 N.3     
  24 C24           -9.7167    -8.0531     0.5609 C.3     
  25 C25          -10.8663    -7.0706     0.8684 C.3     
  26 C26          -11.3282    -6.6205    -0.5425 C.3     
  27 C27           -9.9857    -6.5837    -1.3144 C.3     
  28 H28            3.2853    -2.1073    -0.0404 H       
  29 H29            2.3719    -3.7397    -0.0280 H       
  30 H30            1.1821    -0.9302    -0.0199 H       
  31 H31           -1.2569    -1.1373     0.0788 H       
  32 H32           -3.6995    -1.0858     0.1928 H       
  33 H33           -5.7853    -2.4154     0.0079 H       
  34 H34           -5.5016    -6.2545    -5.1027 H       
  35 H35           -6.5556    -7.5094    -4.4081 H       
  36 H36           -6.9200    -5.7889    -4.1333 H       
  37 H37           -5.3957    -7.6360     3.6829 H       
  38 H38           -6.8318    -6.8966     2.9352 H       
  39 H39           -6.4746    -8.6192     2.6644 H       
  40 H40          -10.0884    -9.0775     0.5837 H       
  41 H41           -8.9179    -7.9298     1.2922 H       
  42 H42          -11.6752    -7.5767     1.3955 H       
  43 H43          -10.5024    -6.2198     1.4445 H       
  44 H44          -12.0107    -7.3486    -0.9807 H       
  45 H45          -11.7852    -5.6315    -0.5067 H       
  46 H46           -9.4590    -5.6503    -1.1155 H       
  47 H47          -10.1594    -6.7020    -2.3839 H       
@<TRIPOS>BOND
   1    1    2 2
   2    1   28 1
   3    1   29 1
   4    2    3 1
   5    2   30 1
   6    3    4 2
   7    3    5 am
   8    5    6 1
   9    5   31 1
  10    6    7 ar
  11    6   11 ar
  12    7    8 ar
  13    7   32 1
  14    8    9 ar
  15    8   33 1
  16    9   10 ar
  17   10   11 ar
  18   10   12 1
  19   12   13 1
  20   13   14 ar
  21   13   20 ar
  22   14   15 1
  23   14   17 ar
  24   15   16 1
  25   16   34 1
  26   16   35 1
  27   16   36 1
  28   17   18 ar
  29   18   19 ar
  30   18   23 1
  31   19   20 ar
  32   20   21 1
  33   21   22 1
  34   22   37 1
  35   22   38 1
  36   22   39 1
  37   23   24 1
  38   23   27 1
  39   24   25 1
  40   24   40 1
  41   24   41 1
  42   25   26 1
  43   25   42 1
  44   25   43 1
  45   26   27 1
  46   26   44 1
  47   26   45 1
  48   27   46 1
  49   27   47 1

#	End of record

