#	Name: ASD04880279
#	Creating user name:	WinNT
#	Creation time:	15. 06. 2019 20:53

#	Modifying user name:	WinNT
#	Modification time:	15. 06. 2019 20:53

#	Program:	/corina/corina34_cracker 3.40 0067  02.08.2006

@<TRIPOS>MOLECULE
ASD04880279
  38   41    0    0    0
SMALL
NO_CHARGES


@<TRIPOS>ATOM
   1 C1            -0.0300     1.3530     0.3131 C.2     
   2 N2            -0.0147     0.0097     0.3542 N.am    
   3 C3             1.3791    -0.4478     0.3330 C.3     
   4 C4             2.2314     0.7958     0.2729 C.ar    
   5 C5             3.5931     1.0012     0.2324 C.ar    
   6 C6             4.1003     2.2850     0.1807 C.ar    
   7 C7             3.2318     3.3806     0.1689 C.ar    
   8 C8             1.8532     3.1770     0.2093 C.ar    
   9 C9             1.3480     1.8792     0.2618 C.ar    
  10 O10           -1.0351     2.0365     0.3128 O.2     
  11 N11            3.8214     7.0008     0.0453 N.am    
  12 N12            3.0690     5.8293     0.0993 N.2     
  13 C13            3.7739     4.7512     0.1142 C.2     
  14 C14            5.2426     5.1072     0.0669 C.3     
  15 C15            5.2499     6.6481     0.0203 C.3     
  16 C16            3.3223     8.2524     0.0150 C.2     
  17 C17            1.8632     8.4638    -0.0876 C.ar    
  18 C18            1.0108     7.3783    -0.2968 C.ar    
  19 C19           -0.3523     7.5833    -0.3913 C.ar    
  20 C20           -0.8720     8.8632    -0.2791 C.ar    
  21 C21           -0.0311     9.9415    -0.0718 C.ar    
  22 C22            1.3314     9.7490     0.0301 C.ar    
  23 O23            4.0725     9.2076     0.0721 O.2     
  24 F24           -1.1796     6.5346    -0.5938 F       
  25 H25           -0.7966    -0.5632     0.3921 H       
  26 H26            1.6022    -1.0113     1.2390 H       
  27 H27            1.5569    -1.0665    -0.5466 H       
  28 H28            4.2657     0.1563     0.2415 H       
  29 H29            5.1683     2.4426     0.1498 H       
  30 H30            1.1797     4.0213     0.2006 H       
  31 H31            5.7518     4.7493     0.9617 H       
  32 H32            5.7072     4.6955    -0.8291 H       
  33 H33            5.7163     7.0019    -0.8991 H       
  34 H34            5.7610     7.0558     0.8925 H       
  35 H35            1.4157     6.3810    -0.3850 H       
  36 H36           -1.9381     9.0192    -0.3542 H       
  37 H37           -0.4424    10.9364     0.0145 H       
  38 H38            1.9857    10.5919     0.1964 H       
@<TRIPOS>BOND
   1    1    2 am
   2    1    9 1
   3    1   10 2
   4    2    3 1
   5    2   25 1
   6    3    4 1
   7    3   26 1
   8    3   27 1
   9    4    5 ar
  10    4    9 ar
  11    5    6 ar
  12    5   28 1
  13    6    7 ar
  14    6   29 1
  15    7    8 ar
  16    7   13 1
  17    8    9 ar
  18    8   30 1
  19   11   12 1
  20   11   15 1
  21   11   16 am
  22   12   13 2
  23   13   14 1
  24   14   15 1
  25   14   31 1
  26   14   32 1
  27   15   33 1
  28   15   34 1
  29   16   17 1
  30   16   23 2
  31   17   18 ar
  32   17   22 ar
  33   18   19 ar
  34   18   35 1
  35   19   20 ar
  36   19   24 1
  37   20   21 ar
  38   20   36 1
  39   21   22 ar
  40   21   37 1
  41   22   38 1

#	End of record

