#	Name: ASD02562045
#	Creating user name:	WinNT
#	Creation time:	15. 06. 2019 20:25

#	Modifying user name:	WinNT
#	Modification time:	15. 06. 2019 20:25

#	Program:	/corina/corina34_cracker 3.40 0067  02.08.2006

@<TRIPOS>MOLECULE
ASD02562045
  43   46    0    0    0
SMALL
NO_CHARGES


@<TRIPOS>ATOM
   1 C1             0.1548     1.3722     1.2133 C.2     
   2 C2             0.1695    -0.0332     1.1609 C.2     
   3 C3             1.2934    -0.6901     0.8111 C.2     
   4 N4             2.4356    -0.0012     0.5022 N.pl3   
   5 C5             2.4513     1.3743     0.5442 C.2     
   6 C6             1.2799     2.0715     0.9091 C.2     
   7 C7             3.6844    -0.4111     0.1250 C.2     
   8 C8             4.4405     0.7280    -0.0564 C.2     
   9 N9             3.6601     1.7923     0.2067 N.2     
  10 N10            4.1118    -1.7285    -0.0433 N.3     
  11 C11            5.8629     0.7722    -0.4687 C.ar    
  12 C12            2.9883    -2.6665     0.0824 C.3     
  13 C13            3.3289    -3.9701    -0.6426 C.3     
  14 C14            2.1588    -4.9472    -0.5117 C.3     
  15 C15            1.9009    -5.2388     0.9679 C.3     
  16 C16            1.5604    -3.9352     1.6929 C.3     
  17 C17            2.7305    -2.9582     1.5620 C.3     
  18 C18            6.5118     1.9985    -0.6160 C.ar    
  19 C19            7.8377     2.0327    -1.0001 C.ar    
  20 C20            8.5218     0.8545    -1.2390 C.ar    
  21 C21            7.8831    -0.3645    -1.0950 C.ar    
  22 C22            6.5603    -0.4121    -0.7057 C.ar    
  23 Br23           5.5774     3.6101    -0.2909 Br      
  24 H24           -0.7492     1.8943     1.4900 H       
  25 H25           -0.7244    -0.5891     1.4024 H       
  26 H26            1.2931    -1.7694     0.7747 H       
  27 H27            1.2774     3.1509     0.9461 H       
  28 H28            4.5834    -1.8455    -0.9276 H       
  29 H29            2.0958    -2.2261    -0.3620 H       
  30 H30            3.5126    -3.7623    -1.6967 H       
  31 H31            4.2214    -4.4106    -0.1982 H       
  32 H32            1.2662    -4.5067    -0.9561 H       
  33 H33            2.4014    -5.8759    -1.0282 H       
  34 H34            1.0673    -5.9349     1.0612 H       
  35 H35            2.7935    -5.6793     1.4123 H       
  36 H36            0.6679    -3.4948     1.2485 H       
  37 H37            1.3767    -4.1430     2.7470 H       
  38 H38            3.6231    -3.3986     2.0064 H       
  39 H39            2.4879    -2.0295     2.0785 H       
  40 H40            8.3415     2.9812    -1.1145 H       
  41 H41            9.5586     0.8862    -1.5395 H       
  42 H42            8.4226    -1.2809    -1.2837 H       
  43 H43            6.0633    -1.3644    -0.5934 H       
@<TRIPOS>BOND
   1    1    2 1
   2    1    6 2
   3    1   24 1
   4    2    3 2
   5    2   25 1
   6    3    4 1
   7    3   26 1
   8    4    5 1
   9    4    7 1
  10    5    6 1
  11    5    9 2
  12    6   27 1
  13    7    8 2
  14    7   10 1
  15    8    9 1
  16    8   11 1
  17   10   12 1
  18   10   28 1
  19   11   18 ar
  20   11   22 ar
  21   12   13 1
  22   12   17 1
  23   12   29 1
  24   13   14 1
  25   13   30 1
  26   13   31 1
  27   14   15 1
  28   14   32 1
  29   14   33 1
  30   15   16 1
  31   15   34 1
  32   15   35 1
  33   16   17 1
  34   16   36 1
  35   16   37 1
  36   17   38 1
  37   17   39 1
  38   18   19 ar
  39   18   23 1
  40   19   20 ar
  41   19   40 1
  42   20   21 ar
  43   20   41 1
  44   21   22 ar
  45   21   42 1
  46   22   43 1

#	End of record

