#	Name: ASD01890009
#	Creating user name:	WinNT
#	Creation time:	15. 06. 2019 19:50

#	Modifying user name:	WinNT
#	Modification time:	15. 06. 2019 19:50

#	Program:	/corina/corina34_cracker 3.40 0067  02.08.2006

@<TRIPOS>MOLECULE
ASD01890009
  48   51    0    0    0
SMALL
NO_CHARGES


@<TRIPOS>ATOM
   1 C1            -0.8634    -0.2180    -1.0816 C.2     
   2 C2            -0.0695     0.1286     0.1515 C.3     
   3 C3             1.2898    -0.5715     0.0964 C.3     
   4 C4             2.1534    -0.1015     1.2687 C.3     
   5 O5            -0.3514    -0.8654    -1.9703 O.2     
   6 N6            -2.1440     0.1867    -1.1945 N.am    
   7 C7             2.4657     1.3639     1.1068 C.2     
   8 N8             3.0289     1.8947     0.0610 N.2     
   9 C9             3.1622     3.2336     0.2443 C.ar    
  10 C10            2.6316     3.5282     1.5118 C.ar    
  11 N11            2.1943     2.3249     2.0304 N.pl3   
  12 C12            3.6865     4.2652    -0.5386 C.ar    
  13 C13            3.6783     5.5572    -0.0616 C.ar    
  14 C14            3.1528     5.8425     1.1915 C.ar    
  15 C15            2.6313     4.8359     1.9760 C.ar    
  16 Cl16           4.3304     6.8387    -1.0344 Cl      
  17 C17            0.7248    -4.8020     0.3482 C.ar    
  18 C18            1.3439    -4.2445    -0.7687 C.ar    
  19 C19            1.5240    -2.8782    -0.8446 C.ar    
  20 C20            1.0908    -2.0627     0.1853 C.ar    
  21 C21            0.4761    -2.6108     1.2965 C.ar    
  22 C22            0.2909    -3.9758     1.3829 C.ar    
  23 C23            0.5229    -6.2697     0.4327 C.ar    
  24 C24           -0.0961    -6.8272     1.5496 C.ar    
  25 C25           -0.2813    -8.1929     1.6229 C.ar    
  26 C26            0.1467    -9.0079     0.5905 C.ar    
  27 C27            0.7623    -8.4598    -0.5203 C.ar    
  28 C28            0.9466    -7.0947    -0.6071 C.ar    
  29 H29            0.0791     1.2075     0.1966 H       
  30 H30           -0.6122    -0.2008     1.0375 H       
  31 H31            1.7869    -0.3266    -0.8422 H       
  32 H32            1.6137    -0.2570     2.2029 H       
  33 H33            3.0826    -0.6712     1.2868 H       
  34 H34           -2.5546     0.7010    -0.4819 H       
  35 H35           -2.6550    -0.0364    -1.9882 H       
  36 H36            1.7735     2.1901     2.8939 H       
  37 H37            4.0972     4.0502    -1.5140 H       
  38 H38            3.1526     6.8598     1.5541 H       
  39 H39            2.2238     5.0646     2.9497 H       
  40 H40            1.6825    -4.8803    -1.5733 H       
  41 H41            2.0037    -2.4450    -1.7098 H       
  42 H42            0.1401    -1.9695     2.0979 H       
  43 H43           -0.1899    -4.4027     2.2507 H       
  44 H44           -0.4301    -6.1918     2.3565 H       
  45 H45           -0.7610    -8.6261     2.4882 H       
  46 H46            0.0002   -10.0761     0.6522 H       
  47 H47            1.0949    -9.1008    -1.3234 H       
  48 H48            1.4226    -6.6673    -1.4773 H       
@<TRIPOS>BOND
   1    1    2 1
   2    1    5 2
   3    1    6 am
   4    2    3 1
   5    2   29 1
   6    2   30 1
   7    3    4 1
   8    3   20 1
   9    3   31 1
  10    4    7 1
  11    4   32 1
  12    4   33 1
  13    6   34 1
  14    6   35 1
  15    7    8 2
  16    7   11 1
  17    8    9 1
  18    9   10 ar
  19    9   12 ar
  20   10   11 1
  21   10   15 ar
  22   11   36 1
  23   12   13 ar
  24   12   37 1
  25   13   14 ar
  26   13   16 1
  27   14   15 ar
  28   14   38 1
  29   15   39 1
  30   17   18 ar
  31   17   22 ar
  32   17   23 1
  33   18   19 ar
  34   18   40 1
  35   19   20 ar
  36   19   41 1
  37   20   21 ar
  38   21   22 ar
  39   21   42 1
  40   22   43 1
  41   23   24 ar
  42   23   28 ar
  43   24   25 ar
  44   24   44 1
  45   25   26 ar
  46   25   45 1
  47   26   27 ar
  48   26   46 1
  49   27   28 ar
  50   27   47 1
  51   28   48 1

#	End of record

