#	Name: ASD03430611
#	Creating user name:	WinNT
#	Creation time:	15. 06. 2019 20:41

#	Modifying user name:	WinNT
#	Modification time:	15. 06. 2019 20:41

#	Program:	/corina/corina34_cracker 3.40 0067  02.08.2006

@<TRIPOS>MOLECULE
ASD03430611
  61   66    0    0    0
SMALL
NO_CHARGES


@<TRIPOS>ATOM
   1 N1            -0.0157     1.4932     0.4902 N.am    
   2 C2             0.0409     0.2263     0.9344 C.2     
   3 C3             1.4804    -0.0488     1.3139 C.3     
   4 C4             2.1944     1.2486     1.0120 C.ar    
   5 C5             3.5067     1.6460     1.1357 C.ar    
   6 C6             3.8770     2.9284     0.7700 C.ar    
   7 C7             2.9262     3.8060     0.2815 C.ar    
   8 C8             1.6106     3.4104     0.1566 C.ar    
   9 C9             1.2302     2.1206     0.5228 C.ar    
  10 O10           -0.8869    -0.5506     1.0164 O.2     
  11 C11            1.1509     0.5219     3.7273 C.ar    
  12 C12            1.5858    -0.3807     2.7801 C.ar    
  13 C13            2.1203    -1.5958     3.1826 C.ar    
  14 C14            2.2093    -1.8916     4.5324 C.ar    
  15 C15            1.7696    -0.9815     5.4835 C.ar    
  16 C16            1.8888    -1.3714     6.9337 C.3     
  17 C17            1.7835    -0.1403     7.8314 C.3     
  18 C18            0.5265     0.6423     7.4337 C.3     
  19 C19            0.7618     1.2660     6.0596 C.3     
  20 C20            1.2436     0.2265     5.0815 C.ar    
  21 O21            2.5540    -2.4914     2.2570 O.3     
  22 C22           -1.2434     2.1395     0.0197 C.3     
  23 C23           -0.9991     2.7578    -1.3327 C.ar    
  24 C24           -1.5150     4.0065    -1.6251 C.ar    
  25 C25           -1.2909     4.5737    -2.8657 C.ar    
  26 C26           -0.5505     3.8925    -3.8136 C.ar    
  27 C27           -0.0338     2.6442    -3.5208 C.ar    
  28 C28           -0.2542     2.0788    -2.2788 C.ar    
  29 C29           -2.3417     1.1132    -0.0882 C.ar    
  30 C30           -3.4804     1.2356     0.6859 C.ar    
  31 C31           -4.4879     0.2942     0.5870 C.ar    
  32 C32           -4.3568    -0.7692    -0.2864 C.ar    
  33 C33           -3.2185    -0.8911    -1.0612 C.ar    
  34 C34           -2.2129     0.0527    -0.9654 C.ar    
  35 H35            1.8871    -0.8585     0.7079 H       
  36 H36            4.2463     0.9579     1.5179 H       
  37 H37            4.9056     3.2431     0.8662 H       
  38 H38            3.2153     4.8068    -0.0034 H       
  39 H39            0.8740     4.1015    -0.2257 H       
  40 H40            0.7384     1.4694     3.4135 H       
  41 H41            2.6236    -2.8379     4.8475 H       
  42 H42            1.0898    -2.0689     7.1851 H       
  43 H43            2.8519    -1.8547     7.0979 H       
  44 H44            1.7081    -0.4512     8.8734 H       
  45 H45            2.6644     0.4877     7.6980 H       
  46 H46           -0.3277    -0.0333     7.3888 H       
  47 H47            0.3360     1.4274     8.1655 H       
  48 H48           -0.1711     1.6968     5.6959 H       
  49 H49            1.5109     2.0531     6.1457 H       
  50 H50            3.4846    -2.3879     2.0153 H       
  51 H51           -1.5392     2.9153     0.7259 H       
  52 H52           -2.0935     4.5388    -0.8845 H       
  53 H53           -1.6946     5.5490    -3.0944 H       
  54 H54           -0.3760     4.3353    -4.7831 H       
  55 H55            0.5444     2.1118    -4.2615 H       
  56 H56            0.1526     1.1052    -2.0487 H       
  57 H57           -3.5828     2.0664     1.3683 H       
  58 H58           -5.3772     0.3894     1.1923 H       
  59 H59           -5.1436    -1.5051    -0.3632 H       
  60 H60           -3.1159    -1.7221    -1.7433 H       
  61 H61           -1.3252    -0.0405    -1.5734 H       
@<TRIPOS>BOND
   1    1    2 am
   2    1    9 1
   3    1   22 1
   4    2    3 1
   5    2   10 2
   6    3    4 1
   7    3   12 1
   8    3   35 1
   9    4    5 ar
  10    4    9 ar
  11    5    6 ar
  12    5   36 1
  13    6    7 ar
  14    6   37 1
  15    7    8 ar
  16    7   38 1
  17    8    9 ar
  18    8   39 1
  19   11   12 ar
  20   11   20 ar
  21   11   40 1
  22   12   13 ar
  23   13   14 ar
  24   13   21 1
  25   14   15 ar
  26   14   41 1
  27   15   16 1
  28   15   20 ar
  29   16   17 1
  30   16   42 1
  31   16   43 1
  32   17   18 1
  33   17   44 1
  34   17   45 1
  35   18   19 1
  36   18   46 1
  37   18   47 1
  38   19   20 1
  39   19   48 1
  40   19   49 1
  41   21   50 1
  42   22   23 1
  43   22   29 1
  44   22   51 1
  45   23   24 ar
  46   23   28 ar
  47   24   25 ar
  48   24   52 1
  49   25   26 ar
  50   25   53 1
  51   26   27 ar
  52   26   54 1
  53   27   28 ar
  54   27   55 1
  55   28   56 1
  56   29   30 ar
  57   29   34 ar
  58   30   31 ar
  59   30   57 1
  60   31   32 ar
  61   31   58 1
  62   32   33 ar
  63   32   59 1
  64   33   34 ar
  65   33   60 1
  66   34   61 1

#	End of record

