#	Name: ASD01880161
#	Creating user name:	WinNT
#	Creation time:	15. 06. 2019 19:40

#	Modifying user name:	WinNT
#	Modification time:	15. 06. 2019 19:40

#	Program:	/corina/corina34_cracker 3.40 0067  02.08.2006

@<TRIPOS>MOLECULE
ASD01880161
  71   74    0    0    0
SMALL
NO_CHARGES


@<TRIPOS>ATOM
   1 C1            -0.7845    -0.7146     1.1426 C.ar    
   2 C2            -1.3430    -1.9454     0.8308 C.ar    
   3 C3            -2.6892    -2.0288     0.5069 C.ar    
   4 C4            -3.4707    -0.8925     0.4912 C.ar    
   5 C5            -2.9140     0.3472     0.8003 C.ar    
   6 C6            -1.5678     0.4208     1.1356 C.ar    
   7 O7            -0.5732    -3.0666     0.8421 O.3     
   8 C8            -1.2166    -4.2987     0.5104 C.3     
   9 C9            -0.1990    -5.4393     0.5761 C.3     
  10 C10           -0.8879    -6.7585     0.2210 C.3     
  11 C11            0.1297    -7.8991     0.2867 C.3     
  12 O12           -0.5137    -9.1312    -0.0450 O.3     
  13 C13            0.2551   -10.2509    -0.0337 C.ar    
  14 C14           -0.3082   -11.4812    -0.3465 C.ar    
  15 C15            0.4689   -12.6195    -0.3365 C.ar    
  16 C16            1.8234   -12.5347    -0.0115 C.ar    
  17 C17            2.3860   -11.2968     0.3024 C.ar    
  18 C18            1.6039   -10.1619     0.2852 C.ar    
  19 C19            2.6607   -13.7542     0.0008 C.2     
  20 N20            2.2635   -14.9793    -0.2730 N.2     
  21 N21            3.2433   -15.8031    -0.1697 N.2     
  22 N22            4.3195   -15.1809     0.1708 N.2     
  23 N23            3.9841   -13.8209     0.2905 N.pl3   
  24 C24            0.6775    -0.6187     1.4954 C.3     
  25 C25            1.4943    -0.3799     0.2239 C.3     
  26 C26            2.9786    -0.2825     0.5820 C.3     
  27 N27           -3.5086     1.6178     0.8336 N.3     
  28 C28           -2.6333     2.5062     1.6290 C.3     
  29 C29           -1.2392     1.8695     1.4372 C.3     
  30 C30           -4.8575     1.5529     1.4115 C.3     
  31 C31           -5.5801     2.8798     1.1702 C.3     
  32 C32           -5.5414     3.2177    -0.3215 C.3     
  33 C33           -7.0350     2.7589     1.6281 C.3     
  34 C34           -4.8866     3.9897     1.9627 C.3     
  35 H35           -3.1267    -2.9863     0.2659 H       
  36 H36           -4.5181    -0.9636     0.2380 H       
  37 H37           -2.0228    -4.4898     1.2187 H       
  38 H38           -1.6262    -4.2348    -0.4977 H       
  39 H39            0.6072    -5.2482    -0.1322 H       
  40 H40            0.2106    -5.5032     1.5842 H       
  41 H41           -1.6941    -6.9496     0.9293 H       
  42 H42           -1.2975    -6.6946    -0.7871 H       
  43 H43            0.9359    -7.7080    -0.4216 H       
  44 H44            0.5393    -7.9630     1.2948 H       
  45 H45           -1.3566   -11.5461    -0.5977 H       
  46 H46            0.0301   -13.5759    -0.5796 H       
  47 H47            3.4339   -11.2274     0.5544 H       
  48 H48            2.0387    -9.2035     0.5276 H       
  49 H49            4.5717   -13.0883     0.5331 H       
  50 H50            0.8308     0.2100     2.1867 H       
  51 H51            0.9997    -1.5480     1.9650 H       
  52 H52            1.3409    -1.2086    -0.4674 H       
  53 H53            1.1721     0.5494    -0.2458 H       
  54 H54            3.3008    -1.2119     1.0517 H       
  55 H55            3.5605    -0.1125    -0.3238 H       
  56 H56            3.1319     0.5461     1.2733 H       
  57 H57           -2.6538     3.5225     1.2355 H       
  58 H58           -2.9205     2.4916     2.6803 H       
  59 H59           -0.6495     1.9496     2.3504 H       
  60 H60           -0.7172     2.3292     0.5980 H       
  61 H61           -5.4161     0.7441     0.9404 H       
  62 H62           -4.7852     1.3683     2.4833 H       
  63 H63           -6.0355     2.4270    -0.8861 H       
  64 H64           -6.0562     4.1630    -0.4934 H       
  65 H65           -4.5050     3.3038    -0.6478 H       
  66 H66           -7.0626     2.5181     2.6909 H       
  67 H67           -7.5498     3.7041     1.4562 H       
  68 H68           -7.5291     1.9681     1.0635 H       
  69 H69           -3.9938     4.3143     1.4282 H       
  70 H70           -5.5673     4.8330     2.0788 H       
  71 H71           -4.6045     3.6124     2.9456 H       
@<TRIPOS>BOND
   1    1    2 ar
   2    1   24 1
   3    1    6 ar
   4    2    3 ar
   5    2    7 1
   6    3    4 ar
   7    3   35 1
   8    4    5 ar
   9    4   36 1
  10    5    6 ar
  11    5   27 1
  12    6   29 1
  13    7    8 1
  14    8    9 1
  15    8   37 1
  16    8   38 1
  17    9   10 1
  18    9   39 1
  19    9   40 1
  20   10   11 1
  21   10   41 1
  22   10   42 1
  23   11   12 1
  24   11   43 1
  25   11   44 1
  26   12   13 1
  27   13   14 ar
  28   13   18 ar
  29   14   15 ar
  30   14   45 1
  31   15   16 ar
  32   15   46 1
  33   16   17 ar
  34   16   19 1
  35   17   18 ar
  36   17   47 1
  37   18   48 1
  38   19   20 2
  39   19   23 1
  40   20   21 1
  41   21   22 2
  42   22   23 1
  43   23   49 1
  44   24   25 1
  45   24   50 1
  46   24   51 1
  47   25   26 1
  48   25   52 1
  49   25   53 1
  50   26   54 1
  51   26   55 1
  52   26   56 1
  53   27   28 1
  54   27   30 1
  55   28   29 1
  56   28   57 1
  57   28   58 1
  58   29   59 1
  59   29   60 1
  60   30   31 1
  61   30   61 1
  62   30   62 1
  63   31   32 1
  64   31   33 1
  65   31   34 1
  66   32   63 1
  67   32   64 1
  68   32   65 1
  69   33   66 1
  70   33   67 1
  71   33   68 1
  72   34   69 1
  73   34   70 1
  74   34   71 1

#	End of record

