#	Name: ASD01882219
#	Creating user name:	WinNT
#	Creation time:	15. 06. 2019 19:44

#	Modifying user name:	WinNT
#	Modification time:	15. 06. 2019 19:44

#	Program:	/corina/corina34_cracker 3.40 0067  02.08.2006

@<TRIPOS>MOLECULE
ASD01882219
  54   56    0    0    0
SMALL
NO_CHARGES


@<TRIPOS>ATOM
   1 C1             3.7268    -0.2912     2.8686 C.2     
   2 N2             3.9796    -1.4691     3.4232 N.2     
   3 C3             5.2262    -1.8414     3.7316 C.2     
   4 C4             6.3066    -0.9633     3.4629 C.2     
   5 C5             6.0367     0.2323     2.8984 C.2     
   6 N6             4.7437     0.5626     2.6035 N.pl3   
   7 O7             2.5239     0.2041     2.5041 O.3     
   8 C8             4.1996     1.7881     1.9943 C.3     
   9 C9             2.6841     1.5305     1.9328 C.3     
  10 O10            5.4331    -2.9315     4.2423 O.2     
  11 C11            1.9267     2.5669     2.7653 C.3     
  12 O12            0.5221     2.3238     2.6656 O.3     
  13 C13           -0.2993     3.1617     3.3512 C.ar    
  14 C14           -1.6742     2.9836     3.2990 C.ar    
  15 C15           -2.5070     3.8367     3.9969 C.ar    
  16 C16           -1.9714     4.8675     4.7469 C.ar    
  17 C17           -0.6015     5.0474     4.8001 C.ar    
  18 C18            0.2359     4.1932     4.1091 C.ar    
  19 C19           -2.8822     5.7967     5.5071 C.3     
  20 C20           -2.0434     6.8397     6.2482 C.3     
  21 C21           -2.9606     7.9315     6.8028 C.3     
  22 C22           -4.2222     7.2906     7.3848 C.3     
  23 C23           -2.2277     8.7040     7.9014 C.3     
  24 C24           -3.3494     8.8916     5.6768 C.3     
  25 C25           -3.8240     6.5012     4.5286 C.3     
  26 C26           -3.7040     4.9924     6.5165 C.3     
  27 H27            7.3209    -1.2445     3.7045 H       
  28 H28            6.8373     0.9240     2.6814 H       
  29 H29            4.4170     2.6545     2.6190 H       
  30 H30            4.6027     1.9280     0.9913 H       
  31 H31            2.3392     1.5446     0.8989 H       
  32 H32            2.2354     2.4914     3.8080 H       
  33 H33            2.1499     3.5663     2.3918 H       
  34 H34           -2.0930     2.1789     2.7131 H       
  35 H35           -3.5774     3.6987     3.9563 H       
  36 H36           -0.1856     5.8536     5.3861 H       
  37 H37            1.3061     4.3311     4.1549 H       
  38 H38           -1.5108     6.3607     7.0698 H       
  39 H39           -1.3248     7.2841     5.5595 H       
  40 H40           -3.9425     6.4538     8.0248 H       
  41 H41           -4.7679     8.0299     7.9711 H       
  42 H42           -4.8549     6.9316     6.5731 H       
  43 H43           -1.3289     9.1605     7.4868 H       
  44 H44           -2.8812     9.4817     8.2965 H       
  45 H45           -1.9508     8.0199     8.7036 H       
  46 H46           -4.3605     8.6649     5.3388 H       
  47 H47           -3.3104     9.9171     6.0441 H       
  48 H48           -2.6540     8.7769     4.8452 H       
  49 H49           -3.9672     5.8754     3.6477 H       
  50 H50           -4.7858     6.6748     5.0112 H       
  51 H51           -3.3900     7.4554     4.2298 H       
  52 H52           -3.0800     4.7391     7.3735 H       
  53 H53           -4.5542     5.5877     6.8493 H       
  54 H54           -4.0633     4.0774     6.0456 H       
@<TRIPOS>BOND
   1    1    2 2
   2    1    6 1
   3    1    7 1
   4    2    3 1
   5    3    4 1
   6    3   10 2
   7    4    5 2
   8    4   27 1
   9    5    6 1
  10    5   28 1
  11    6    8 1
  12    7    9 1
  13    8    9 1
  14    8   29 1
  15    8   30 1
  16    9   11 1
  17    9   31 1
  18   11   12 1
  19   11   32 1
  20   11   33 1
  21   12   13 1
  22   13   14 ar
  23   13   18 ar
  24   14   15 ar
  25   14   34 1
  26   15   16 ar
  27   15   35 1
  28   16   17 ar
  29   16   19 1
  30   17   18 ar
  31   17   36 1
  32   18   37 1
  33   19   20 1
  34   19   25 1
  35   19   26 1
  36   20   21 1
  37   20   38 1
  38   20   39 1
  39   21   22 1
  40   21   23 1
  41   21   24 1
  42   22   40 1
  43   22   41 1
  44   22   42 1
  45   23   43 1
  46   23   44 1
  47   23   45 1
  48   24   46 1
  49   24   47 1
  50   24   48 1
  51   25   49 1
  52   25   50 1
  53   25   51 1
  54   26   52 1
  55   26   53 1
  56   26   54 1

#	End of record

