#	Name: ASD03330774
#	Creating user name:	WinNT
#	Creation time:	15. 06. 2019 20:37

#	Modifying user name:	WinNT
#	Modification time:	15. 06. 2019 20:37

#	Program:	/corina/corina34_cracker 3.40 0067  02.08.2006

@<TRIPOS>MOLECULE
ASD03330774
  57   59    0    0    0
SMALL
NO_CHARGES


@<TRIPOS>ATOM
   1 C1            -0.0159     1.3548     0.0393 C.2     
   2 N2             0.0042    -0.0047     0.0504 N.pl3   
   3 C3             1.2780     1.7738    -0.0303 C.2     
   4 N4             2.0647     0.6762    -0.0780 N.2     
   5 C5             1.3084    -0.3957    -0.0360 C.2     
   6 C6             1.7895    -1.7935    -0.0751 C.ar    
   7 C7             1.7378     3.1736    -0.0507 C.2     
   8 O8             0.9285     4.0802    -0.0031 O.2     
   9 C9             3.5122     4.8409    -0.1423 C.3     
  10 N10            3.0551     3.4492    -0.1220 N.am    
  11 C11            4.8780     4.9192    -0.8275 C.3     
  12 C12            3.6291     5.3519     1.2706 C.2     
  13 O13            3.3573     4.6251     2.2027 O.2     
  14 C14           -1.1733    -0.8711     0.1521 C.3     
  15 C15           -2.2421    -0.3838    -0.8312 C.3     
  16 C16           -3.1085     0.6805    -0.1656 C.3     
  17 N17           -2.3245     1.4887     0.7703 N.3     
  18 C18           -1.2509     2.2171     0.0780 C.3     
  19 C19            2.7356    -2.1837    -1.0270 C.ar    
  20 C20            1.3053    -2.7269     0.8417 C.ar    
  21 C21            1.7575    -4.0295     0.8006 C.ar    
  22 C22            2.6907    -4.4129    -0.1480 C.ar    
  23 C23            3.1806    -3.4916    -1.0576 C.ar    
  24 C24           -3.1875     2.4110     1.5204 C.3     
  25 N25            4.0357     6.6165     1.4984 N.am    
  26 C26            4.7349     4.5187    -2.2972 C.3     
  27 C27            3.8591     5.5428    -3.0219 C.3     
  28 C28            6.1174     4.4762    -2.9512 C.3     
  29 Cl29           3.2545    -6.0543    -0.1916 Cl      
  30 F30            3.2135    -1.2847    -1.9151 F       
  31 H31            2.7949     5.4510    -0.6911 H       
  32 H32            3.7005     2.7261    -0.1599 H       
  33 H33            5.2584     5.9387    -0.7641 H       
  34 H34            5.5725     4.2407    -0.3320 H       
  35 H35           -0.8938    -1.8960    -0.0920 H       
  36 H36           -1.5677    -0.8321     1.1676 H       
  37 H37           -1.7585     0.0407    -1.7110 H       
  38 H38           -2.8676    -1.2241    -1.1325 H       
  39 H39           -3.5300     1.3298    -0.9329 H       
  40 H40           -3.9203     0.1939     0.3752 H       
  41 H41           -1.0335     3.1413     0.6133 H       
  42 H42           -1.5653     2.4492    -0.9395 H       
  43 H43            0.5777    -2.4301     1.5826 H       
  44 H44            1.3830    -4.7522     1.5105 H       
  45 H45            3.9082    -3.7965    -1.7951 H       
  46 H46           -3.9253     1.8404     2.0845 H       
  47 H47           -2.5797     2.9991     2.2081 H       
  48 H48           -3.6977     3.0777     0.8253 H       
  49 H49            4.2530     7.1978     0.7529 H       
  50 H50            4.1109     6.9454     2.4078 H       
  51 H51            4.2719     3.5340    -2.3621 H       
  52 H52            4.3221     6.5274    -2.9571 H       
  53 H53            3.7572     5.2574    -4.0690 H       
  54 H54            2.8742     5.5730    -2.5560 H       
  55 H55            6.7413     3.7466    -2.4349 H       
  56 H56            6.0155     4.1909    -3.9982 H       
  57 H57            6.5804     5.4609    -2.8863 H       
@<TRIPOS>BOND
   1    1    2 1
   2    1    3 2
   3    1   18 1
   4    2   14 1
   5    2    5 1
   6    3    4 1
   7    3    7 1
   8    4    5 2
   9    5    6 1
  10    6   20 ar
  11    6   19 ar
  12    7    8 2
  13    7   10 am
  14    9   10 1
  15    9   11 1
  16    9   12 1
  17    9   31 1
  18   10   32 1
  19   11   26 1
  20   11   33 1
  21   11   34 1
  22   12   13 2
  23   12   25 am
  24   14   15 1
  25   14   35 1
  26   14   36 1
  27   15   16 1
  28   15   37 1
  29   15   38 1
  30   16   17 1
  31   16   39 1
  32   16   40 1
  33   17   18 1
  34   17   24 1
  35   18   41 1
  36   18   42 1
  37   19   30 1
  38   19   23 ar
  39   20   21 ar
  40   20   43 1
  41   21   22 ar
  42   21   44 1
  43   22   23 ar
  44   22   29 1
  45   23   45 1
  46   24   46 1
  47   24   47 1
  48   24   48 1
  49   25   49 1
  50   25   50 1
  51   26   28 1
  52   26   27 1
  53   26   51 1
  54   27   52 1
  55   27   53 1
  56   27   54 1
  57   28   55 1
  58   28   56 1
  59   28   57 1

#	End of record

