#	Name: ASD08151059
#	Creating user name:	WinNT
#	Creation time:	15. 06. 2019 21:17

#	Modifying user name:	WinNT
#	Modification time:	15. 06. 2019 21:17

#	Program:	/corina/corina34_cracker 3.40 0067  02.08.2006

@<TRIPOS>MOLECULE
ASD08151059
  39   40    0    0    0
SMALL
NO_CHARGES


@<TRIPOS>ATOM
   1 C1            -0.0178     1.4648     0.0101 C.3     
   2 N2             0.0021    -0.0041     0.0020 N.3     
   3 N3             4.1463     2.5904    -2.3149 N.ar    
   4 N4             5.3507     3.0381    -2.3083 N.ar    
   5 C5             5.9624     3.4614    -1.2111 C.ar    
   6 C6             5.3230     3.4403    -0.0028 C.ar    
   7 C7             4.0017     2.9560     0.0252 C.ar    
   8 C8             3.2560     2.8922     1.2126 C.ar    
   9 C9             1.9783     2.4145     1.1871 C.ar    
  10 C10            1.3960     1.9864    -0.0006 C.ar    
  11 C11            2.0977     2.0326    -1.1923 C.ar    
  12 C12            3.4246     2.5233    -1.1958 C.ar    
  13 C13            1.4660     1.5735    -2.4512 C.ar    
  14 C14            1.2204     2.4800    -3.4820 C.ar    
  15 C15            0.6314     2.0454    -4.6541 C.ar    
  16 C16            0.2851     0.7120    -4.8046 C.ar    
  17 C17            0.5270    -0.1899    -3.7846 C.ar    
  18 C18            1.1201     0.2322    -2.6120 C.ar    
  19 F19            0.3924     2.9215    -5.6543 F       
  20 Cl20           3.9582     3.4190     2.7103 Cl      
  21 H21           -0.5450     1.8259    -0.8730 H       
  22 H22           -0.5280     1.8163     0.9069 H       
  23 H23            0.5405    -0.3627     0.7764 H       
  24 H24           -0.9349    -0.3784     0.0090 H       
  25 H25            6.9769     3.8265    -1.2722 H       
  26 H26            5.8134     3.7824     0.8966 H       
  27 H27            1.4101     2.3678     2.1044 H       
  28 H28            1.4897     3.5193    -3.3645 H       
  29 H29           -0.1758     0.3760    -5.7217 H       
  30 H30            0.2547    -1.2278    -3.9073 H       
  31 H31            1.3123    -0.4746    -1.8184 H       
  32 C32           13.1484    10.8148     8.8571 C.2     
  33 C33           13.1688     9.3079     8.8488 C.3     
  34 O34           14.1864    11.4331     8.8505 O.2     
  35 O35           11.9769    11.4701     8.8662 O.3     
  36 F36           14.4940     8.8596     8.8337 F       
  37 F37           12.5266     8.8265     9.9947 F       
  38 F38           12.5048     8.8388     7.7103 F       
  39 H39           12.0145    12.4363     8.8713 H       
@<TRIPOS>BOND
   1    1    2 1
   2    1   10 1
   3    1   21 1
   4    1   22 1
   5    2   23 1
   6    2   24 1
   7    3    4 ar
   8    3   12 ar
   9    4    5 ar
  10    5    6 ar
  11    5   25 1
  12    6    7 ar
  13    6   26 1
  14    7    8 ar
  15    7   12 ar
  16    8    9 ar
  17    8   20 1
  18    9   10 ar
  19    9   27 1
  20   10   11 ar
  21   11   12 ar
  22   11   13 1
  23   13   14 ar
  24   13   18 ar
  25   14   15 ar
  26   14   28 1
  27   15   16 ar
  28   15   19 1
  29   16   17 ar
  30   16   29 1
  31   17   18 ar
  32   17   30 1
  33   18   31 1
  34   32   33 1
  35   32   34 2
  36   32   35 1
  37   33   36 1
  38   33   37 1
  39   33   38 1
  40   35   39 1

#	End of record

