#	Name: ASD03090380
#	Creating user name:	WinNT
#	Creation time:	15. 06. 2019 20:28

#	Modifying user name:	WinNT
#	Modification time:	15. 06. 2019 20:28

#	Program:	/corina/corina34_cracker 3.40 0067  02.08.2006

@<TRIPOS>MOLECULE
ASD03090380
  37   39    0    0    0
SMALL
NO_CHARGES


@<TRIPOS>ATOM
   1 C1            -0.0186     1.5024     0.0154 C.2     
   2 C2             0.0014    -0.0045     0.0123 C.3     
   3 O3             1.0237     2.1227     0.0093 O.2     
   4 N4            -1.1946     2.1607     0.0195 N.am    
   5 N5             5.3310    -1.8124     0.2442 N.pl3   
   6 C6             5.5003    -1.8690     1.6008 C.2     
   7 C7             4.3723    -1.4853     2.2192 C.2     
   8 C8             3.4012    -1.1561     1.1731 C.ar    
   9 C9             2.0789    -0.7077     1.1826 C.ar    
  10 C10            1.4287    -0.4880     0.0013 C.ar    
  11 C11            2.0721    -0.7070    -1.2093 C.ar    
  12 C12            3.3761    -1.1496    -1.2418 C.ar    
  13 C13            4.0575    -1.3799    -0.0508 C.ar    
  14 C14           -1.2153     3.5574     0.1329 C.ar    
  15 C15           -2.1839     4.2939    -0.5363 C.ar    
  16 C16           -2.2048     5.6696    -0.4248 C.ar    
  17 C17           -1.2567     6.3175     0.3575 C.ar    
  18 C18           -0.2879     5.5802     1.0273 C.ar    
  19 C19           -0.2708     4.2041     0.9191 C.ar    
  20 S20           -1.2824     8.0736     0.4997 S.3     
  21 C21            0.1193     8.4145     1.5995 C.3     
  22 F22           -0.0833     7.7727     2.8260 F       
  23 F23            1.2978     7.9397     1.0139 F       
  24 H24           -0.5013    -0.3764     0.9052 H       
  25 H25           -0.5139    -0.3729    -0.8747 H       
  26 H26           -2.0266     1.6678    -0.0562 H       
  27 H27            6.0085    -2.0392    -0.4119 H       
  28 H28            6.4071    -2.1771     2.1001 H       
  29 H29            4.2113    -1.4299     3.2857 H       
  30 H30            1.5716    -0.5360     2.1205 H       
  31 H31            1.5449    -0.5288    -2.1348 H       
  32 H32            3.8679    -1.3174    -2.1885 H       
  33 H33           -2.9208     3.7903    -1.1443 H       
  34 H34           -2.9577     6.2424    -0.9458 H       
  35 H35            0.4492     6.0833     1.6355 H       
  36 H36            0.4798     3.6306     1.4427 H       
  37 H37            0.2013     9.4893     1.7611 H       
@<TRIPOS>BOND
   1    1    2 1
   2    1    3 2
   3    1    4 am
   4    2   10 1
   5    2   24 1
   6    2   25 1
   7    4   14 1
   8    4   26 1
   9    5    6 1
  10    5   13 1
  11    5   27 1
  12    6    7 2
  13    6   28 1
  14    7    8 1
  15    7   29 1
  16    8    9 ar
  17    8   13 ar
  18    9   10 ar
  19    9   30 1
  20   10   11 ar
  21   11   12 ar
  22   11   31 1
  23   12   13 ar
  24   12   32 1
  25   14   15 ar
  26   14   19 ar
  27   15   16 ar
  28   15   33 1
  29   16   17 ar
  30   16   34 1
  31   17   18 ar
  32   17   20 1
  33   18   19 ar
  34   18   35 1
  35   19   36 1
  36   20   21 1
  37   21   22 1
  38   21   23 1
  39   21   37 1

#	End of record

