#	Name: ASD01150334
#	Creating user name:	WinNT
#	Creation time:	15. 06. 2019 19:04

#	Modifying user name:	WinNT
#	Modification time:	15. 06. 2019 19:04

#	Program:	/corina/corina34_cracker 3.40 0067  02.08.2006

@<TRIPOS>MOLECULE
ASD01150334
  65   68    0    0    0
SMALL
NO_CHARGES


@<TRIPOS>ATOM
   1 N1            -0.0169     1.3926     0.0097 N.pl3   
   2 C2             0.0021    -0.0041     0.0020 C.2     
   3 C3            -1.3281    -0.4052     0.0134 C.2     
   4 N4            -2.0858     0.6950     0.0270 N.2     
   5 C5            -1.3234     1.7682     0.0302 C.2     
   6 C6             1.1390    -0.8368    -0.0140 C.2     
   7 C7             1.0965     2.2429     0.0036 C.ar    
   8 C8             1.3308     3.0746    -1.0833 C.ar    
   9 C9             2.4290     3.9121    -1.0861 C.ar    
  10 C10            3.2948     3.9229    -0.0079 C.ar    
  11 C11            3.0645     3.0954     1.0758 C.ar    
  12 C12            1.9648     2.2598     1.0870 C.ar    
  13 N13           -1.7777     3.0668     0.0433 N.3     
  14 C14           -3.2460     3.1108     0.0530 C.3     
  15 C15           -1.2213     3.8077     1.1832 C.3     
  16 O16            1.0070    -2.0475    -0.0192 O.2     
  17 O17            2.3748    -0.2923    -0.0237 O.3     
  18 C18            3.4818    -1.1958    -0.0398 C.3     
  19 C19            3.4081    -2.0704    -1.2931 C.3     
  20 C20            4.7889    -0.4008    -0.0489 C.3     
  21 C21            3.4335    -2.0838     1.2052 C.3     
  22 N22           -1.7881    -1.7165     0.0107 N.am    
  23 C23           -3.1126    -1.9660     0.0229 C.2     
  24 O24           -3.9047    -1.0440     0.0363 O.2     
  25 C25           -3.6016    -3.3599     0.0199 C.2     
  26 N26           -2.8513    -4.4467     0.0065 N.2     
  27 N27           -3.6071    -5.4885     0.0089 N.pl3   
  28 N28           -4.9462    -5.0768     0.0250 N.2     
  29 C29           -4.9482    -3.7644     0.0371 C.2     
  30 C30           -6.1580    -2.8661     0.0570 C.3     
  31 C31           -3.1631    -6.8176    -0.0031 C.ar    
  32 C32           -1.8029    -7.0966    -0.0186 C.ar    
  33 C33           -1.3684    -8.4076    -0.0299 C.ar    
  34 C34           -2.2864    -9.4418    -0.0262 C.ar    
  35 C35           -3.6416    -9.1672    -0.0111 C.ar    
  36 C36           -4.0823    -7.8583     0.0064 C.ar    
  37 H37            0.6551     3.0663    -1.9258 H       
  38 H38            2.6120     4.5589    -1.9314 H       
  39 H39            4.1529     4.5786    -0.0124 H       
  40 H40            3.7429     3.1056     1.9161 H       
  41 H41            1.7854     1.6138     1.9338 H       
  42 H42           -3.6189     2.6011     0.9414 H       
  43 H43           -3.5783     4.1488     0.0633 H       
  44 H44           -3.6302     2.6151    -0.8385 H       
  45 H45           -0.1336     3.8187     1.1134 H       
  46 H46           -1.5966     4.8310     1.1695 H       
  47 H47           -1.5209     3.3233     2.1125 H       
  48 H48            3.4424    -1.4378    -2.1801 H       
  49 H49            4.2524    -2.7596    -1.3054 H       
  50 H50            2.4768    -2.6368    -1.2866 H       
  51 H51            4.8414     0.2222     0.8440 H       
  52 H52            5.6333    -1.0900    -0.0612 H       
  53 H53            4.8233     0.2318    -0.9359 H       
  54 H54            2.5023    -2.6502     1.2117 H       
  55 H55            4.2779    -2.7730     1.1929 H       
  56 H56            3.4860    -1.4607     2.0981 H       
  57 H57           -1.1561    -2.4522    -0.0000 H       
  58 H58           -6.4401    -2.6593     1.0894 H       
  59 H59           -5.9238    -1.9300    -0.4501 H       
  60 H60           -6.9851    -3.3590    -0.4539 H       
  61 H61           -1.0855    -6.2894    -0.0222 H       
  62 H62           -0.3107    -8.6253    -0.0420 H       
  63 H63           -1.9442   -10.4661    -0.0354 H       
  64 H64           -4.3561    -9.9770    -0.0086 H       
  65 H65           -5.1408    -7.6445     0.0182 H       
@<TRIPOS>BOND
   1    1    2 1
   2    1    7 1
   3    1    5 1
   4    2    3 2
   5    2    6 1
   6    3    4 1
   7    3   22 1
   8    4    5 2
   9    5   13 1
  10    6   16 2
  11    6   17 1
  12    7    8 ar
  13    7   12 ar
  14    8    9 ar
  15    8   37 1
  16    9   10 ar
  17    9   38 1
  18   10   11 ar
  19   10   39 1
  20   11   12 ar
  21   11   40 1
  22   12   41 1
  23   13   14 1
  24   13   15 1
  25   14   42 1
  26   14   43 1
  27   14   44 1
  28   15   45 1
  29   15   46 1
  30   15   47 1
  31   17   18 1
  32   18   19 1
  33   18   20 1
  34   18   21 1
  35   19   48 1
  36   19   49 1
  37   19   50 1
  38   20   51 1
  39   20   52 1
  40   20   53 1
  41   21   54 1
  42   21   55 1
  43   21   56 1
  44   22   23 am
  45   22   57 1
  46   23   24 2
  47   23   25 1
  48   25   26 2
  49   25   29 1
  50   26   27 1
  51   27   28 1
  52   27   31 1
  53   28   29 2
  54   29   30 1
  55   30   58 1
  56   30   59 1
  57   30   60 1
  58   31   32 ar
  59   31   36 ar
  60   32   33 ar
  61   32   61 1
  62   33   34 ar
  63   33   62 1
  64   34   35 ar
  65   34   63 1
  66   35   36 ar
  67   35   64 1
  68   36   65 1

#	End of record

