#	Name: ASD09610053
#	Creating user name:	WinNT
#	Creation time:	15. 06. 2019 21:22

#	Modifying user name:	WinNT
#	Modification time:	15. 06. 2019 21:22

#	Program:	/corina/corina34_cracker 3.40 0067  02.08.2006

@<TRIPOS>MOLECULE
ASD09610053
  28   28    0    0    0
SMALL
NO_CHARGES


@<TRIPOS>ATOM
   1 C1            -0.2646     1.2840     0.1418 C.2     
   2 C2            -0.0731    -0.1600     0.0026 C.2     
   3 C3             1.2129    -0.6840    -0.1184 C.2     
   4 O4             0.6992     2.0168     0.2602 O.2     
   5 O5            -1.5098     1.8032     0.1334 O.3     
   6 C6             1.4209    -2.1430    -0.0814 C.ar    
   7 C7             2.2231    -2.7628    -1.0439 C.ar    
   8 C8             2.4134    -4.1280    -1.0025 C.ar    
   9 C9             1.8124    -4.8842    -0.0114 C.ar    
  10 C10            1.0167    -4.2776     0.9450 C.ar    
  11 C11            0.8215    -2.9127     0.9197 C.ar    
  12 C12           -1.2067    -1.0348    -0.0094 C.1     
  13 N13           -2.1061    -1.7288    -0.0189 N.1     
  14 N14            2.2815     0.1551    -0.2714 N.pl3   
  15 C15           -1.6225     3.2208     0.2738 C.3     
  16 C16           -3.0990     3.6206     0.2415 C.3     
  17 H17            2.6925    -2.1740    -1.8181 H       
  18 H18            3.0326    -4.6083    -1.7456 H       
  19 H19            1.9647    -5.9530     0.0158 H       
  20 H20            0.5510    -4.8742     1.7154 H       
  21 H21            0.2038    -2.4403     1.6691 H       
  22 H22            2.1516     1.1160    -0.2423 H       
  23 H23            3.1694    -0.2104    -0.4090 H       
  24 H24           -1.1836     3.5279     1.2231 H       
  25 H25           -1.0956     3.7101    -0.5454 H       
  26 H26           -3.5379     3.3135    -0.7078 H       
  27 H27           -3.6259     3.1313     1.0607 H       
  28 H28           -3.1850     4.7019     0.3486 H       
@<TRIPOS>BOND
   1    1    2 1
   2    1    4 2
   3    1    5 1
   4    2    3 2
   5    2   12 1
   6    3    6 1
   7    3   14 1
   8    5   15 1
   9    6    7 ar
  10    6   11 ar
  11    7    8 ar
  12    7   17 1
  13    8    9 ar
  14    8   18 1
  15    9   10 ar
  16    9   19 1
  17   10   11 ar
  18   10   20 1
  19   11   21 1
  20   12   13 3
  21   14   22 1
  22   14   23 1
  23   15   16 1
  24   15   24 1
  25   15   25 1
  26   16   26 1
  27   16   27 1
  28   16   28 1

#	End of record

