#	Name: ASD03092660
#	Creating user name:	WinNT
#	Creation time:	15. 06. 2019 20:32

#	Modifying user name:	WinNT
#	Modification time:	15. 06. 2019 20:32

#	Program:	/corina/corina34_cracker 3.40 0067  02.08.2006

@<TRIPOS>MOLECULE
ASD03092660
  41   43    0    0    0
SMALL
NO_CHARGES


@<TRIPOS>ATOM
   1 C1             0.8060    -0.4571     1.4058 C.3     
   2 O2             0.2197    -0.0391     0.1715 O.3     
   3 C3             0.6560    -0.6558    -0.9593 C.ar    
   4 C4             1.6239    -1.6462    -0.8793 C.ar    
   5 C5             2.0671    -2.2733    -2.0270 C.ar    
   6 C6             1.5436    -1.9121    -3.2616 C.ar    
   7 N7             1.9920    -2.5475    -4.4254 N.pl3   
   8 C8             2.3699    -3.8834    -4.3857 C.ar    
   9 N9             2.2015    -4.5999    -3.2792 N.ar    
  10 C10            2.5570    -5.8690    -3.2310 C.ar    
  11 N11            3.0913    -6.4857    -4.2630 N.ar    
  12 C12            3.2971    -5.8437    -5.4147 C.ar    
  13 C13            2.9295    -4.4984    -5.5130 C.ar    
  14 N14            3.1198    -3.7858    -6.7009 N.pl3   
  15 C15            3.9000    -6.5464    -6.5717 C.ar    
  16 C16            4.9793    -5.9814    -7.2489 C.ar    
  17 C17            5.5368    -6.6403    -8.3258 C.ar    
  18 C18            5.0275    -7.8597    -8.7348 C.ar    
  19 C19            3.9568    -8.4273    -8.0683 C.ar    
  20 C20            3.3929    -7.7804    -6.9846 C.ar    
  21 F21            2.3506    -8.3377    -6.3303 F       
  22 C22            5.6417    -8.5726    -9.9119 C.3     
  23 F23            6.6663    -9.4138    -9.4649 F       
  24 F24            4.6623    -9.3337   -10.5590 F       
  25 F25            6.1666    -7.6319   -10.8046 F       
  26 C26            0.5746    -0.9204    -3.3407 C.ar    
  27 C27            0.1287    -0.2980    -2.1914 C.ar    
  28 H28            0.6133    -1.5190     1.5584 H       
  29 H29            1.8817    -0.2839     1.3742 H       
  30 H30            0.3703     0.1129     2.2265 H       
  31 H31            2.0312    -1.9267     0.0808 H       
  32 H32            2.8210    -3.0441    -1.9646 H       
  33 H33            2.0387    -2.0548    -5.2597 H       
  34 H34            2.4050    -6.4198    -2.3145 H       
  35 H35            2.9649    -2.8285    -6.7223 H       
  36 H36            3.4068    -4.2487    -7.5035 H       
  37 H37            5.3784    -5.0293    -6.9317 H       
  38 H38            6.3729    -6.2025    -8.8509 H       
  39 H39            3.5633    -9.3794    -8.3925 H       
  40 H40            0.1668    -0.6389    -4.3003 H       
  41 H41           -0.6281     0.4701    -2.2523 H       
@<TRIPOS>BOND
   1    1    2 1
   2    1   28 1
   3    1   29 1
   4    1   30 1
   5    2    3 1
   6    3   27 ar
   7    3    4 ar
   8    4    5 ar
   9    4   31 1
  10    5    6 ar
  11    5   32 1
  12    6    7 1
  13    6   26 ar
  14    7    8 1
  15    7   33 1
  16    8   13 ar
  17    8    9 ar
  18    9   10 ar
  19   10   11 ar
  20   10   34 1
  21   11   12 ar
  22   12   13 ar
  23   12   15 1
  24   13   14 1
  25   14   35 1
  26   14   36 1
  27   15   20 ar
  28   15   16 ar
  29   16   17 ar
  30   16   37 1
  31   17   18 ar
  32   17   38 1
  33   18   19 ar
  34   18   22 1
  35   19   20 ar
  36   19   39 1
  37   20   21 1
  38   22   23 1
  39   22   24 1
  40   22   25 1
  41   26   27 ar
  42   26   40 1
  43   27   41 1

#	End of record

