#	Name: ASD07301051
#	Creating user name:	WinNT
#	Creation time:	15. 06. 2019 21:10

#	Modifying user name:	WinNT
#	Modification time:	15. 06. 2019 21:10

#	Program:	/corina/corina34_cracker 3.40 0067  02.08.2006

@<TRIPOS>MOLECULE
ASD07301051
  36   36    0    0    0
SMALL
NO_CHARGES


@<TRIPOS>ATOM
   1 C1            -0.0896     1.5018     0.0553 C.3     
   2 C2            -0.0759    -0.0051     0.0519 C.2     
   3 C3             0.6624    -0.7327     1.0853 C.2     
   4 C4             0.6757    -2.1964     1.0820 C.2     
   5 C5             1.8083    -2.9382     0.4203 C.3     
   6 O6            -0.6772    -0.6154    -0.8077 O.2     
   7 O7            -0.2255    -2.8125     1.6121 O.2     
   8 N8             1.3182    -0.0671     2.0227 N.2     
   9 N9             1.8855    -0.7053     2.9897 N.pl3   
  10 C10            2.4859    -0.0006     4.0328 C.ar    
  11 C11            3.1963    -0.6810     5.0154 C.ar    
  12 C12            3.7897     0.0200     6.0461 C.ar    
  13 C13            3.6782     1.3977     6.1020 C.ar    
  14 C14            2.9720     2.0779     5.1268 C.ar    
  15 C15            2.3805     1.3842     4.0896 C.ar    
  16 C16            3.3180    -2.1819     4.9556 C.3     
  17 C17            4.7829    -2.5665     4.7386 C.3     
  18 C18            2.8213    -2.7866     6.2703 C.3     
  19 H19            0.9305     1.8746    -0.0381 H       
  20 H20           -0.6861     1.8617    -0.7830 H       
  21 H21           -0.5229     1.8591     0.9895 H       
  22 H22            2.4697    -2.2261    -0.0733 H       
  23 H23            2.3685    -3.4927     1.1732 H       
  24 H24            1.4061    -3.6323    -0.3176 H       
  25 H25            1.8944    -1.6752     2.9913 H       
  26 H26            4.3414    -0.5079     6.8098 H       
  27 H27            4.1434     1.9434     6.9096 H       
  28 H28            2.8865     3.1535     5.1742 H       
  29 H29            1.8333     1.9165     3.3257 H       
  30 H30            2.7163    -2.5626     4.1303 H       
  31 H31            4.8709    -3.6521     4.6954 H       
  32 H32            5.1367    -2.1357     3.8019 H       
  33 H33            5.3846    -2.1858     5.5639 H       
  34 H34            1.7777    -2.5125     6.4249 H       
  35 H35            2.9093    -3.8722     6.2271 H       
  36 H36            3.4230    -2.4058     7.0956 H       
@<TRIPOS>BOND
   1    1    2 1
   2    1   19 1
   3    1   20 1
   4    1   21 1
   5    2    3 1
   6    2    6 2
   7    3    4 1
   8    3    8 2
   9    4    5 1
  10    4    7 2
  11    5   22 1
  12    5   23 1
  13    5   24 1
  14    8    9 1
  15    9   10 1
  16    9   25 1
  17   10   11 ar
  18   10   15 ar
  19   11   12 ar
  20   11   16 1
  21   12   13 ar
  22   12   26 1
  23   13   14 ar
  24   13   27 1
  25   14   15 ar
  26   14   28 1
  27   15   29 1
  28   16   17 1
  29   16   18 1
  30   16   30 1
  31   17   31 1
  32   17   32 1
  33   17   33 1
  34   18   34 1
  35   18   35 1
  36   18   36 1

#	End of record

