#	Name: ASD01328005
#	Creating user name:	WinNT
#	Creation time:	15. 06. 2019 19:16

#	Modifying user name:	WinNT
#	Modification time:	15. 06. 2019 19:16

#	Program:	/corina/corina34_cracker 3.40 0067  02.08.2006

@<TRIPOS>MOLECULE
ASD01328005
  42   43    0    0    0
SMALL
NO_CHARGES


@<TRIPOS>ATOM
   1 N1            -0.0162     1.3436     0.0094 N.am    
   2 C2             1.2424     2.0932     0.0014 C.3     
   3 C3             1.0682     3.3747    -0.8179 C.3     
   4 O4             0.7634     3.0375    -2.1727 O.3     
   5 C5             2.3692     4.1819    -0.7716 C.3     
   6 O6             2.1922     5.4145    -1.4726 O.3     
   7 C7             2.7264     4.4703     0.6898 C.3     
   8 O8             3.9763     5.1605     0.7486 O.3     
   9 C9             2.8366     3.1466     1.4509 C.3     
  10 O10            1.6039     2.4319     1.3419 O.3     
  11 C11            3.1341     3.4288     2.9249 C.3     
  12 O12            3.3520     2.1947     3.6116 O.3     
  13 C13            0.0021    -0.0041     0.0020 C.2     
  14 S14            1.4961    -0.8398    -0.0167 S.2     
  15 N15           -2.3785    -0.0099     0.0247 N.2     
  16 N16           -1.1558    -0.6938     0.0094 N.am    
  17 C17           -3.4933    -0.6739     0.0318 C.2     
  18 C18           -4.7803     0.0460     0.0479 C.ar    
  19 C19           -5.9822    -0.6659     0.0556 C.ar    
  20 C20           -7.1823     0.0133     0.0712 C.ar    
  21 C21           -7.1976     1.3982     0.0788 C.ar    
  22 C22           -6.0096     2.1099     0.0708 C.ar    
  23 C23           -4.8026     1.4427     0.0615 C.ar    
  24 Cl24          -8.7126     2.2456     0.0978 Cl      
  25 H25           -0.8627     1.8170     0.0241 H       
  26 H26            2.0273     1.4814    -0.4432 H       
  27 H27            0.2554     3.9676    -0.3984 H       
  28 H28           -0.0472     2.5206    -2.2765 H       
  29 H29            3.1706     3.6089    -1.2379 H       
  30 H30            1.9571     5.3067    -2.4044 H       
  31 H31            1.9484     5.0868     1.1401 H       
  32 H32            3.9804     6.0073     0.2819 H       
  33 H33            3.6423     2.5485     1.0253 H       
  34 H34            4.0260     4.0504     3.0030 H       
  35 H35            2.2879     3.9495     3.3732 H       
  36 H36            3.5466     2.2975     4.5532 H       
  37 H37           -1.1427    -1.6637     0.0040 H       
  38 H38           -3.4787    -1.7538     0.0259 H       
  39 H39           -5.9716    -1.7458     0.0490 H       
  40 H40           -8.1122    -0.5358     0.0771 H       
  41 H41           -6.0283     3.1897     0.0761 H       
  42 H42           -3.8768     1.9988     0.0602 H       
@<TRIPOS>BOND
   1    1   13 am
   2    1    2 1
   3    1   25 1
   4    2    3 1
   5    2   10 1
   6    2   26 1
   7    3    4 1
   8    3    5 1
   9    3   27 1
  10    4   28 1
  11    5    6 1
  12    5    7 1
  13    5   29 1
  14    6   30 1
  15    7    8 1
  16    7    9 1
  17    7   31 1
  18    8   32 1
  19    9   10 1
  20    9   11 1
  21    9   33 1
  22   11   12 1
  23   11   34 1
  24   11   35 1
  25   12   36 1
  26   13   14 2
  27   13   16 am
  28   15   16 1
  29   15   17 2
  30   16   37 1
  31   17   18 1
  32   17   38 1
  33   18   19 ar
  34   18   23 ar
  35   19   20 ar
  36   19   39 1
  37   20   21 ar
  38   20   40 1
  39   21   22 ar
  40   21   24 1
  41   22   23 ar
  42   22   41 1
  43   23   42 1

#	End of record

