#	Name: ASD06232003
#	Creating user name:	WinNT
#	Creation time:	15. 06. 2019 21:05

#	Modifying user name:	WinNT
#	Modification time:	15. 06. 2019 21:05

#	Program:	/corina/corina34_cracker 3.40 0067  02.08.2006

@<TRIPOS>MOLECULE
ASD06232003
  87   91    0    0    0
SMALL
NO_CHARGES


@<TRIPOS>ATOM
   1 C1             0.1328     3.8781    -1.2654 C.3     
   2 C2            -0.4541     2.5192    -0.8938 C.3     
   3 C3            -0.0143     2.0863     0.4999 C.3     
   4 C4             1.5035     2.1210     0.6586 C.3     
   5 C5             2.0492     3.5060     0.3040 C.3     
   6 C6             1.6552     3.8650    -1.1236 C.3     
   7 C7             2.1511     1.0357    -0.1940 C.3     
   8 C8             3.6772     1.0624    -0.0202 C.3     
   9 C9             4.1723     2.4382    -0.4653 C.3     
  10 C10            3.5772     3.4985     0.4615 C.3     
  11 C11            5.6552     2.5484    -0.5729 C.3     
  12 C12            6.2740     3.5296     0.4468 C.3     
  13 C13            5.6978     4.9064     0.2410 C.3     
  14 C14            4.1647     4.8732     0.1947 C.3     
  15 C15            6.5283     1.3055    -0.3536 C.3     
  16 C16            7.9527     1.9401    -0.3736 C.3     
  17 C17            7.7734     3.4055     0.0944 C.3     
  18 H18            1.7434     1.9195     1.7137 H       
  19 C19            1.4685     4.5354     1.2828 C.3     
  20 C20            6.1322     3.0687     1.8950 C.3     
  21 C21            8.6181     3.6784     1.3373 C.3     
  22 O22            4.2433     0.0442    -0.8474 O.3     
  23 O23           -0.1073     1.5409    -1.8699 O.3     
  24 C24            8.4159     5.1280     1.7831 C.3     
  25 C25           10.0948     3.4462     1.0114 C.3     
  26 C26           10.9282     3.5978     2.2855 C.3     
  27 N27           12.3422     3.3756     1.9734 N.am    
  28 C28           13.2687     3.4586     2.9487 C.2     
  29 O29           14.5682     3.2543     2.6619 O.3     
  30 O30           12.9312     3.7178     4.0868 O.2     
  31 C31           15.5105     3.3596     3.7616 C.3     
  32 C32           16.9058     3.1016     3.2541 C.2     
  33 C33           17.9031     3.8917     3.6262 C.2     
  34 C34           19.2717     3.6386     3.1284 C.ar    
  35 C35           20.3236     4.4684     3.5181 C.ar    
  36 C36           21.5988     4.2267     3.0499 C.ar    
  37 C37           21.8354     3.1648     2.1954 C.ar    
  38 C38           20.7967     2.3386     1.8048 C.ar    
  39 C39           19.5182     2.5655     2.2713 C.ar    
  40 H40           -0.1167     4.0934    -2.3128 H       
  41 H41           -0.3057     4.6584    -0.6493 H       
  42 H42           -1.5534     2.6151    -0.8895 H       
  43 H43           -0.4885     2.7181     1.2516 H       
  44 H44           -0.3582     1.0563     0.6718 H       
  45 H45            2.0705     3.1375    -1.8220 H       
  46 H46            2.0435     4.8551    -1.3747 H       
  47 H47            1.7753     0.0581     0.1082 H       
  48 H48            1.9274     1.2004    -1.2470 H       
  49 H49            3.9327     0.8889     1.0198 H       
  50 H50            3.7522     2.6121    -1.4776 H       
  51 H51            3.7493     3.2174     1.5035 H       
  52 H52            5.8940     2.9305    -1.5942 H       
  53 H53            6.0218     5.5655     1.0591 H       
  54 H54            6.0831     5.3309    -0.6959 H       
  55 H55            3.8338     5.2213    -0.7932 H       
  56 H56            3.7889     5.5919     0.9352 H       
  57 H57            6.3258     0.8116     0.5850 H       
  58 H58            6.4281     0.6136    -1.1929 H       
  59 H59            8.6064     1.4024     0.3094 H       
  60 H60            8.3523     1.9147    -1.3857 H       
  61 H61            8.0180     4.0981    -0.7044 H       
  62 H62            1.7601     4.2742     2.3001 H       
  63 H63            1.8518     5.5260     1.0380 H       
  64 H64            0.3812     4.5372     1.2056 H       
  65 H65            6.7441     2.1810     2.0553 H       
  66 H66            6.4631     3.8636     2.5633 H       
  67 H67            5.0882     2.8323     2.1004 H       
  68 H68            8.3128     3.0058     2.1389 H       
  69 H69            3.9381    -0.8488    -0.6365 H       
  70 H70           -0.4248     1.7440    -2.7604 H       
  71 H71            7.4004     5.2545     2.1583 H       
  72 H72            9.1276     5.3678     2.5731 H       
  73 H73            8.5758     5.7944     0.9355 H       
  74 H74           10.2246     2.4413     0.6097 H       
  75 H75           10.4233     4.1778     0.2731 H       
  76 H76           10.7984     4.6028     2.6871 H       
  77 H77           10.5997     2.8663     3.0237 H       
  78 H78           12.6117     3.1686     1.0649 H       
  79 H79           15.4589     4.3608     4.1897 H       
  80 H80           15.2602     2.6242     4.5263 H       
  81 H81           17.0932     2.2730     2.5873 H       
  82 H82           17.7157     4.7203     4.2930 H       
  83 H83           20.1400     5.2982     4.1846 H       
  84 H84           22.4138     4.8682     3.3508 H       
  85 H85           22.8353     2.9801     1.8314 H       
  86 H86           20.9879     1.5115     1.1373 H       
  87 H87           18.7082     1.9196     1.9660 H       
@<TRIPOS>BOND
   1    1    2 1
   2    1    6 1
   3    1   40 1
   4    1   41 1
   5    2    3 1
   6    2   23 1
   7    2   42 1
   8    3    4 1
   9    3   43 1
  10    3   44 1
  11    4    5 1
  12    4    7 1
  13    4   18 1
  14    5    6 1
  15    5   19 1
  16    5   10 1
  17    6   45 1
  18    6   46 1
  19    7    8 1
  20    7   47 1
  21    7   48 1
  22    8    9 1
  23    8   22 1
  24    8   49 1
  25    9   10 1
  26    9   11 1
  27    9   50 1
  28   10   14 1
  29   10   51 1
  30   11   12 1
  31   11   15 1
  32   11   52 1
  33   12   13 1
  34   12   20 1
  35   12   17 1
  36   13   14 1
  37   13   53 1
  38   13   54 1
  39   14   55 1
  40   14   56 1
  41   15   16 1
  42   15   57 1
  43   15   58 1
  44   16   17 1
  45   16   59 1
  46   16   60 1
  47   17   21 1
  48   17   61 1
  49   19   62 1
  50   19   63 1
  51   19   64 1
  52   20   65 1
  53   20   66 1
  54   20   67 1
  55   21   24 1
  56   21   25 1
  57   21   68 1
  58   22   69 1
  59   23   70 1
  60   24   71 1
  61   24   72 1
  62   24   73 1
  63   25   26 1
  64   25   74 1
  65   25   75 1
  66   26   27 1
  67   26   76 1
  68   26   77 1
  69   27   28 am
  70   27   78 1
  71   28   29 1
  72   28   30 2
  73   29   31 1
  74   31   32 1
  75   31   79 1
  76   31   80 1
  77   32   33 2
  78   32   81 1
  79   33   34 1
  80   33   82 1
  81   34   35 ar
  82   34   39 ar
  83   35   36 ar
  84   35   83 1
  85   36   37 ar
  86   36   84 1
  87   37   38 ar
  88   37   85 1
  89   38   39 ar
  90   38   86 1
  91   39   87 1

#	End of record

