#	Name: ASD01882373
#	Creating user name:	WinNT
#	Creation time:	15. 06. 2019 19:44

#	Modifying user name:	WinNT
#	Modification time:	15. 06. 2019 19:44

#	Program:	/corina/corina34_cracker 3.40 0067  02.08.2006

@<TRIPOS>MOLECULE
ASD01882373
  56   61    0    0    0
SMALL
NO_CHARGES


@<TRIPOS>ATOM
   1 C1             0.0390     1.4754     0.1333 C.2     
   2 C2            -0.0475     0.0966    -0.1243 C.2     
   3 C3             1.1042    -0.6311    -0.2536 C.2     
   4 C4             2.3539     0.0137    -0.1265 C.2     
   5 C5             2.4136     1.3368     0.1206 C.2     
   6 N6             1.2712     2.0714     0.2512 N.pl3   
   7 N7            -0.2727     3.5501     0.5160 N.2     
   8 N8            -0.8651     2.4284     0.3006 N.2     
   9 C9             1.0243     3.3904     0.4958 C.2     
  10 N10            1.0441    -1.9979    -0.5083 N.pl3   
  11 C11            0.4999    -2.9231     0.4950 C.3     
  12 C12            1.5290    -4.0273     0.7569 C.3     
  13 C13            1.9085    -4.6903    -0.5692 C.3     
  14 C14            2.5407    -3.6515    -1.4983 C.3     
  15 C15            1.5179    -2.5424    -1.7880 C.3     
  16 C16            2.8952    -5.7998    -0.3114 C.ar    
  17 C17            2.5838    -7.0985    -0.6683 C.ar    
  18 C18            3.4889    -8.1162    -0.4318 C.ar    
  19 C19            4.7056    -7.8352     0.1612 C.ar    
  20 C20            5.0174    -6.5364     0.5172 C.ar    
  21 C21            4.1141    -5.5180     0.2768 C.ar    
  22 C22            2.0581     4.4672     0.7028 C.3     
  23 C23            2.4164     5.0961    -0.6451 C.3     
  24 C24            3.3675     6.2944    -0.6350 C.3     
  25 C25            3.8552     4.9349    -1.1397 C.3     
  26 C26           -1.3915    -0.5721    -0.2559 C.3     
  27 C27           -2.3953    -0.3704     0.8810 C.3     
  28 C28           -2.6112     0.3280    -0.4630 C.3     
  29 H29            3.2658    -0.5561    -0.2273 H       
  30 H30            3.3745     1.8204     0.2164 H       
  31 H31            0.3004    -2.3826     1.4203 H       
  32 H32           -0.4235    -3.3654     0.1213 H       
  33 H33            2.4184    -3.5945     1.2149 H       
  34 H34            1.1003    -4.7726     1.4268 H       
  35 H35            1.0147    -5.1013    -1.0386 H       
  36 H36            3.4205    -3.2222    -1.0191 H       
  37 H37            2.8320    -4.1294    -2.4337 H       
  38 H38            0.6757    -2.9543    -2.3441 H       
  39 H39            1.9902    -1.7507    -2.3696 H       
  40 H40            1.6333    -7.3180    -1.1315 H       
  41 H41            3.2453    -9.1309    -0.7100 H       
  42 H42            5.4124    -8.6304     0.3466 H       
  43 H43            5.9678    -6.3169     0.9808 H       
  44 H44            4.3592    -4.5027     0.5516 H       
  45 H45            1.6568     5.2334     1.3661 H       
  46 H46            2.9518     4.0317     1.1496 H       
  47 H47            1.6231     5.0894    -1.3927 H       
  48 H48            3.2003     7.0760    -1.3762 H       
  49 H49            3.7380     6.6348     0.3319 H       
  50 H50            4.5466     4.3808    -0.5048 H       
  51 H51            4.0088     4.8220    -2.2129 H       
  52 H52           -1.3881    -1.5393    -0.7586 H       
  53 H53           -3.0526    -1.2047     1.1260 H       
  54 H54           -2.0836     0.2460     1.7242 H       
  55 H55           -2.4415     1.4039    -0.5041 H       
  56 H56           -3.4106    -0.0468    -1.1023 H       
@<TRIPOS>BOND
   1    1    2 1
   2    1    6 1
   3    1    8 2
   4    2    3 2
   5    2   26 1
   6    3    4 1
   7    3   10 1
   8    4    5 2
   9    4   29 1
  10    5    6 1
  11    5   30 1
  12    6    9 1
  13    7    8 1
  14    7    9 2
  15    9   22 1
  16   10   11 1
  17   10   15 1
  18   11   12 1
  19   11   31 1
  20   11   32 1
  21   12   13 1
  22   12   33 1
  23   12   34 1
  24   13   14 1
  25   13   16 1
  26   13   35 1
  27   14   15 1
  28   14   36 1
  29   14   37 1
  30   15   38 1
  31   15   39 1
  32   16   17 ar
  33   16   21 ar
  34   17   18 ar
  35   17   40 1
  36   18   19 ar
  37   18   41 1
  38   19   20 ar
  39   19   42 1
  40   20   21 ar
  41   20   43 1
  42   21   44 1
  43   22   23 1
  44   22   45 1
  45   22   46 1
  46   23   24 1
  47   23   25 1
  48   23   47 1
  49   24   25 1
  50   24   48 1
  51   24   49 1
  52   25   50 1
  53   25   51 1
  54   26   27 1
  55   26   28 1
  56   26   52 1
  57   27   28 1
  58   27   53 1
  59   27   54 1
  60   28   55 1
  61   28   56 1

#	End of record

