#	Name: ASD03320233
#	Creating user name:	WinNT
#	Creation time:	15. 06. 2019 20:36

#	Modifying user name:	WinNT
#	Modification time:	15. 06. 2019 20:36

#	Program:	/corina/corina34_cracker 3.40 0067  02.08.2006

@<TRIPOS>MOLECULE
ASD03320233
  42   44    0    0    0
SMALL
NO_CHARGES


@<TRIPOS>ATOM
   1 C1            -0.0167     1.3788     0.0096 C.ar    
   2 C2             0.0021    -0.0041     0.0020 C.ar    
   3 C3             1.2071    -0.6826    -0.0132 C.ar    
   4 C4             2.3964     0.0190    -0.0204 C.ar    
   5 C5             2.3814     1.4087    -0.0127 C.ar    
   6 C6             1.1686     2.0871     0.0021 C.ar    
   7 S7             3.8965     2.3082    -0.0213 S.3     
   8 C8             3.3451     4.0363    -0.0071 C.3     
   9 C9             4.5643     4.9607    -0.0129 C.3     
  10 C10            4.0992     6.4183    -0.0010 C.3     
  11 N11            5.2637     7.3048    -0.1272 N.4     
  12 O12            5.3611     4.7054     1.1455 O.3     
  13 C13            4.8172     8.7043    -0.1157 C.3     
  14 C14            6.0117     9.6138    -0.2452 C.ar    
  15 C15            6.4484    10.0047    -1.4969 C.ar    
  16 C16            7.5443    10.8387    -1.6209 C.ar    
  17 C17            8.2075    11.2847    -0.4897 C.ar    
  18 C18            7.7671    10.8911     0.7720 C.ar    
  19 C19            6.6652    10.0601     0.8888 C.ar    
  20 O20            9.2939    12.0971    -0.3386 O.3     
  21 C21            9.2654    12.5256     1.0358 C.3     
  22 O22            8.5778    11.4571     1.7131 O.3     
  23 H23           -0.9596     1.9054     0.0170 H       
  24 H24           -0.9266    -0.5554     0.0083 H       
  25 H25            1.2180    -1.7625    -0.0191 H       
  26 H26            3.3370    -0.5115    -0.0315 H       
  27 H27            1.1532     3.1670     0.0077 H       
  28 H28            2.7373     4.2310    -0.8907 H       
  29 H29            2.7530     4.2214     0.8891 H       
  30 H30            5.1563     4.7756    -0.9092 H       
  31 H31            3.4198     6.5897    -0.8359 H       
  32 H32            3.5832     6.6273     0.9361 H       
  33 H33            5.8926     7.1461     0.6457 H       
  34 H34            5.7413     7.1113    -0.9946 H       
  35 H35            4.8973     4.8501     1.9816 H       
  36 H36            4.1378     8.8757    -0.9507 H       
  37 H37            4.3012     8.9134     0.8214 H       
  38 H38            5.9327     9.6576    -2.3801 H       
  39 H39            7.8835    11.1423    -2.6003 H       
  40 H40            6.3189     9.7569     1.8658 H       
  41 H41           10.2780    12.6359     1.4237 H       
  42 H42            8.7125    13.4598     1.1343 H       
@<TRIPOS>BOND
   1    1    2 ar
   2    1    6 ar
   3    1   23 1
   4    2    3 ar
   5    2   24 1
   6    3    4 ar
   7    3   25 1
   8    4    5 ar
   9    4   26 1
  10    5    6 ar
  11    5    7 1
  12    6   27 1
  13    7    8 1
  14    8    9 1
  15    8   28 1
  16    8   29 1
  17    9   10 1
  18    9   12 1
  19    9   30 1
  20   10   11 1
  21   10   31 1
  22   10   32 1
  23   11   13 1
  24   11   33 1
  25   11   34 1
  26   12   35 1
  27   13   14 1
  28   13   36 1
  29   13   37 1
  30   14   15 ar
  31   14   19 ar
  32   15   16 ar
  33   15   38 1
  34   16   17 ar
  35   16   39 1
  36   17   18 ar
  37   17   20 1
  38   18   19 ar
  39   18   22 1
  40   19   40 1
  41   20   21 1
  42   21   22 1
  43   21   41 1
  44   21   42 1

#	End of record

