#	Name: ASD02030509
#	Creating user name:	WinNT
#	Creation time:	15. 06. 2019 20:15

#	Modifying user name:	WinNT
#	Modification time:	15. 06. 2019 20:15

#	Program:	/corina/corina34_cracker 3.40 0067  02.08.2006

@<TRIPOS>MOLECULE
ASD02030509
  52   56    0    0    0
SMALL
NO_CHARGES


@<TRIPOS>ATOM
   1 N1            -0.1480     1.3523     0.3871 N.am    
   2 C2            -0.4596    -0.0839     0.3715 C.3     
   3 C3            -1.5848    -0.3522     1.3786 C.3     
   4 N4            -2.6691     0.6105     1.1387 N.am    
   5 C5            -2.3575     2.0466     1.1543 C.3     
   6 C6            -1.2334     2.3151     0.1528 C.3     
   7 C7             1.1095     1.7789     0.6176 C.2     
   8 C8             2.1636     0.8092     0.9837 C.2     
   9 N9             3.3927     1.1036     1.3491 N.2     
  10 N10            2.0333    -0.5300     1.0076 N.2     
  11 C11            3.1850    -1.0262     1.3817 C.2     
  12 N12            4.0254     0.0077     1.5918 N.pl3   
  13 O13            1.3769     2.9611     0.5245 O.2     
  14 C14           -3.9266     0.1838     0.9082 C.2     
  15 C15           -4.1937    -1.2010     0.7911 C.2     
  16 O16           -4.8332     0.9902     0.8006 O.2     
  17 C17           -0.7076     3.7396     0.3407 C.3     
  18 C18           -1.7633     2.1434    -1.2722 C.3     
  19 C19            5.3611    -0.0930     2.0040 C.ar    
  20 C20            6.1214     1.0542     2.1846 C.ar    
  21 C21            7.4387     0.9514     2.5917 C.ar    
  22 C22            7.9986    -0.2936     2.8184 C.ar    
  23 C23            7.2427    -1.4375     2.6391 C.ar    
  24 C24            5.9247    -1.3405     2.2380 C.ar    
  25 Cl25           8.3910     2.3851     2.8180 Cl      
  26 C26           -4.7055    -2.0285     1.7711 C.2     
  27 N27           -4.8054    -3.2504     1.2615 N.2     
  28 C28           -4.3849    -3.2449     0.0105 C.2     
  29 N29           -3.9955    -2.0014    -0.3475 N.pl3   
  30 S30           -4.1305    -4.2606    -1.4182 S.3     
  31 C31           -3.5030    -2.9342    -2.4129 C.2     
  32 C32           -3.5342    -1.8656    -1.6336 C.2     
  33 Cl33          -5.1410    -1.5549     3.3835 Cl      
  34 H34           -0.7846    -0.3769    -0.6268 H       
  35 H35            0.4263    -0.6534     0.6524 H       
  36 H36           -1.9603    -1.3668     1.2458 H       
  37 H37           -1.2048    -0.2299     2.3928 H       
  38 H38           -3.2434     2.6162     0.8734 H       
  39 H39           -2.0325     2.3396     2.1526 H       
  40 H40            3.4192    -2.0735     1.5032 H       
  41 H41           -0.2240     3.8230     1.3140 H       
  42 H42            0.0138     3.9671    -0.4441 H       
  43 H43           -1.5380     4.4435     0.2861 H       
  44 H44           -2.5774     2.8475    -1.4444 H       
  45 H45           -0.9604     2.3352    -1.9840 H       
  46 H46           -2.1296     1.1252    -1.4034 H       
  47 H47            5.6847     2.0258     2.0069 H       
  48 H48            9.0279    -0.3720     3.1358 H       
  49 H49            7.6824    -2.4079     2.8164 H       
  50 H50            5.3351    -2.2346     2.0986 H       
  51 H51           -3.1703    -2.9865    -3.4391 H       
  52 H52           -3.2003    -0.9063    -2.0007 H       
@<TRIPOS>BOND
   1    1    2 1
   2    1    7 am
   3    1    6 1
   4    2    3 1
   5    2   34 1
   6    2   35 1
   7    3    4 1
   8    3   36 1
   9    3   37 1
  10    4    5 1
  11    4   14 am
  12    5    6 1
  13    5   38 1
  14    5   39 1
  15    6   17 1
  16    6   18 1
  17    7    8 1
  18    7   13 2
  19    8    9 2
  20    8   10 1
  21    9   12 1
  22   10   11 2
  23   11   12 1
  24   11   40 1
  25   12   19 1
  26   14   15 1
  27   14   16 2
  28   15   26 2
  29   15   29 1
  30   17   41 1
  31   17   42 1
  32   17   43 1
  33   18   44 1
  34   18   45 1
  35   18   46 1
  36   19   20 ar
  37   19   24 ar
  38   20   21 ar
  39   20   47 1
  40   21   22 ar
  41   21   25 1
  42   22   23 ar
  43   22   48 1
  44   23   24 ar
  45   23   49 1
  46   24   50 1
  47   26   27 1
  48   26   33 1
  49   27   28 2
  50   28   29 1
  51   28   30 1
  52   29   32 1
  53   30   31 1
  54   31   32 2
  55   31   51 1
  56   32   52 1

#	End of record

