#	Name: ASD03240217
#	Creating user name:	WinNT
#	Creation time:	15. 06. 2019 20:34

#	Modifying user name:	WinNT
#	Modification time:	15. 06. 2019 20:34

#	Program:	/corina/corina34_cracker 3.40 0067  02.08.2006

@<TRIPOS>MOLECULE
ASD03240217
  86   89    0    0    0
SMALL
NO_CHARGES


@<TRIPOS>ATOM
   1 C1             0.4926     2.8158     1.8313 C.2     
   2 N2             0.7778     2.1761     3.0144 N.pl3   
   3 O3            -3.1882     4.2950     1.3492 O.2     
   4 C4            -2.4924     4.5023     0.3777 C.2     
   5 C5            -1.0638     4.0230     0.3579 C.3     
   6 N6            -0.7599     3.3414     1.6186 N.pl3   
   7 N7             1.4111     2.9285     0.9135 N.2     
   8 N8            -2.9969     5.1614    -0.6842 N.am    
   9 C9            -4.3474     5.5074    -0.7128 C.ar    
  10 C10           -4.7503     6.6800    -1.3442 C.ar    
  11 C11           -6.0828     7.0246    -1.3742 C.ar    
  12 C12           -7.0313     6.1949    -0.7700 C.ar    
  13 C13           -6.6232     5.0176    -0.1370 C.ar    
  14 C14           -5.2896     4.6765    -0.1148 C.ar    
  15 C15           -8.4605     6.5614    -0.7998 C.2     
  16 N16           -9.3739     5.7601    -0.2166 N.am    
  17 O17           -8.8140     7.5863    -1.3506 O.2     
  18 C18          -10.7152     6.1588    -0.1510 C.ar    
  19 C19          -11.7260     5.2095    -0.2237 C.ar    
  20 C20          -11.0337     7.5028    -0.0074 C.ar    
  21 C21          -12.3556     7.8959     0.0577 C.ar    
  22 C22          -13.3668     6.9470    -0.0203 C.ar    
  23 C23          -13.0480     5.6023    -0.1590 C.ar    
  24 N24          -14.7063     7.3451     0.0456 N.pl3   
  25 C25          -15.7729     6.3442    -0.0367 C.3     
  26 C26          -15.0425     8.7630     0.1971 C.3     
  27 C27          -15.1843     9.3937    -1.1642 C.ar    
  28 C28          -16.1120     5.8564     1.3483 C.ar    
  29 C29          -16.4144     9.4075    -1.7948 C.ar    
  30 C30          -16.5445     9.9861    -3.0435 C.ar    
  31 C31          -15.4447    10.5513    -3.6614 C.ar    
  32 C32          -14.2148    10.5383    -3.0304 C.ar    
  33 C33          -14.0856     9.9636    -1.7799 C.ar    
  34 C34          -17.0879     6.4983     2.0875 C.ar    
  35 C35          -17.3989     6.0509     3.3579 C.ar    
  36 C36          -16.7343     4.9613     3.8889 C.ar    
  37 C37          -15.7591     4.3188     3.1494 C.ar    
  38 C38          -15.4511     4.7636     1.8773 C.ar    
  39 C39          -15.5864    11.1811    -5.0231 C.3     
  40 C40          -17.0727     4.4741     5.2743 C.3     
  41 C41          -17.5595     3.0255     5.2008 C.3     
  42 C42          -15.8272     4.5493     6.1597 C.3     
  43 C43          -15.1960    12.6584    -4.9449 C.3     
  44 C44          -14.6691    10.4630    -6.0151 C.3     
  45 H45            1.6626     1.8087     3.1660 H       
  46 H46            0.0942     2.0922     3.6974 H       
  47 H47           -0.9244     3.3306    -0.4723 H       
  48 H48           -0.3961     4.8758     0.2358 H       
  49 H49           -1.4423     3.2610     2.3032 H       
  50 H50            1.2099     3.3798     0.0788 H       
  51 H51           -2.4205     5.3950    -1.4286 H       
  52 H52           -4.0168     7.3207    -1.8109 H       
  53 H53           -6.3947     7.9353    -1.8639 H       
  54 H54           -7.3537     4.3742     0.3309 H       
  55 H55           -4.9736     3.7667     0.3738 H       
  56 H56           -9.1026     4.9074     0.1577 H       
  57 H57          -11.4781     4.1638    -0.3312 H       
  58 H58          -10.2474     8.2406     0.0536 H       
  59 H59          -12.6033     8.9411     0.1697 H       
  60 H60          -13.8342     4.8644    -0.2198 H       
  61 H61          -16.6569     6.7918    -0.4908 H       
  62 H62          -15.4372     5.5047    -0.6455 H       
  63 H63          -15.9823     8.8575     0.7410 H       
  64 H64          -14.2501     9.2672     0.7503 H       
  65 H65          -17.2737     8.9660    -1.3120 H       
  66 H66          -17.5054     9.9962    -3.5364 H       
  67 H67          -13.3555    10.9795    -3.5133 H       
  68 H68          -13.1247     9.9534    -1.2869 H       
  69 H69          -17.6071     7.3496     1.6726 H       
  70 H70          -18.1609     6.5528     3.9358 H       
  71 H71          -15.2396     3.4677     3.5644 H       
  72 H72          -14.6892     4.2616     1.2994 H       
  73 H73          -16.6204    11.0958    -5.3571 H       
  74 H74          -17.8580     5.1002     5.6979 H       
  75 H75          -16.7742     2.3994     4.7772 H       
  76 H76          -17.8042     2.6731     6.2028 H       
  77 H77          -18.4468     2.9719     4.5700 H       
  78 H78          -15.4804     5.5814     6.2121 H       
  79 H79          -16.0720     4.1970     7.1618 H       
  80 H80          -15.0419     3.9232     5.7361 H       
  81 H81          -14.1619    12.7437    -4.6109 H       
  82 H82          -15.2984    13.1139    -5.9298 H       
  83 H83          -15.8494    13.1699    -4.2382 H       
  84 H84          -14.9473     9.4106    -6.0708 H       
  85 H85          -14.7716    10.9186    -7.0000 H       
  86 H86          -13.6351    10.5484    -5.6811 H       
@<TRIPOS>BOND
   1    1    2 1
   2    1    7 2
   3    1    6 1
   4    2   45 1
   5    2   46 1
   6    3    4 2
   7    4    5 1
   8    4    8 am
   9    5    6 1
  10    5   47 1
  11    5   48 1
  12    6   49 1
  13    7   50 1
  14    8    9 1
  15    8   51 1
  16    9   10 ar
  17    9   14 ar
  18   10   11 ar
  19   10   52 1
  20   11   12 ar
  21   11   53 1
  22   12   13 ar
  23   12   15 1
  24   13   14 ar
  25   13   54 1
  26   14   55 1
  27   15   16 am
  28   15   17 2
  29   16   18 1
  30   16   56 1
  31   18   19 ar
  32   18   20 ar
  33   19   23 ar
  34   19   57 1
  35   20   21 ar
  36   20   58 1
  37   21   22 ar
  38   21   59 1
  39   22   23 ar
  40   22   24 1
  41   23   60 1
  42   24   25 1
  43   24   26 1
  44   25   28 1
  45   25   61 1
  46   25   62 1
  47   26   27 1
  48   26   63 1
  49   26   64 1
  50   27   29 ar
  51   27   33 ar
  52   28   34 ar
  53   28   38 ar
  54   29   30 ar
  55   29   65 1
  56   30   31 ar
  57   30   66 1
  58   31   32 ar
  59   31   39 1
  60   32   33 ar
  61   32   67 1
  62   33   68 1
  63   34   35 ar
  64   34   69 1
  65   35   36 ar
  66   35   70 1
  67   36   37 ar
  68   36   40 1
  69   37   38 ar
  70   37   71 1
  71   38   72 1
  72   39   43 1
  73   39   44 1
  74   39   73 1
  75   40   41 1
  76   40   42 1
  77   40   74 1
  78   41   75 1
  79   41   76 1
  80   41   77 1
  81   42   78 1
  82   42   79 1
  83   42   80 1
  84   43   81 1
  85   43   82 1
  86   43   83 1
  87   44   84 1
  88   44   85 1
  89   44   86 1

#	End of record

