#	Name: ASD01840189
#	Creating user name:	WinNT
#	Creation time:	15. 06. 2019 19:37

#	Modifying user name:	WinNT
#	Modification time:	15. 06. 2019 19:37

#	Program:	/corina/corina34_cracker 3.40 0067  02.08.2006

@<TRIPOS>MOLECULE
ASD01840189
  44   47    0    0    0
SMALL
NO_CHARGES


@<TRIPOS>ATOM
   1 C1            -1.6301     1.8031    -0.7025 C.3     
   2 C2            -1.3218     0.3051    -0.5274 C.3     
   3 N3            -1.0019    -0.3815    -1.7814 N.am    
   4 C4            -1.2025    -1.7096    -1.8926 C.2     
   5 C5            -0.8832    -2.3949    -3.1441 C.2     
   6 O6            -1.6495    -2.3387    -0.9509 O.2     
   7 C7            -1.0487    -3.7243    -3.3547 C.2     
   8 C8            -0.6589    -4.1656    -4.6811 C.ar    
   9 C9            -0.1873    -3.1119    -5.4755 C.ar    
  10 S10           -0.2431    -1.6050    -4.5719 S.3     
  11 C11           -0.6877    -5.4553    -5.2589 C.ar    
  12 C12           -0.2527    -5.5925    -6.5588 C.ar    
  13 N13            0.1760    -4.5385    -7.2317 N.ar    
  14 N14            0.2085    -3.3624    -6.7257 N.ar    
  15 C15           -0.2651    -6.9488    -7.2157 C.3     
  16 C16           -1.1794    -6.6453    -4.4758 C.3     
  17 N17           -1.5470    -4.5865    -2.3874 N.pl3   
  18 C18           -0.0820     0.7541     0.2669 C.3     
  19 N19           -0.1837     2.0251    -0.4838 N.3     
  20 C20            0.0339     3.1230     0.3570 C.ar    
  21 C21            1.2040     3.2072     1.1042 C.ar    
  22 C22           -0.9148     4.1320     0.4420 C.ar    
  23 C23           -0.6983     5.2153     1.2726 C.ar    
  24 C24            0.4639     5.2951     2.0200 C.ar    
  25 C25            1.4159     4.2928     1.9336 C.ar    
  26 F26            2.1321     2.2291     1.0199 F       
  27 F27            0.6726     6.3553     2.8310 F       
  28 H28           -1.9685     2.0677    -1.7043 H       
  29 H29           -2.2617     2.2163     0.0840 H       
  30 H30           -2.0599    -0.2275     0.0723 H       
  31 H31           -0.6458     0.1197    -2.5316 H       
  32 H32           -1.2232    -7.1034    -7.7119 H       
  33 H33            0.5378    -7.0037    -7.9508 H       
  34 H34           -0.1189    -7.7201    -6.4595 H       
  35 H35           -2.2664    -6.6972    -4.5380 H       
  36 H36           -0.7479    -7.5565    -4.8902 H       
  37 H37           -0.8796    -6.5430    -3.4329 H       
  38 H38           -1.5310    -4.3279    -1.4526 H       
  39 H39           -1.9110    -5.4475    -2.6462 H       
  40 H40           -0.2608     0.8605     1.3369 H       
  41 H41            0.8166     0.1805     0.0396 H       
  42 H42           -1.8220     4.0710    -0.1410 H       
  43 H43           -1.4368     6.0006     1.3382 H       
  44 H44            2.3239     4.3591     2.5146 H       
@<TRIPOS>BOND
   1    1    2 1
   2    1   19 1
   3    1   28 1
   4    1   29 1
   5    2    3 1
   6    2   18 1
   7    2   30 1
   8    3    4 am
   9    3   31 1
  10    4    5 1
  11    4    6 2
  12    5    7 2
  13    5   10 1
  14    7    8 1
  15    7   17 1
  16    8    9 ar
  17    8   11 ar
  18    9   10 1
  19    9   14 ar
  20   11   12 ar
  21   11   16 1
  22   12   13 ar
  23   12   15 1
  24   13   14 ar
  25   15   32 1
  26   15   33 1
  27   15   34 1
  28   16   35 1
  29   16   36 1
  30   16   37 1
  31   17   38 1
  32   17   39 1
  33   18   19 1
  34   18   40 1
  35   18   41 1
  36   19   20 1
  37   20   22 ar
  38   20   21 ar
  39   21   25 ar
  40   21   26 1
  41   22   23 ar
  42   22   42 1
  43   23   24 ar
  44   23   43 1
  45   24   25 ar
  46   24   27 1
  47   25   44 1

#	End of record

