#	Name: ASD01912361
#	Creating user name:	WinNT
#	Creation time:	15. 06. 2019 19:59

#	Modifying user name:	WinNT
#	Modification time:	15. 06. 2019 19:59

#	Program:	/corina/corina34_cracker 3.40 0067  02.08.2006

@<TRIPOS>MOLECULE
ASD01912361
  41   43    0    0    0
SMALL
NO_CHARGES


@<TRIPOS>ATOM
   1 C1            -1.1440     3.5790    -4.7925 C.ar    
   2 C2            -1.2317     2.4132    -5.5589 C.ar    
   3 C3            -0.1455     2.0294    -6.3236 C.ar    
   4 C4             0.9955     2.8207    -6.3001 C.ar    
   5 C5             1.0153     3.9621    -5.5194 C.ar    
   6 N6            -0.0316     4.3080    -4.7990 N.ar    
   7 C7             2.2524     4.8222    -5.4925 C.3     
   8 C8            -2.2616     3.9944    -3.9995 C.1     
   9 C9            -3.1780     4.3349    -3.3493 C.1     
  10 C10           -4.2956     4.7503    -2.5563 C.2     
  11 N11           -3.6807     7.3666     0.4155 N.am    
  12 C12           -4.8918     6.5368     0.4554 C.3     
  13 C13           -5.3867     6.3163    -0.9797 C.3     
  14 C14           -4.2170     5.8606    -1.8241 C.2     
  15 C15           -2.9560     6.6966    -1.8174 C.3     
  16 C16           -2.5220     6.9076    -0.3613 C.3     
  17 C17           -3.6352     8.5385     1.0796 C.2     
  18 O18           -4.6332     8.9649     1.6307 O.2     
  19 C19           -2.3850     9.2987     1.1383 C.2     
  20 C20           -2.2691    10.6504     0.9629 C.2     
  21 C21           -0.9742    11.1029     1.0709 C.2     
  22 C22           -0.0623    10.1579     1.3253 C.2     
  23 S23           -0.7931     8.6216     1.4530 S.3     
  24 Cl24          -3.6202    11.6904     0.6361 Cl      
  25 H25           -2.1347     1.8208    -5.5536 H       
  26 H26           -0.1834     1.1335    -6.9256 H       
  27 H27            1.8602     2.5469    -6.8864 H       
  28 H28            2.1875     5.5766    -6.2766 H       
  29 H29            2.3331     5.3125    -4.5224 H       
  30 H30            3.1315     4.1996    -5.6592 H       
  31 H31           -5.2023     4.1635    -2.5517 H       
  32 H32           -4.6610     5.5754     0.9142 H       
  33 H33           -5.6635     7.0443     1.0342 H       
  34 H34           -6.1640     5.5522    -0.9864 H       
  35 H35           -5.7853     7.2494    -1.3779 H       
  36 H36           -2.1685     6.1773    -2.3635 H       
  37 H37           -3.1528     7.6613    -2.2851 H       
  38 H38           -1.7337     7.6592    -0.3203 H       
  39 H39           -2.1552     5.9674     0.0506 H       
  40 H40           -0.7131    12.1448     0.9581 H       
  41 H41            0.9955    10.3435     1.4395 H       
@<TRIPOS>BOND
   1    1    2 ar
   2    1    6 ar
   3    1    8 1
   4    2    3 ar
   5    2   25 1
   6    3    4 ar
   7    3   26 1
   8    4    5 ar
   9    4   27 1
  10    5    6 ar
  11    5    7 1
  12    7   28 1
  13    7   29 1
  14    7   30 1
  15    8    9 3
  16    9   10 1
  17   10   14 2
  18   10   31 1
  19   11   12 1
  20   11   16 1
  21   11   17 am
  22   12   13 1
  23   12   32 1
  24   12   33 1
  25   13   14 1
  26   13   34 1
  27   13   35 1
  28   14   15 1
  29   15   16 1
  30   15   36 1
  31   15   37 1
  32   16   38 1
  33   16   39 1
  34   17   18 2
  35   17   19 1
  36   19   20 2
  37   19   23 1
  38   20   21 1
  39   20   24 1
  40   21   22 2
  41   21   40 1
  42   22   23 1
  43   22   41 1

#	End of record

