#	Name: ASD01883281
#	Creating user name:	WinNT
#	Creation time:	15. 06. 2019 19:46

#	Modifying user name:	WinNT
#	Modification time:	15. 06. 2019 19:46

#	Program:	/corina/corina34_cracker 3.40 0067  02.08.2006

@<TRIPOS>MOLECULE
ASD01883281
  45   47    0    0    0
SMALL
NO_CHARGES


@<TRIPOS>ATOM
   1 N1            -0.0162     1.3417     0.0094 N.am    
   2 C2             0.0021    -0.0041     0.0020 C.2     
   3 C3            -1.2162    -0.7274     0.0102 C.2     
   4 C4            -2.4260    -0.0113     0.0261 C.2     
   5 C5            -2.3786     1.3966     0.0332 C.2     
   6 C6            -1.1850     2.0323     0.0299 C.2     
   7 O7             1.0657    -0.6000    -0.0121 O.2     
   8 C8            -1.2153    -2.1594     0.0021 C.1     
   9 N9            -1.2146    -3.2954    -0.0044 N.1     
  10 C10            1.2512     2.0764     0.0013 C.3     
  11 C11            1.6787     2.3399    -1.4440 C.3     
  12 C12            3.0023     3.1073    -1.4525 C.3     
  13 C13            3.4929     3.2620    -2.8935 C.3     
  14 C14            2.7938     4.4908    -0.8334 C.3     
  15 C15           -3.7221    -0.7216     0.0347 C.ar    
  16 C16           -4.5708    -0.6164     1.1391 C.ar    
  17 C17           -5.7780    -1.2798     1.1437 C.ar    
  18 C18           -6.1520    -2.0535     0.0508 C.ar    
  19 C19           -5.3096    -2.1609    -1.0500 C.ar    
  20 C20           -4.1037    -1.4953    -1.0640 C.ar    
  21 N21           -7.3792    -2.7262     0.0590 N.pl3   
  22 C22           -8.3001    -2.7148     1.0581 C.2     
  23 N23           -9.3111    -3.4581     0.6997 N.2     
  24 C24           -9.0800    -3.9646    -0.5208 C.2     
  25 C25           -7.8824    -3.5166    -0.9424 C.2     
  26 H26           -3.2950     1.9679     0.0453 H       
  27 H27           -1.1611     3.1121     0.0358 H       
  28 H28            1.1242     3.0258     0.5214 H       
  29 H29            2.0168     1.4859     0.5046 H       
  30 H30            1.8057     1.3905    -1.9642 H       
  31 H31            0.9131     2.9304    -1.9474 H       
  32 H32            3.7444     2.5581    -0.8731 H       
  33 H33            2.7508     3.8112    -3.4729 H       
  34 H34            4.4358     3.8087    -2.8995 H       
  35 H35            3.6414     2.2764    -3.3345 H       
  36 H36            2.4443     4.3806     0.1931 H       
  37 H37            3.7367     5.0375    -0.8395 H       
  38 H38            2.0517     5.0400    -1.4129 H       
  39 H39           -4.2807    -0.0158     1.9886 H       
  40 H40           -6.4345    -1.1992     1.9974 H       
  41 H41           -5.6032    -2.7631    -1.8971 H       
  42 H42           -3.4499    -1.5788    -1.9196 H       
  43 H43           -8.2103    -2.1805     1.9924 H       
  44 H44           -9.7423    -4.6159    -1.0719 H       
  45 H45           -7.4065    -3.7418    -1.8854 H       
@<TRIPOS>BOND
   1    1    2 am
   2    1   10 1
   3    1    6 1
   4    2    3 1
   5    2    7 2
   6    3    4 2
   7    3    8 1
   8    4    5 1
   9    4   15 1
  10    5    6 2
  11    5   26 1
  12    6   27 1
  13    8    9 3
  14   10   11 1
  15   10   28 1
  16   10   29 1
  17   11   12 1
  18   11   30 1
  19   11   31 1
  20   12   13 1
  21   12   14 1
  22   12   32 1
  23   13   33 1
  24   13   34 1
  25   13   35 1
  26   14   36 1
  27   14   37 1
  28   14   38 1
  29   15   16 ar
  30   15   20 ar
  31   16   17 ar
  32   16   39 1
  33   17   18 ar
  34   17   40 1
  35   18   19 ar
  36   18   21 1
  37   19   20 ar
  38   19   41 1
  39   20   42 1
  40   21   22 1
  41   21   25 1
  42   22   23 2
  43   22   43 1
  44   23   24 1
  45   24   25 2
  46   24   44 1
  47   25   45 1

#	End of record

