#	Name: ASD00069229
#	Creating user name:	WinNT
#	Creation time:	15. 06. 2019 18:29

#	Modifying user name:	WinNT
#	Modification time:	15. 06. 2019 18:29

#	Program:	/corina/corina34_cracker 3.40 0067  02.08.2006

@<TRIPOS>MOLECULE
ASD00069229
  92   97    0    0    0
SMALL
NO_CHARGES


@<TRIPOS>ATOM
   1 C1             0.6541     1.1702    -0.7486 C.2     
   2 N2             0.3100    -0.0928    -0.8590 N.2     
   3 C3             1.3794    -0.8608    -0.6122 C.2     
   4 C4             2.4413    -0.0285    -0.3345 C.2     
   5 N5             1.9801     1.2384    -0.4217 N.pl3   
   6 C6            -0.2409     2.3246    -0.9503 C.2     
   7 O7             0.1873     3.4557    -0.8219 O.2     
   8 N8            -1.5333     2.1264    -1.2769 N.am    
   9 C9             2.5834    -4.3196    -0.3867 C.ar    
  10 N10            2.5454    -2.9966    -0.3693 N.ar    
  11 C11            1.4139    -2.3427    -0.6341 C.ar    
  12 C12            0.2643    -3.0720    -0.9314 C.ar    
  13 C13            0.3459    -4.4629    -0.9394 C.ar    
  14 N14            1.5104    -5.0447    -0.6650 N.ar    
  15 N15            3.7779    -4.9626    -0.1122 N.pl3   
  16 C16            4.9781    -4.1797     0.1923 C.3     
  17 N17           -0.7714    -5.2302    -1.2290 N.3     
  18 C18           -0.4517    -6.6687    -1.1796 C.3     
  19 C19           -1.4115    -7.3155    -0.1588 C.3     
  20 C20           -2.5949    -6.3136    -0.1083 C.3     
  21 C21           -1.8641    -4.9576    -0.2711 C.3     
  22 O22           -0.7875    -7.4253     1.1221 O.3     
  23 C23           -1.6107    -8.0333     2.1195 C.3     
  24 C24           -1.8756    -8.6645    -0.6444 C.2     
  25 N25           -1.1037    -9.7523    -0.4515 N.am    
  26 O26           -2.9438    -8.7712    -1.2088 O.2     
  27 C27           -1.6001   -11.0786    -0.8269 C.3     
  28 C28           -0.4157   -12.0062    -1.1056 C.3     
  29 C29           -0.9341   -13.3913    -1.4978 C.3     
  30 C30           -1.7728   -13.9647    -0.3538 C.3     
  31 C31           -2.9571   -13.0370    -0.0751 C.3     
  32 C32           -2.4388   -11.6519     0.3170 C.3     
  33 C33           -2.4077     3.2165    -1.3681 C.ar    
  34 C34           -3.6028     3.0966    -2.0761 C.ar    
  35 C35           -4.4652     4.1814    -2.1626 C.ar    
  36 C36           -4.1364     5.3767    -1.5467 C.ar    
  37 C37           -2.9508     5.4938    -0.8449 C.ar    
  38 C38           -2.0897     4.4167    -0.7494 C.ar    
  39 F39           -5.6242     4.0706    -2.8478 F       
  40 N40           -3.9322     1.8858    -2.6986 N.3     
  41 C41           -5.1917     1.3475    -2.1691 C.3     
  42 C42           -5.4448    -0.0399    -2.7634 C.3     
  43 C43           -5.5160     0.0689    -4.2890 C.3     
  44 C44           -4.2112     0.6771    -4.8109 C.3     
  45 C45           -3.9939     2.0437    -4.1573 C.3     
  46 C46           -5.7082    -1.3238    -4.8926 C.3     
  47 N47           -5.8960    -1.2065    -6.3448 N.3     
  48 H48            3.4497    -0.3308    -0.0931 H       
  49 H49            2.4952     2.0479    -0.2789 H       
  50 H50           -1.8579     1.2286    -1.4489 H       
  51 H51           -0.6674    -2.5713    -1.1499 H       
  52 H52            3.8203    -5.9317    -0.1214 H       
  53 H53            5.2149    -3.5340    -0.6533 H       
  54 H54            4.7986    -3.5687     1.0769 H       
  55 H55            5.8138    -4.8539     0.3799 H       
  56 H56           -0.6000    -7.1155    -2.1627 H       
  57 H57            0.5804    -6.8084    -0.8582 H       
  58 H58           -3.2873    -6.4854    -0.9324 H       
  59 H59           -3.1107    -6.3666     0.8505 H       
  60 H60           -1.4572    -4.6285     0.6851 H       
  61 H61           -2.5433    -4.2064    -0.6741 H       
  62 H62           -1.0832    -8.0369     3.0733 H       
  63 H63           -2.5377    -7.4687     2.2191 H       
  64 H64           -1.8391    -9.0581     1.8267 H       
  65 H65           -0.2196    -9.6571    -0.0641 H       
  66 H66           -2.2155   -10.9960    -1.7227 H       
  67 H67            0.1818   -11.5978    -1.9206 H       
  68 H68            0.1998   -12.0888    -0.2099 H       
  69 H69           -1.5496   -13.3087    -2.3935 H       
  70 H70           -0.0903   -14.0522    -1.6963 H       
  71 H71           -2.1421   -14.9514    -0.6331 H       
  72 H72           -1.1573   -14.0472     0.5420 H       
  73 H73           -3.5726   -12.9544    -0.9709 H       
  74 H74           -3.5547   -13.4454     0.7399 H       
  75 H75           -1.8233   -11.7345     1.2128 H       
  76 H76           -3.2825   -10.9910     0.5156 H       
  77 H77           -4.8076     6.2201    -1.6147 H       
  78 H78           -2.6987     6.4286    -0.3664 H       
  79 H79           -1.1669     4.5109    -0.1963 H       
  80 H80           -5.1263     1.2712    -1.0838 H       
  81 H81           -6.0124     2.0127    -2.4375 H       
  82 H82           -4.6314    -0.7095    -2.4838 H       
  83 H83           -6.3875    -0.4326    -2.3822 H       
  84 H84           -6.3535     0.7075    -4.5700 H       
  85 H85           -3.3784     0.0188    -4.5636 H       
  86 H86           -4.2725     0.7967    -5.8926 H       
  87 H87           -4.8201     2.7057    -4.4163 H       
  88 H88           -3.0584     2.4731    -4.5159 H       
  89 H89           -4.8278    -1.9331    -4.6881 H       
  90 H90           -6.5862    -1.7938    -4.4495 H       
  91 H91           -5.1240    -0.7160    -6.7708 H       
  92 H92           -6.0252    -2.1137    -6.7671 H       
@<TRIPOS>BOND
   1    1    2 2
   2    1    5 1
   3    1    6 1
   4    2    3 1
   5    3    4 2
   6    3   11 1
   7    4    5 1
   8    4   48 1
   9    5   49 1
  10    6    7 2
  11    6    8 am
  12    8   33 1
  13    8   50 1
  14    9   10 ar
  15    9   14 ar
  16    9   15 1
  17   10   11 ar
  18   11   12 ar
  19   12   13 ar
  20   12   51 1
  21   13   14 ar
  22   13   17 1
  23   15   16 1
  24   15   52 1
  25   16   53 1
  26   16   54 1
  27   16   55 1
  28   17   18 1
  29   17   21 1
  30   18   19 1
  31   18   56 1
  32   18   57 1
  33   19   20 1
  34   19   22 1
  35   19   24 1
  36   20   21 1
  37   20   58 1
  38   20   59 1
  39   21   60 1
  40   21   61 1
  41   22   23 1
  42   23   62 1
  43   23   63 1
  44   23   64 1
  45   24   25 am
  46   24   26 2
  47   25   27 1
  48   25   65 1
  49   27   28 1
  50   27   32 1
  51   27   66 1
  52   28   29 1
  53   28   67 1
  54   28   68 1
  55   29   30 1
  56   29   69 1
  57   29   70 1
  58   30   31 1
  59   30   71 1
  60   30   72 1
  61   31   32 1
  62   31   73 1
  63   31   74 1
  64   32   75 1
  65   32   76 1
  66   33   34 ar
  67   33   38 ar
  68   34   35 ar
  69   34   40 1
  70   35   36 ar
  71   35   39 1
  72   36   37 ar
  73   36   77 1
  74   37   38 ar
  75   37   78 1
  76   38   79 1
  77   40   41 1
  78   40   45 1
  79   41   42 1
  80   41   80 1
  81   41   81 1
  82   42   43 1
  83   42   82 1
  84   42   83 1
  85   43   44 1
  86   43   46 1
  87   43   84 1
  88   44   45 1
  89   44   85 1
  90   44   86 1
  91   45   87 1
  92   45   88 1
  93   46   47 1
  94   46   89 1
  95   46   90 1
  96   47   91 1
  97   47   92 1

#	End of record

