#	Name: ASD01410184
#	Creating user name:	WinNT
#	Creation time:	15. 06. 2019 19:16

#	Modifying user name:	WinNT
#	Modification time:	15. 06. 2019 19:16

#	Program:	/corina/corina34_cracker 3.40 0067  02.08.2006

@<TRIPOS>MOLECULE
ASD01410184
  48   51    0    0    0
SMALL
NO_CHARGES


@<TRIPOS>ATOM
   1 C1            -0.0170     1.4056     0.0098 C.ar    
   2 C2             0.0021    -0.0041     0.0020 C.ar    
   3 C3            -1.2036    -0.7207     0.0101 C.ar    
   4 C4            -2.3909    -0.0560     0.0249 C.ar    
   5 C5            -2.4199     1.3469     0.0323 C.ar    
   6 C6            -1.2308     2.0744     0.0300 C.ar    
   7 N7             1.2951     1.8326    -0.0005 N.pl3   
   8 C8             2.1186     0.7320    -0.0142 C.2     
   9 C9             1.3625    -0.3951    -0.0131 C.2     
  10 C10            1.3884    -2.5438     1.2245 C.3     
  11 C11            1.9130    -3.9810     1.2118 C.3     
  12 C12            1.3984    -4.7007    -0.0365 C.3     
  13 C13            1.8891    -3.9676    -1.2866 C.3     
  14 C14            1.3646    -2.5304    -1.2739 C.3     
  15 C15            1.8791    -1.8107    -0.0256 C.3     
  16 C16           -3.7131     2.0542     0.0474 C.2     
  17 O17           -3.7412     3.2690     0.0538 O.2     
  18 O18           -4.8644     1.3536     0.0541 O.3     
  19 C19            5.7065    -0.0291     0.7947 C.ar    
  20 C20            6.3648     0.8415    -0.0554 C.ar    
  21 C21            5.6462     1.6767    -0.8923 C.ar    
  22 C22            4.2669     1.6461    -0.8838 C.ar    
  23 C23            3.5967     0.7702    -0.0286 C.ar    
  24 C24            4.3276    -0.0696     0.8130 C.ar    
  25 C25            1.7377     3.2291     0.0028 C.3     
  26 H26           -1.1896    -1.8006     0.0041 H       
  27 H27           -3.3169    -0.6118     0.0307 H       
  28 H28           -1.2553     3.1541     0.0356 H       
  29 H29            0.2985    -2.5549     1.2348 H       
  30 H30            1.7550    -2.0311     2.1138 H       
  31 H31            3.0029    -3.9699     1.2014 H       
  32 H32            1.5634    -4.5033     2.1023 H       
  33 H33            1.7721    -5.7246    -0.0456 H       
  34 H34            0.3085    -4.7118    -0.0262 H       
  35 H35            2.9790    -3.9565    -1.2969 H       
  36 H36            1.5226    -4.4803    -2.1759 H       
  37 H37            1.7142    -2.0081    -2.1644 H       
  38 H38            0.2747    -2.5415    -1.2635 H       
  39 H39            2.9690    -1.7996    -0.0359 H       
  40 H40           -5.6873     1.8614     0.0640 H       
  41 H41            6.2734    -0.6816     1.4423 H       
  42 H42            7.4444     0.8696    -0.0657 H       
  43 H43            6.1660     2.3543    -1.5533 H       
  44 H44            3.7071     2.2988    -1.5372 H       
  45 H45            3.8149    -0.7500     1.4769 H       
  46 H46            1.8577     3.5699     1.0312 H       
  47 H47            2.6907     3.3095    -0.5201 H       
  48 H48            0.9940     3.8472    -0.5003 H       
@<TRIPOS>BOND
   1    1    2 ar
   2    1    7 1
   3    1    6 ar
   4    2    3 ar
   5    2    9 1
   6    3    4 ar
   7    3   26 1
   8    4    5 ar
   9    4   27 1
  10    5    6 ar
  11    5   16 1
  12    6   28 1
  13    7    8 1
  14    7   25 1
  15    8    9 2
  16    8   23 1
  17    9   15 1
  18   10   11 1
  19   10   15 1
  20   10   29 1
  21   10   30 1
  22   11   12 1
  23   11   31 1
  24   11   32 1
  25   12   13 1
  26   12   33 1
  27   12   34 1
  28   13   14 1
  29   13   35 1
  30   13   36 1
  31   14   15 1
  32   14   37 1
  33   14   38 1
  34   15   39 1
  35   16   17 2
  36   16   18 1
  37   18   40 1
  38   19   20 ar
  39   19   24 ar
  40   19   41 1
  41   20   21 ar
  42   20   42 1
  43   21   22 ar
  44   21   43 1
  45   22   23 ar
  46   22   44 1
  47   23   24 ar
  48   24   45 1
  49   25   46 1
  50   25   47 1
  51   25   48 1

#	End of record

