#	Name: ASD04882407
#	Creating user name:	WinNT
#	Creation time:	15. 06. 2019 20:54

#	Modifying user name:	WinNT
#	Modification time:	15. 06. 2019 20:54

#	Program:	/corina/corina34_cracker 3.40 0067  02.08.2006

@<TRIPOS>MOLECULE
ASD04882407
  77   82    0    0    0
SMALL
NO_CHARGES


@<TRIPOS>ATOM
   1 C1            -0.0215     1.4012    -0.0092 C.ar    
   2 C2            -0.0115     0.0036    -0.0053 C.ar    
   3 C3            -1.2093    -0.7019    -0.0165 C.ar    
   4 C4            -2.4096    -0.0269    -0.0320 C.ar    
   5 C5            -2.4267     1.3707    -0.0364 C.ar    
   6 C6            -1.2239     2.0825    -0.0185 C.ar    
   7 N7             1.1998    -0.6830     0.0094 N.3     
   8 C8             1.3071    -1.5363     1.2011 C.3     
   9 C9             1.3723    -1.4731    -1.2176 C.3     
  10 C10            2.7461    -2.1473    -1.1982 C.3     
  11 N11            2.8534    -3.0005    -0.0065 N.3     
  12 C12            2.6809    -2.2105     1.2206 C.3     
  13 C13           -3.7126     2.0937    -0.0540 C.2     
  14 O14           -3.7265     3.3095    -0.0578 O.2     
  15 C15            4.0691    -3.6897     0.0083 C.ar    
  16 C16            5.2668    -2.9876     0.0190 C.ar    
  17 C17            4.0819    -5.0799     0.0180 C.ar    
  18 C18            5.2858    -5.7576     0.0331 C.ar    
  19 C19            6.4768    -5.0543     0.0385 C.ar    
  20 C20            6.4670    -3.6718     0.0341 C.ar    
  21 N21           -4.8719     1.4064    -0.0657 N.am    
  22 C22           -6.1489     2.1243    -0.0830 C.3     
  23 C23           -7.3003     1.1168    -0.0937 C.3     
  24 C24           -8.6338     1.8666    -0.1118 C.3     
  25 N25            1.1866     2.1110     0.0021 N.am    
  26 C26            1.2296     3.3600     0.5068 C.2     
  27 O27            0.2069     3.8985     0.8853 O.2     
  28 C28            2.5162     4.0733     0.5999 C.2     
  29 N29            3.7329     3.5991     0.2178 N.2     
  30 C30            4.6245     4.5142     0.4546 C.2     
  31 O31            4.0246     5.5882     0.9871 O.3     
  32 C32            2.7098     5.3324     1.0790 C.2     
  33 N33           -9.7363     0.9019    -0.1220 N.am    
  34 C34          -10.3206     0.4062     0.9824 C.2     
  35 C35          -10.3489     0.3572    -1.3394 C.3     
  36 C36          -11.1256    -0.8980    -0.8839 C.3     
  37 C37          -11.4129    -0.5683     0.6004 C.3     
  38 O38          -10.0160     0.6973     2.1197 O.2     
  39 C39            6.1000     4.3876     0.1756 C.3     
  40 C40            6.7251     5.3953    -0.7913 C.3     
  41 C41            7.0167     5.4910     0.7076 C.3     
  42 Cl42           2.5873    -5.9630     0.0118 Cl      
  43 H43           -1.1986    -1.7819    -0.0134 H       
  44 H44           -3.3385    -0.5778    -0.0410 H       
  45 H45           -1.2340     3.1624    -0.0215 H       
  46 H46            1.1885    -0.9265     2.0968 H       
  47 H47            0.5283    -2.2984     1.1740 H       
  48 H48            0.5942    -2.2345    -1.2722 H       
  49 H49            1.3013    -0.8173    -2.0854 H       
  50 H50            2.8647    -2.7571    -2.0939 H       
  51 H51            3.5249    -1.3851    -1.1711 H       
  52 H52            3.4590    -1.4490     1.2752 H       
  53 H53            2.7519    -2.8663     2.0883 H       
  54 H54            5.2604    -1.9076     0.0153 H       
  55 H55            5.2970    -6.8375     0.0410 H       
  56 H56            7.4166    -5.5863     0.0506 H       
  57 H57            7.3989    -3.1259     0.0383 H       
  58 H58           -4.8608     0.4365    -0.0626 H       
  59 H59           -6.2244     2.7530     0.8042 H       
  60 H60           -6.2032     2.7476    -0.9756 H       
  61 H61           -7.2248     0.4881    -0.9809 H       
  62 H62           -7.2460     0.4936     0.7989 H       
  63 H63           -8.7093     2.4952     0.7754 H       
  64 H64           -8.6882     2.4898    -1.0044 H       
  65 H65            1.9919     1.7035    -0.3534 H       
  66 H66            1.9512     5.9967     1.4659 H       
  67 H67          -11.0321     1.0856    -1.7762 H       
  68 H68           -9.5779     0.0831    -2.0594 H       
  69 H69          -12.0540    -1.0071    -1.4444 H       
  70 H70          -10.5093    -1.7925    -0.9750 H       
  71 H71          -11.3507    -1.4695     1.2104 H       
  72 H72          -12.3929    -0.1026     0.7050 H       
  73 H73            6.4908     3.3702     0.1643 H       
  74 H74            7.5274     5.0408    -1.4384 H       
  75 H75            6.0691     6.1497    -1.2255 H       
  76 H76            6.5526     6.3085     1.2595 H       
  77 H77            8.0109     5.1996     1.0466 H       
@<TRIPOS>BOND
   1    1    2 ar
   2    1   25 1
   3    1    6 ar
   4    2    3 ar
   5    2    7 1
   6    3    4 ar
   7    3   43 1
   8    4    5 ar
   9    4   44 1
  10    5    6 ar
  11    5   13 1
  12    6   45 1
  13    7    8 1
  14    7    9 1
  15    8   12 1
  16    8   46 1
  17    8   47 1
  18    9   10 1
  19    9   48 1
  20    9   49 1
  21   10   11 1
  22   10   50 1
  23   10   51 1
  24   11   12 1
  25   11   15 1
  26   12   52 1
  27   12   53 1
  28   13   14 2
  29   13   21 am
  30   15   16 ar
  31   15   17 ar
  32   16   20 ar
  33   16   54 1
  34   17   18 ar
  35   17   42 1
  36   18   19 ar
  37   18   55 1
  38   19   20 ar
  39   19   56 1
  40   20   57 1
  41   21   22 1
  42   21   58 1
  43   22   23 1
  44   22   59 1
  45   22   60 1
  46   23   24 1
  47   23   61 1
  48   23   62 1
  49   24   33 1
  50   24   63 1
  51   24   64 1
  52   25   26 am
  53   25   65 1
  54   26   27 2
  55   26   28 1
  56   28   29 1
  57   28   32 2
  58   29   30 2
  59   30   31 1
  60   30   39 1
  61   31   32 1
  62   32   66 1
  63   33   34 am
  64   33   35 1
  65   34   38 2
  66   34   37 1
  67   35   36 1
  68   35   67 1
  69   35   68 1
  70   36   37 1
  71   36   69 1
  72   36   70 1
  73   37   71 1
  74   37   72 1
  75   39   40 1
  76   39   41 1
  77   39   73 1
  78   40   41 1
  79   40   74 1
  80   40   75 1
  81   41   76 1
  82   41   77 1

#	End of record

