#	Name: ASD01208429
#	Creating user name:	WinNT
#	Creation time:	15. 06. 2019 19:09

#	Modifying user name:	WinNT
#	Modification time:	15. 06. 2019 19:09

#	Program:	/corina/corina34_cracker 3.40 0067  02.08.2006

@<TRIPOS>MOLECULE
ASD01208429
  37   39    0    0    0
SMALL
NO_CHARGES


@<TRIPOS>ATOM
   1 N1            -0.0166     1.3760     0.0096 N.am    
   2 C2             0.0021    -0.0041     0.0020 C.2     
   3 C3             1.3070    -0.4018    -0.0126 C.2     
   4 C4             2.1003     0.7568    -0.0139 C.2     
   5 C5             1.2750     1.8251    -0.0003 C.2     
   6 C6            -1.1203     2.1495     0.0193 C.2     
   7 O7            -2.2210     1.6368     0.0220 O.2     
   8 O8            -1.0024     3.4899     0.0260 O.3     
   9 S9            -1.1099    -2.6440    -0.0011 S.3     
  10 C10           -1.1734    -0.8871     0.0089 C.2     
  11 N11           -2.4018    -0.4822     0.0233 N.2     
  12 C12           -3.3704    -1.4137     0.0279 C.ar    
  13 C13           -2.8701    -2.7212     0.0159 C.ar    
  14 C14           -4.7711    -1.2318     0.0427 C.ar    
  15 C15           -5.6120    -2.3152     0.0457 C.ar    
  16 C16           -5.1025    -3.6057     0.0338 C.ar    
  17 C17           -3.7406    -3.8086     0.0183 C.ar    
  18 C18           -2.2334     4.2598     0.0363 C.3     
  19 C19           -3.0420     3.9120     1.2877 C.3     
  20 C20           -1.9008     5.7532     0.0427 C.3     
  21 C21           -3.0544     3.9256    -1.2108 C.3     
  22 H22            1.6643    -1.4209    -0.0215 H       
  23 H23            3.1798     0.7878    -0.0241 H       
  24 H24            1.5831     2.8602     0.0018 H       
  25 H25           -5.1824    -0.2332     0.0522 H       
  26 H26           -6.6811    -2.1623     0.0579 H       
  27 H27           -5.7743    -4.4513     0.0363 H       
  28 H28           -3.3461    -4.8139     0.0087 H       
  29 H29           -2.4571     4.1501     2.1761 H       
  30 H30           -3.9661     4.4900     1.2954 H       
  31 H31           -3.2790     2.8481     1.2831 H       
  32 H32           -1.3247     6.0010    -0.8488 H       
  33 H33           -2.8249     6.3313     0.0504 H       
  34 H34           -1.3159     5.9914     0.9311 H       
  35 H35           -3.2914     2.8617    -1.2154 H       
  36 H36           -3.9785     4.5036    -1.2030 H       
  37 H37           -2.4783     4.1734    -2.1023 H       
@<TRIPOS>BOND
   1    1    2 1
   2    1    5 1
   3    1    6 am
   4    2    3 2
   5    2   10 1
   6    3    4 1
   7    3   22 1
   8    4    5 2
   9    4   23 1
  10    5   24 1
  11    6    7 2
  12    6    8 1
  13    8   18 1
  14    9   10 1
  15    9   13 1
  16   10   11 2
  17   11   12 1
  18   12   13 ar
  19   12   14 ar
  20   13   17 ar
  21   14   15 ar
  22   14   25 1
  23   15   16 ar
  24   15   26 1
  25   16   17 ar
  26   16   27 1
  27   17   28 1
  28   18   19 1
  29   18   21 1
  30   18   20 1
  31   19   29 1
  32   19   30 1
  33   19   31 1
  34   20   32 1
  35   20   33 1
  36   20   34 1
  37   21   35 1
  38   21   36 1
  39   21   37 1

#	End of record

