#	Name: ASD03091522
#	Creating user name:	WinNT
#	Creation time:	15. 06. 2019 20:30

#	Modifying user name:	WinNT
#	Modification time:	15. 06. 2019 20:30

#	Program:	/corina/corina34_cracker 3.40 0067  02.08.2006

@<TRIPOS>MOLECULE
ASD03091522
  44   46    0    0    0
SMALL
NO_CHARGES


@<TRIPOS>ATOM
   1 C1            -0.0170     1.4015     0.0097 C.ar    
   2 C2             0.0021    -0.0041     0.0020 C.ar    
   3 C3             1.2295    -0.6665    -0.0128 C.ar    
   4 C4             2.4032     0.0636    -0.0197 C.ar    
   5 C5             2.3740     1.4514    -0.0120 C.ar    
   6 C6             1.1827     2.1196     0.0021 C.ar    
   7 O7            -1.2767    -0.4296     0.0119 O.3     
   8 C8            -2.1302     0.6153     0.0257 C.2     
   9 C9            -1.4298     1.7789     0.0311 C.2     
  10 C10           -3.5963     0.5101     0.0391 C.2     
  11 O11           -4.2783     1.5174     0.0506 O.2     
  12 N12           -4.1850    -0.7023     0.0387 N.am    
  13 N13           -6.8761    -1.9604     1.8278 N.3     
  14 C14           -6.1533    -0.7255     1.4948 C.3     
  15 C15           -5.6461    -0.8071     0.0521 C.3     
  16 C16           -6.0703    -2.1543    -0.5462 C.3     
  17 C17           -7.6001    -2.2533    -0.4929 C.3     
  18 C18           -8.0530    -2.1323     0.9649 C.3     
  19 C19           -5.9894    -3.1293     1.7467 C.3     
  20 C20           -5.4770    -3.2791     0.3115 C.3     
  21 O21            1.2714    -2.0255    -0.0201 O.3     
  22 C22            2.5640    -2.6347    -0.0353 C.3     
  23 H23            3.3526    -0.4509    -0.0308 H       
  24 H24            3.3001     2.0070    -0.0171 H       
  25 H25            1.1675     3.1995     0.0078 H       
  26 H26           -1.8343     2.7802     0.0420 H       
  27 H27           -3.6412    -1.5055     0.0296 H       
  28 H28           -6.8244     0.1273     1.5966 H       
  29 H29           -5.3072    -0.6057     2.1714 H       
  30 H30           -6.0779     0.0047    -0.5333 H       
  31 H31           -5.7254    -2.2317    -1.5773 H       
  32 H32           -8.0390    -1.4465    -1.0798 H       
  33 H33           -7.9181    -3.2150    -0.8954 H       
  34 H34           -8.5882    -3.0362     1.2557 H       
  35 H35           -8.7108    -1.2697     1.0709 H       
  36 H36           -5.1448    -2.9926     2.4221 H       
  37 H37           -6.5415    -4.0251     2.0311 H       
  38 H38           -5.7864    -4.2449    -0.0878 H       
  39 H39           -4.3892    -3.2098     0.3030 H       
  40 H40            2.4545    -3.7192    -0.0397 H       
  41 H41            3.1033    -2.3203    -0.9288 H       
  42 H42            3.1200    -2.3293     0.8511 H       
  43 Cl43           8.3526     8.1995     7.4221 Cl      
  44 H44            8.3526     9.5695     7.4221 H       
@<TRIPOS>BOND
   1    1    2 ar
   2    1    6 ar
   3    1    9 1
   4    2    3 ar
   5    2    7 1
   6    3    4 ar
   7    3   21 1
   8    4    5 ar
   9    4   23 1
  10    5    6 ar
  11    5   24 1
  12    6   25 1
  13    7    8 1
  14    8    9 2
  15    8   10 1
  16    9   26 1
  17   10   11 2
  18   10   12 am
  19   12   15 1
  20   12   27 1
  21   13   14 1
  22   13   18 1
  23   13   19 1
  24   14   15 1
  25   14   28 1
  26   14   29 1
  27   15   16 1
  28   15   30 1
  29   16   17 1
  30   16   20 1
  31   16   31 1
  32   17   18 1
  33   17   32 1
  34   17   33 1
  35   18   34 1
  36   18   35 1
  37   19   20 1
  38   19   36 1
  39   19   37 1
  40   20   38 1
  41   20   39 1
  42   21   22 1
  43   22   40 1
  44   22   41 1
  45   22   42 1
  46   43   44 1

#	End of record

