#	Name: ASD00311193
#	Creating user name:	WinNT
#	Creation time:	15. 06. 2019 18:34

#	Modifying user name:	WinNT
#	Modification time:	15. 06. 2019 18:34

#	Program:	/corina/corina34_cracker 3.40 0067  02.08.2006

@<TRIPOS>MOLECULE
ASD00311193
  40   43    0    0    0
SMALL
NO_CHARGES


@<TRIPOS>ATOM
   1 C1            -0.0167     1.3776     0.0096 C.2     
   2 C2             0.0021    -0.0041     0.0020 C.2     
   3 C3             1.2587    -0.6766    -0.0136 C.2     
   4 C4             2.4314     0.0671    -0.0208 C.2     
   5 C5             2.3576     1.4748    -0.0126 C.2     
   6 N6             1.1651     2.0902     0.0022 N.am    
   7 C7            -1.3434    -0.5753     0.0123 C.2     
   8 C8            -2.3231     0.3265     0.0268 C.2     
   9 S9            -1.6791     1.9564     0.0358 S.3     
  10 O10            3.3826     2.1367    -0.0188 O.2     
  11 O11            1.3086    -2.0293    -0.0209 O.3     
  12 C12            3.7477    -0.6125    -0.0366 C.ar    
  13 C13            4.5930    -0.4749    -1.1372 C.ar    
  14 C14            5.8179    -1.1099    -1.1471 C.ar    
  15 C15            6.2084    -1.8835    -0.0662 C.ar    
  16 C16            5.3720    -2.0237     1.0294 C.ar    
  17 C17            4.1480    -1.3874     1.0517 C.ar    
  18 F18            7.4086    -2.5037    -0.0808 F       
  19 C19           -1.5960    -2.0355     0.0062 C.ar    
  20 C20           -1.7280    -2.7201    -1.2058 C.ar    
  21 C21           -1.9637    -4.0864    -1.2021 C.ar    
  22 C22           -2.0682    -4.7684    -0.0015 C.ar    
  23 C23           -1.9384    -4.0925     1.1984 C.ar    
  24 C24           -1.6973    -2.7333     1.2084 C.ar    
  25 C25           -2.3250    -6.2534    -0.0022 C.3     
  26 O26           -1.6259    -2.0485    -2.3835 O.3     
  27 F27           -2.0920    -4.7526    -2.3704 F       
  28 Cl28          -4.0152    -0.0613     0.0415 Cl      
  29 H29            1.1331     3.0596     0.0073 H       
  30 H30            2.2058    -2.3897    -0.0315 H       
  31 H31            4.2891     0.1274    -1.9806 H       
  32 H32            6.4732    -1.0039    -1.9991 H       
  33 H33            5.6806    -2.6285     1.8693 H       
  34 H34            3.4988    -1.4934     1.9082 H       
  35 H35           -2.0218    -4.6310     2.1309 H       
  36 H36           -1.5921    -2.2101     2.1473 H       
  37 H37           -1.3744    -6.7865    -0.0137 H       
  38 H38           -2.8836    -6.5259     0.8932 H       
  39 H39           -2.9028    -6.5218    -0.8866 H       
  40 H40           -0.7259    -2.0041    -2.7343 H       
@<TRIPOS>BOND
   1    1    2 2
   2    1    6 1
   3    1    9 1
   4    2    3 1
   5    2    7 1
   6    3    4 2
   7    3   11 1
   8    4    5 1
   9    4   12 1
  10    5    6 am
  11    5   10 2
  12    6   29 1
  13    7    8 2
  14    7   19 1
  15    8    9 1
  16    8   28 1
  17   11   30 1
  18   12   13 ar
  19   12   17 ar
  20   13   14 ar
  21   13   31 1
  22   14   15 ar
  23   14   32 1
  24   15   16 ar
  25   15   18 1
  26   16   17 ar
  27   16   33 1
  28   17   34 1
  29   19   20 ar
  30   19   24 ar
  31   20   21 ar
  32   20   26 1
  33   21   22 ar
  34   21   27 1
  35   22   23 ar
  36   22   25 1
  37   23   24 ar
  38   23   35 1
  39   24   36 1
  40   25   37 1
  41   25   38 1
  42   25   39 1
  43   26   40 1

#	End of record

