#	Name: ASD07030041
#	Creating user name:	WinNT
#	Creation time:	15. 06. 2019 21:08

#	Modifying user name:	WinNT
#	Modification time:	15. 06. 2019 21:08

#	Program:	/corina/corina34_cracker 3.40 0067  02.08.2006

@<TRIPOS>MOLECULE
ASD07030041
  29   29    0    0    0
SMALL
NO_CHARGES


@<TRIPOS>ATOM
   1 C1            -0.0178     1.4644     0.0101 C.2     
   2 C2             0.0021    -0.0041     0.0020 C.ar    
   3 C3            -1.1996    -0.7231     0.0096 C.ar    
   4 C4            -1.1755    -2.0940     0.0016 C.ar    
   5 C5             0.0396    -2.7705    -0.0137 C.ar    
   6 C6             1.2359    -2.0612    -0.0208 C.ar    
   7 C7             1.2228    -0.6901    -0.0192 C.ar    
   8 O8             1.0242     2.0851     0.0035 O.2     
   9 O9             0.0580    -4.1270    -0.0212 O.3     
  10 C10            1.3399    -4.7583    -0.0368 C.3     
  11 O11            1.9337    -4.6630     1.2595 O.3     
  12 C12            1.3683    -5.5523     2.2246 C.3     
  13 C13            2.0767    -5.3646     3.5676 C.3     
  14 O14            1.8146    -4.0509     4.0650 O.3     
  15 C15            2.4338    -3.7710     5.3221 C.3     
  16 H16           -0.9604     1.9916     0.0174 H       
  17 H17           -2.1437    -0.1987     0.0222 H       
  18 H18           -2.1017    -2.6495     0.0074 H       
  19 H19            2.1768    -2.5912    -0.0320 H       
  20 H20            2.1522    -0.1402    -0.0296 H       
  21 H21            1.2246    -5.8079    -0.3074 H       
  22 H22            1.9799    -4.2631    -0.7670 H       
  23 H23            0.3064    -5.3353     2.3405 H       
  24 H24            1.4942    -6.5814     1.8881 H       
  25 H25            1.7075    -6.1030     4.2795 H       
  26 H26            3.1506    -5.4948     3.4333 H       
  27 H27            2.0720    -4.4762     6.0703 H       
  28 H28            3.5151    -3.8680     5.2241 H       
  29 H29            2.1867    -2.7552     5.6307 H       
@<TRIPOS>BOND
   1    1    2 1
   2    1    8 2
   3    1   16 1
   4    2    3 ar
   5    2    7 ar
   6    3    4 ar
   7    3   17 1
   8    4    5 ar
   9    4   18 1
  10    5    6 ar
  11    5    9 1
  12    6    7 ar
  13    6   19 1
  14    7   20 1
  15    9   10 1
  16   10   11 1
  17   10   21 1
  18   10   22 1
  19   11   12 1
  20   12   13 1
  21   12   23 1
  22   12   24 1
  23   13   14 1
  24   13   25 1
  25   13   26 1
  26   14   15 1
  27   15   27 1
  28   15   28 1
  29   15   29 1

#	End of record

