#	Name: ASD07932192
#	Creating user name:	WinNT
#	Creation time:	15. 06. 2019 21:14

#	Modifying user name:	WinNT
#	Modification time:	15. 06. 2019 21:14

#	Program:	/corina/corina34_cracker 3.40 0067  02.08.2006

@<TRIPOS>MOLECULE
ASD07932192
  70   72    0    0    0
SMALL
NO_CHARGES


@<TRIPOS>ATOM
   1 Cl1            0.0000     0.0000     0.0000 Cl      
   2 H2             0.0000     1.3700     0.0000 H       
   3 Cl3            5.0000     6.3700     5.0000 Cl      
   4 H4             5.0000     7.7400     5.0000 H       
   5 N5            17.4241    18.5667    18.7325 N.ar    
   6 C6            17.4331    17.2493    18.7923 C.ar    
   7 C7            18.6328    16.5225    18.7764 C.ar    
   8 C8            19.8252    17.1822    18.6976 C.ar    
   9 C9            19.8056    18.5883    18.6342 C.ar    
  10 C10           20.9940    19.3309    18.5513 C.ar    
  11 C11           20.9361    20.6900    18.4911 C.ar    
  12 C12           19.7119    21.3563    18.5106 C.ar    
  13 C13           18.5401    20.6702    18.5902 C.ar    
  14 C14           18.5573    19.2639    18.6543 C.ar    
  15 C15           16.1452    16.5195    18.8787 C.2     
  16 O16           16.1373    15.3058    18.9345 O.2     
  17 N17           14.9834    17.2025    18.8955 N.am    
  18 C18           13.7110    16.4814    18.9809 C.3     
  19 C19           12.5973    17.3391    18.3769 C.3     
  20 C20           11.2684    16.5861    18.4661 C.3     
  21 C21           10.9467    16.2913    19.9326 C.3     
  22 C22           12.0605    15.4336    20.5366 C.3     
  23 C23           13.3893    16.1867    20.4474 C.3     
  24 O24           12.8977    17.6144    17.0072 O.3     
  25 C25           21.1282    16.4253    18.6794 C.3     
  26 N26           21.6599    16.3986    17.3103 N.3     
  27 C27           23.0747    16.0052    17.3028 C.3     
  28 C28           23.6323    16.1286    15.8830 C.3     
  29 C29           22.8274    15.2264    14.9435 C.3     
  30 C30           21.3505    15.6255    15.0066 C.3     
  31 C31           20.8590    15.5166    16.4518 C.3     
  32 C32           23.3332    15.3890    13.5333 C.ar    
  33 C33           22.9807    14.4624    12.5700 C.ar    
  34 C34           23.4510    14.6214    11.2756 C.ar    
  35 C35           24.2618    15.7114    10.9973 C.ar    
  36 C36           24.5719    16.5966    12.0120 C.ar    
  37 N37           24.1024    16.4165    13.2312 N.ar    
  38 C38           22.9761    13.8231    15.3620 C.1     
  39 N39           23.0908    12.7400    15.6850 N.1     
  40 H40           18.6131    15.4438    18.8269 H       
  41 H41           21.9490    18.8270    18.5357 H       
  42 H42           21.8515    21.2597    18.4277 H       
  43 H43           19.6935    22.4351    18.4620 H       
  44 H44           17.6003    21.2021    18.6046 H       
  45 H45           14.9898    18.1714    18.8509 H       
  46 H46           13.7870    15.5439    18.4300 H       
  47 H47           12.5213    18.2766    18.9277 H       
  48 H48           10.4749    17.1971    18.0358 H       
  49 H49           11.3443    15.6486    17.9152 H       
  50 H50           10.8708    17.2288    20.4834 H       
  51 H51           10.0000    15.7548    19.9961 H       
  52 H52           11.8313    15.2236    21.5813 H       
  53 H53           12.1364    14.4961    19.9857 H       
  54 H54           14.1828    15.5756    20.8777 H       
  55 H55           13.3134    17.1241    20.9982 H       
  56 H56           12.2327    18.1553    16.5597 H       
  57 H57           21.8438    16.9180    19.3376 H       
  58 H58           20.9604    15.4049    19.0240 H       
  59 H59           23.6365    16.6572    17.9716 H       
  60 H60           23.1664    14.9729    17.6405 H       
  61 H61           23.5536    17.1635    15.5498 H       
  62 H62           24.6782    15.8216    15.8748 H       
  63 H63           21.2358    16.6524    14.6596 H       
  64 H64           20.7660    14.9591    14.3723 H       
  65 H65           20.9610    14.4866    16.7935 H       
  66 H66           19.8115    15.8138    16.5025 H       
  67 H67           22.3473    13.6250    12.8227 H       
  68 H68           23.1923    13.9131    10.5025 H       
  69 H69           24.6463    15.8664    10.0000 H       
  70 H70           25.2028    17.4480    11.8034 H       
@<TRIPOS>BOND
   1    1    2 1
   2    3    4 1
   3    5    6 ar
   4    5   14 ar
   5    6    7 ar
   6    6   15 1
   7    7    8 ar
   8    7   40 1
   9    8    9 ar
  10    8   25 1
  11    9   10 ar
  12    9   14 ar
  13   10   11 ar
  14   10   41 1
  15   11   12 ar
  16   11   42 1
  17   12   13 ar
  18   12   43 1
  19   13   14 ar
  20   13   44 1
  21   15   16 2
  22   15   17 am
  23   17   18 1
  24   17   45 1
  25   18   19 1
  26   18   23 1
  27   18   46 1
  28   19   20 1
  29   19   24 1
  30   19   47 1
  31   20   21 1
  32   20   48 1
  33   20   49 1
  34   21   22 1
  35   21   50 1
  36   21   51 1
  37   22   23 1
  38   22   52 1
  39   22   53 1
  40   23   54 1
  41   23   55 1
  42   24   56 1
  43   25   26 1
  44   25   57 1
  45   25   58 1
  46   26   27 1
  47   26   31 1
  48   27   28 1
  49   27   59 1
  50   27   60 1
  51   28   29 1
  52   28   61 1
  53   28   62 1
  54   29   30 1
  55   29   32 1
  56   29   38 1
  57   30   31 1
  58   30   63 1
  59   30   64 1
  60   31   65 1
  61   31   66 1
  62   32   33 ar
  63   32   37 ar
  64   33   34 ar
  65   33   67 1
  66   34   35 ar
  67   34   68 1
  68   35   36 ar
  69   35   69 1
  70   36   37 ar
  71   36   70 1
  72   38   39 3

#	End of record

