#	Name: ASD03370001
#	Creating user name:	WinNT
#	Creation time:	15. 06. 2019 20:40

#	Modifying user name:	WinNT
#	Modification time:	15. 06. 2019 20:40

#	Program:	/corina/corina34_cracker 3.40 0067  02.08.2006

@<TRIPOS>MOLECULE
ASD03370001
  41   43    0    0    0
SMALL
NO_CHARGES


@<TRIPOS>ATOM
   1 C1            -0.0178     1.4649     0.0101 C.3     
   2 N2             0.0021    -0.0041     0.0020 N.am    
   3 C3            -0.5480    -0.6233    -1.2072 C.3     
   4 C4            -1.6121     0.3107    -1.8440 C.3     
   5 S5            -0.7992     1.9428    -1.5778 S.3     
   6 C6             1.5058     1.5094    -0.0042 C.3     
   7 C7             1.3465     0.0203     0.1493 C.2     
   8 C8            -1.7916     0.0150    -3.3343 C.3     
   9 C9            -2.9454     0.2250    -1.0985 C.3     
  10 O10            2.1546    -0.8634     0.3416 O.2     
  11 N11            2.0875     1.9276    -1.2821 N.am    
  12 C12            3.3132     2.4871    -1.3136 C.2     
  13 C13            3.9116     2.9173    -2.6281 C.3     
  14 O14            3.9347     2.6443    -0.2840 O.2     
  15 C15            5.2774     3.5076    -2.3891 C.ar    
  16 C16            6.3952     2.6945    -2.4105 C.ar    
  17 C17            7.6480     3.2359    -2.1912 C.ar    
  18 C18            7.7832     4.5905    -1.9509 C.ar    
  19 C19            6.6655     5.4037    -1.9303 C.ar    
  20 C20            5.4131     4.8630    -2.1539 C.ar    
  21 C21           -1.1885    -1.9394    -0.8481 C.2     
  22 O22           -1.4885    -2.1722     0.2989 O.2     
  23 O23           -1.4255    -2.8530    -1.8025 O.3     
  24 H24           -0.4781     1.9148     0.8898 H       
  25 H25            0.2558    -0.7967    -1.9226 H       
  26 H26            1.9502     2.0063     0.8582 H       
  27 H27           -2.1155    -1.0177    -3.4634 H       
  28 H28           -2.5433     0.6861    -3.7499 H       
  29 H29           -0.8441     0.1660    -3.8515 H       
  30 H30           -2.8007     0.5221    -0.0598 H       
  31 H31           -3.6685     0.8909    -1.5695 H       
  32 H32           -3.3169    -0.7991    -1.1351 H       
  33 H33            1.5904     1.8019    -2.1055 H       
  34 H34            3.9992     2.0538    -3.2874 H       
  35 H35            3.2688     3.6652    -3.0924 H       
  36 H36            6.2895     1.6362    -2.5983 H       
  37 H37            8.5212     2.6005    -2.2073 H       
  38 H38            8.7620     5.0133    -1.7789 H       
  39 H39            6.7711     6.4619    -1.7423 H       
  40 H40            4.5399     5.4984    -2.1379 H       
  41 H41           -1.8380    -3.6820    -1.5239 H       
@<TRIPOS>BOND
   1    1    2 1
   2    1    6 1
   3    1    5 1
   4    1   24 1
   5    2    3 1
   6    2    7 am
   7    3    4 1
   8    3   21 1
   9    3   25 1
  10    4    5 1
  11    4    8 1
  12    4    9 1
  13    6    7 1
  14    6   11 1
  15    6   26 1
  16    7   10 2
  17    8   27 1
  18    8   28 1
  19    8   29 1
  20    9   30 1
  21    9   31 1
  22    9   32 1
  23   11   12 am
  24   11   33 1
  25   12   13 1
  26   12   14 2
  27   13   15 1
  28   13   34 1
  29   13   35 1
  30   15   16 ar
  31   15   20 ar
  32   16   17 ar
  33   16   36 1
  34   17   18 ar
  35   17   37 1
  36   18   19 ar
  37   18   38 1
  38   19   20 ar
  39   19   39 1
  40   20   40 1
  41   21   22 2
  42   21   23 1
  43   23   41 1

#	End of record

