#	Name: ASD01916136
#	Creating user name:	WinNT
#	Creation time:	15. 06. 2019 20:06

#	Modifying user name:	WinNT
#	Modification time:	15. 06. 2019 20:06

#	Program:	/corina/corina34_cracker 3.40 0067  02.08.2006

@<TRIPOS>MOLECULE
ASD01916136
  47   50    0    0    0
SMALL
NO_CHARGES


@<TRIPOS>ATOM
   1 C1             2.0579     0.7266    -4.8403 C.ar    
   2 C2             1.8241    -0.4984    -4.2460 C.ar    
   3 C3             2.8878    -1.3374    -3.9471 C.ar    
   4 C4             4.1840    -0.9437    -4.2462 C.ar    
   5 C5             4.4126     0.2822    -4.8405 C.ar    
   6 C6             3.3508     1.1166    -5.1373 C.ar    
   7 O7             2.6604    -2.5427    -3.3620 O.3     
   8 C8             3.8029    -3.3543    -3.0830 C.3     
   9 C9             3.3589    -4.6428    -2.4397 C.2     
  10 C10            2.0362    -5.0039    -2.1531 C.2     
  11 N11            4.1432    -5.6202    -2.0576 N.2     
  12 N12            3.3463    -6.6319    -1.5151 N.pl3   
  13 C13            2.0581    -6.2233    -1.5828 C.2     
  14 C14            3.7909    -7.9186    -0.9724 C.3     
  15 C15            2.6849    -8.5025    -0.0866 C.3     
  16 N16            1.3945    -8.3861    -0.7828 N.am    
  17 C17            0.8867    -7.0349    -1.0824 C.3     
  18 C18            0.6971    -9.4825    -1.1404 C.2     
  19 C19           -0.6569    -9.3421    -1.7143 C.ar    
  20 O20            1.1822   -10.5871    -0.9907 O.2     
  21 C21           -1.1124   -10.2559    -2.6670 C.ar    
  22 C22           -2.3768   -10.1205    -3.1989 C.ar    
  23 C23           -3.1959    -9.0793    -2.7897 C.ar    
  24 C24           -2.7484    -8.1689    -1.8445 C.ar    
  25 C25           -1.4880    -8.2984    -1.3019 C.ar    
  26 F26           -4.4343    -8.9511    -3.3142 F       
  27 C27            2.9817    -9.9765     0.1963 C.3     
  28 H28            1.2299     1.3782    -5.0772 H       
  29 H29            0.8141    -0.8024    -4.0138 H       
  30 H30            5.0137    -1.5950    -4.0142 H       
  31 H31            5.4215     0.5893    -5.0732 H       
  32 H32            3.5315     2.0746    -5.6020 H       
  33 H33            4.3280    -3.5744    -4.0126 H       
  34 H34            4.4706    -2.8214    -2.4060 H       
  35 H35            1.1565    -4.4104    -2.3537 H       
  36 H36            4.0020    -8.6058    -1.7917 H       
  37 H37            4.6929    -7.7710    -0.3786 H       
  38 H38            2.6425    -7.9520     0.8532 H       
  39 H39            0.4823    -6.5806    -0.1779 H       
  40 H40            0.1143    -7.0896    -1.8496 H       
  41 H41           -0.4750   -11.0671    -2.9866 H       
  42 H42           -2.7299   -10.8265    -3.9359 H       
  43 H43           -3.3903    -7.3595    -1.5295 H       
  44 H44           -1.1405    -7.5889    -0.5655 H       
  45 H45            3.9401   -10.0624     0.7084 H       
  46 H46            2.1947   -10.3912     0.8263 H       
  47 H47            3.0217   -10.5261    -0.7441 H       
@<TRIPOS>BOND
   1    1    2 ar
   2    1    6 ar
   3    1   28 1
   4    2    3 ar
   5    2   29 1
   6    3    4 ar
   7    3    7 1
   8    4    5 ar
   9    4   30 1
  10    5    6 ar
  11    5   31 1
  12    6   32 1
  13    7    8 1
  14    8    9 1
  15    8   33 1
  16    8   34 1
  17    9   10 1
  18    9   11 2
  19   10   13 2
  20   10   35 1
  21   11   12 1
  22   12   13 1
  23   12   14 1
  24   13   17 1
  25   14   15 1
  26   14   36 1
  27   14   37 1
  28   15   16 1
  29   15   27 1
  30   15   38 1
  31   16   17 1
  32   16   18 am
  33   17   39 1
  34   17   40 1
  35   18   19 1
  36   18   20 2
  37   19   21 ar
  38   19   25 ar
  39   21   22 ar
  40   21   41 1
  41   22   23 ar
  42   22   42 1
  43   23   24 ar
  44   23   26 1
  45   24   25 ar
  46   24   43 1
  47   25   44 1
  48   27   45 1
  49   27   46 1
  50   27   47 1

#	End of record

