#	Name: ASD03900005
#	Creating user name:	WinNT
#	Creation time:	15. 06. 2019 20:47

#	Modifying user name:	WinNT
#	Modification time:	15. 06. 2019 20:47

#	Program:	/corina/corina34_cracker 3.40 0067  02.08.2006

@<TRIPOS>MOLECULE
ASD03900005
  68   70    0    0    0
SMALL
NO_CHARGES


@<TRIPOS>ATOM
   1 C1            -0.0184     1.5028     0.0103 C.3     
   2 C2            -0.2055     0.0151     0.1617 C.ar    
   3 C3             1.4537     1.8253    -0.0013 C.ar    
   4 C4            -0.6427     1.9585    -1.2834 C.ar    
   5 C5            -0.6890     2.2230     1.1818 C.3     
   6 C6            -1.4795    -0.5219     0.1804 C.ar    
   7 C7            -1.6537    -1.8852     0.3191 C.ar    
   8 C8            -0.5490    -2.7158     0.4397 C.ar    
   9 C9             0.7283    -2.1745     0.4207 C.ar    
  10 C10            0.8973    -0.8111     0.2761 C.ar    
  11 C11            2.2434     1.4074    -1.0565 C.ar    
  12 C12            3.5931     1.7018    -1.0696 C.ar    
  13 C13            4.1559     2.4174    -0.0227 C.ar    
  14 C14            3.3613     2.8355     1.0348 C.ar    
  15 C15            2.0111     2.5435     1.0404 C.ar    
  16 C16           -0.7320     3.3084    -1.5687 C.ar    
  17 C17           -1.3038     3.7287    -2.7539 C.ar    
  18 C18           -1.7888     2.7950    -3.6582 C.ar    
  19 C19           -1.6981     1.4411    -3.3695 C.ar    
  20 C20           -1.1202     1.0258    -2.1854 C.ar    
  21 O21           -2.3523     3.2060    -4.8246 O.3     
  22 C22           -2.8301     2.1893    -5.7078 C.3     
  23 O23           -0.7177    -4.0573     0.5767 O.3     
  24 C24            0.4645    -4.8511     0.6958 C.3     
  25 O25            5.4835     2.7078    -0.0330 O.3     
  26 C26            5.9943     3.4478     1.0776 C.3     
  27 C27            0.0832    -6.3021     0.8381 C.2     
  28 O28           -1.0815    -6.6234     0.8376 O.2     
  29 O29            1.0374    -7.2374     0.9653 O.3     
  30 C30            7.4728     3.6738     0.8933 C.2     
  31 O31            8.1688     4.3513     1.8198 O.3     
  32 O32            8.0317     3.2453    -0.0884 O.2     
  33 C33           -3.4171     2.8292    -6.9395 C.2     
  34 O34           -3.9307     2.0625    -7.9142 O.3     
  35 O35           -3.4255     4.0324    -7.0496 O.2     
  36 C36            9.5889     4.5311     1.5765 C.3     
  37 C37            0.5970    -8.6146     1.0981 C.3     
  38 C38           -4.4790     2.7469    -9.0715 C.3     
  39 H39           -0.2374     1.8934     2.1175 H       
  40 H40           -0.5537     3.2990     1.0723 H       
  41 H41           -1.7537     1.9897     1.1902 H       
  42 H42           -2.3391     0.1252     0.0869 H       
  43 H43           -2.6490    -2.3042     0.3340 H       
  44 H44            1.5898    -2.8190     0.5144 H       
  45 H45            1.8914    -0.3892     0.2612 H       
  46 H46            1.8049     0.8501    -1.8710 H       
  47 H47            4.2096     1.3749    -1.8938 H       
  48 H48            3.7971     3.3927     1.8509 H       
  49 H49            1.3921     2.8688     1.8635 H       
  50 H50           -0.3546     4.0349    -0.8643 H       
  51 H51           -1.3736     4.7833    -2.9762 H       
  52 H52           -2.0749     0.7123    -4.0718 H       
  53 H53           -1.0493    -0.0281    -1.9602 H       
  54 H54           -2.0034     1.5395    -5.9949 H       
  55 H55           -3.5966     1.6009    -5.2037 H       
  56 H56            1.0795    -4.7227    -0.1950 H       
  57 H57            1.0272    -4.5354     1.5743 H       
  58 H58            5.4846     4.4093     1.1390 H       
  59 H59            5.8243     2.8871     1.9968 H       
  60 H60           10.0712     3.5564     1.5027 H       
  61 H61            9.7315     5.0786     0.6448 H       
  62 H62           10.0302     5.0934     2.3995 H       
  63 H63           -0.0288    -8.7121     1.9852 H       
  64 H64            0.0236    -8.8994     0.2159 H       
  65 H65            1.4656    -9.2663     1.1928 H       
  66 H66           -5.2911     3.4017    -8.7553 H       
  67 H67           -3.6978     3.3404    -9.5465 H       
  68 H68           -4.8598     2.0126    -9.7813 H       
@<TRIPOS>BOND
   1    1    2 1
   2    1    3 1
   3    1    4 1
   4    1    5 1
   5    2    6 ar
   6    2   10 ar
   7    3   11 ar
   8    3   15 ar
   9    4   16 ar
  10    4   20 ar
  11    5   39 1
  12    5   40 1
  13    5   41 1
  14    6    7 ar
  15    6   42 1
  16    7    8 ar
  17    7   43 1
  18    8    9 ar
  19    8   23 1
  20    9   10 ar
  21    9   44 1
  22   10   45 1
  23   11   12 ar
  24   11   46 1
  25   12   13 ar
  26   12   47 1
  27   13   14 ar
  28   13   25 1
  29   14   15 ar
  30   14   48 1
  31   15   49 1
  32   16   17 ar
  33   16   50 1
  34   17   18 ar
  35   17   51 1
  36   18   19 ar
  37   18   21 1
  38   19   20 ar
  39   19   52 1
  40   20   53 1
  41   21   22 1
  42   22   33 1
  43   22   54 1
  44   22   55 1
  45   23   24 1
  46   24   27 1
  47   24   56 1
  48   24   57 1
  49   25   26 1
  50   26   30 1
  51   26   58 1
  52   26   59 1
  53   27   28 2
  54   27   29 1
  55   29   37 1
  56   30   31 1
  57   30   32 2
  58   31   36 1
  59   33   34 1
  60   33   35 2
  61   34   38 1
  62   36   60 1
  63   36   61 1
  64   36   62 1
  65   37   63 1
  66   37   64 1
  67   37   65 1
  68   38   66 1
  69   38   67 1
  70   38   68 1

#	End of record

