#	Name: ASD01820021
#	Creating user name:	WinNT
#	Creation time:	15. 06. 2019 19:36

#	Modifying user name:	WinNT
#	Modification time:	15. 06. 2019 19:36

#	Program:	/corina/corina34_cracker 3.40 0067  02.08.2006

@<TRIPOS>MOLECULE
ASD01820021
  83   87    0    0    0
SMALL
NO_CHARGES


@<TRIPOS>ATOM
   1 C1            -1.6105     2.5987    -2.4079 C.ar    
   2 C2            -1.4486     1.3206    -1.9127 C.ar    
   3 N3            -0.2725     0.9068    -1.4810 N.ar    
   4 C4             0.7953     1.6896    -1.5000 C.ar    
   5 C5             0.7163     2.9823    -2.0155 C.ar    
   6 C6            -0.5160     3.4489    -2.4646 C.ar    
   7 N7             1.9939     1.2207    -0.9523 N.am    
   8 C8             2.5497     1.8900     0.1360 C.ar    
   9 C9             2.9283     3.2323     0.0261 C.ar    
  10 C10            2.8200     3.9375    -1.2579 C.2     
  11 N11            1.8346     3.8000    -2.1314 N.am    
  12 C12            2.7225     1.2213     1.3410 C.ar    
  13 C13            3.2401     1.8874     2.4340 C.ar    
  14 C14            3.5874     3.2249     2.3380 C.ar    
  15 C15            3.4348     3.8993     1.1458 C.ar    
  16 C16            2.6029     0.1357    -1.4703 C.2     
  17 N17            2.0049    -0.5688    -2.4514 N.am    
  18 C18            2.7127    -1.6807    -3.0907 C.3     
  19 C19            1.7754    -2.3833    -4.0750 C.3     
  20 N20            2.4438    -3.5699    -4.6256 N.3     
  21 O21            3.7112     4.7138    -1.5428 O.2     
  22 O22            3.6918    -0.2077    -1.0525 O.2     
  23 C23            2.5630    -4.6250    -3.6112 C.3     
  24 C24            3.1291    -5.8924    -4.2556 C.3     
  25 C25            4.5013    -5.5825    -4.8603 C.3     
  26 C26            4.3572    -4.4477    -5.8782 C.3     
  27 C27            3.7555    -3.2221    -5.1867 C.3     
  28 C28            3.5911    -2.0919    -6.2048 C.3     
  29 N29            4.9154    -1.6297    -6.6415 N.3     
  30 C30            5.3182    -2.2905    -7.8901 C.3     
  31 C31            4.3515    -1.8987    -9.0093 C.3     
  32 C32            4.7091    -2.6659   -10.2839 C.3     
  33 C33            4.9412    -0.1682    -6.7872 C.3     
  34 C34            6.3922     0.3115    -6.8597 C.3     
  35 C35            6.4186     1.8190    -7.1203 C.3     
  36 N36            7.8037     2.2581    -7.3069 N.am    
  37 C37            8.3706     2.3739    -8.5141 C.2     
  38 C38            9.7986     2.8468    -8.3503 C.3     
  39 C39            9.9603     2.9857    -6.8228 C.3     
  40 C40            8.6050     2.5821    -6.2845 C.2     
  41 O41            8.2959     2.5503    -5.1127 O.2     
  42 O42            7.8263     2.1370    -9.5711 O.2     
  43 H43           -2.5786     2.9319    -2.7518 H       
  44 H44           -2.2952     0.6510    -1.8778 H       
  45 H45           -0.6177     4.4527    -2.8499 H       
  46 H46            1.9004     4.3281    -2.9423 H       
  47 H47            2.4520     0.1790     1.4230 H       
  48 H48            3.3746     1.3631     3.3685 H       
  49 H49            3.9792     3.7418     3.2015 H       
  50 H50            3.7065     4.9422     1.0764 H       
  51 H51            1.1057    -0.3395    -2.7341 H       
  52 H52            3.5816    -1.2983    -3.6264 H       
  53 H53            3.0382    -2.3899    -2.3297 H       
  54 H54            0.8655    -2.6864    -3.5570 H       
  55 H55            1.5216    -1.7003    -4.8857 H       
  56 H56            3.2313    -4.2916    -2.8173 H       
  57 H57            1.5797    -4.8387    -3.1922 H       
  58 H58            3.2321    -6.6704    -3.4992 H       
  59 H59            2.4543    -6.2342    -5.0405 H       
  60 H60            5.1873    -5.2780    -4.0699 H       
  61 H61            4.8891    -6.4712    -5.3581 H       
  62 H62            5.3377    -4.1935    -6.2809 H       
  63 H63            3.7018    -4.7667    -6.6885 H       
  64 H64            4.4182    -2.8954    -4.3854 H       
  65 H65            3.0316    -2.4572    -7.0660 H       
  66 H66            3.0509    -1.2644    -5.7449 H       
  67 H67            6.3281    -1.9788    -8.1566 H       
  68 H68            5.2960    -3.3716    -7.7526 H       
  69 H69            3.3321    -2.1442    -8.7114 H       
  70 H70            4.4273    -0.8276    -9.1966 H       
  71 H71            5.6945    -2.3549   -10.6307 H       
  72 H72            4.7187    -3.7354   -10.0736 H       
  73 H73            3.9688    -2.4540   -11.0553 H       
  74 H74            4.4188     0.1151    -7.7010 H       
  75 H75            4.4490     0.2912    -5.9300 H       
  76 H76            6.8933     0.0972    -5.9157 H       
  77 H77            6.9061    -0.2062    -7.6696 H       
  78 H78            5.8424     2.0426    -8.0181 H       
  79 H79            5.9829     2.3425    -6.2692 H       
  80 H80           10.4953     2.1069    -8.7441 H       
  81 H81            9.9424     3.8097    -8.8404 H       
  82 H82           10.7375     2.3148    -6.4567 H       
  83 H83           10.1846     4.0177    -6.5530 H       
@<TRIPOS>BOND
   1    1    2 ar
   2    1    6 ar
   3    1   43 1
   4    2    3 ar
   5    2   44 1
   6    3    4 ar
   7    4    5 ar
   8    4    7 1
   9    5    6 ar
  10    5   11 1
  11    6   45 1
  12    7    8 1
  13    7   16 am
  14    8    9 ar
  15    8   12 ar
  16    9   10 1
  17    9   15 ar
  18   10   11 am
  19   10   21 2
  20   11   46 1
  21   12   13 ar
  22   12   47 1
  23   13   14 ar
  24   13   48 1
  25   14   15 ar
  26   14   49 1
  27   15   50 1
  28   16   17 am
  29   16   22 2
  30   17   18 1
  31   17   51 1
  32   18   19 1
  33   18   52 1
  34   18   53 1
  35   19   20 1
  36   19   54 1
  37   19   55 1
  38   20   23 1
  39   20   27 1
  40   23   24 1
  41   23   56 1
  42   23   57 1
  43   24   25 1
  44   24   58 1
  45   24   59 1
  46   25   26 1
  47   25   60 1
  48   25   61 1
  49   26   27 1
  50   26   62 1
  51   26   63 1
  52   27   28 1
  53   27   64 1
  54   28   29 1
  55   28   65 1
  56   28   66 1
  57   29   30 1
  58   29   33 1
  59   30   31 1
  60   30   67 1
  61   30   68 1
  62   31   32 1
  63   31   69 1
  64   31   70 1
  65   32   71 1
  66   32   72 1
  67   32   73 1
  68   33   34 1
  69   33   74 1
  70   33   75 1
  71   34   35 1
  72   34   76 1
  73   34   77 1
  74   35   36 1
  75   35   78 1
  76   35   79 1
  77   36   37 am
  78   36   40 am
  79   37   38 1
  80   37   42 2
  81   38   39 1
  82   38   80 1
  83   38   81 1
  84   39   40 1
  85   39   82 1
  86   39   83 1
  87   40   41 2

#	End of record

