#	Name: ASD04882342
#	Creating user name:	WinNT
#	Creation time:	15. 06. 2019 20:54

#	Modifying user name:	WinNT
#	Modification time:	15. 06. 2019 20:54

#	Program:	/corina/corina34_cracker 3.40 0067  02.08.2006

@<TRIPOS>MOLECULE
ASD04882342
  75   80    0    0    0
SMALL
NO_CHARGES


@<TRIPOS>ATOM
   1 N1             0.1642     1.0814     0.3520 N.am    
   2 C2             0.1114    -0.3109     0.2064 C.ar    
   3 C3            -1.1240    -0.9621     0.1518 C.ar    
   4 C4            -1.1779    -2.3437     0.0073 C.ar    
   5 C5            -0.0148    -3.0757    -0.0820 C.ar    
   6 C6             1.2241    -2.4309    -0.0275 C.ar    
   7 C7             1.2810    -1.0412     0.1110 C.ar    
   8 N8            -2.3026    -0.2260     0.2426 N.3     
   9 C9            -3.1269    -0.4010    -0.9614 C.3     
  10 C10           -3.0571    -0.5868     1.4509 C.3     
  11 C11           -4.3017     0.2978     1.5551 C.3     
  12 N12           -5.1261     0.1227     0.3512 N.3     
  13 C13           -4.3716     0.4835    -0.8572 C.3     
  14 C14            2.4699    -3.2154    -0.1227 C.2     
  15 O15            3.3855    -2.8203    -0.8185 O.2     
  16 C16            1.2220     1.7690    -0.1223 C.2     
  17 C17            1.2343     3.2337    -0.0549 C.2     
  18 O18            2.1670     1.1740    -0.6065 O.2     
  19 N19            2.5932    -4.3699     0.5617 N.am    
  20 C20            2.2370     4.0489    -0.4964 C.2     
  21 C21            1.8299     5.3667    -0.2357 C.2     
  22 C22            0.6122     5.2990     0.3460 C.2     
  23 O23            0.2544     4.0124     0.4487 O.3     
  24 C24           -6.3082     0.8610     0.4422 C.ar    
  25 C25           -6.2573     2.2414     0.5870 C.ar    
  26 C26           -7.5377     0.2169     0.3825 C.ar    
  27 C27           -8.7045     0.9498     0.4729 C.ar    
  28 C28           -8.6501     2.3237     0.6223 C.ar    
  29 C29           -7.4282     2.9685     0.6769 C.ar    
  30 C30           -7.5980    -1.2800     0.2187 C.3     
  31 C31            3.8553    -5.1282     0.5639 C.3     
  32 C32            4.3966    -5.1342     1.9925 C.3     
  33 C33            3.3139    -5.4969     2.9752 C.ar    
  34 C34            1.9716    -5.3925     2.6795 C.ar    
  35 C35            1.4775    -4.9189     1.3395 C.3     
  36 C36            3.7110    -5.9527     4.2285 C.ar    
  37 C37            2.7793    -6.2961     5.1811 C.ar    
  38 C38            1.4187    -6.1851     4.8887 C.ar    
  39 C39            1.0241    -5.7309     3.6324 C.ar    
  40 C40            0.4058    -6.5473     5.9029 C.2     
  41 O41           -0.7774    -6.4485     5.6425 O.2     
  42 N42            0.7944    -6.9870     7.1162 N.am    
  43 H43           -0.5623     1.5511     0.7907 H       
  44 H44           -2.1340    -2.8442    -0.0346 H       
  45 H45           -0.0599    -4.1490    -0.1938 H       
  46 H46            2.2368    -0.5402     0.1533 H       
  47 H47           -2.5506    -0.1156    -1.8414 H       
  48 H48           -3.4288    -1.4449    -1.0468 H       
  49 H49           -3.3582    -1.6328     1.3929 H       
  50 H50           -2.4298    -0.4368     2.3296 H       
  51 H51           -4.8781     0.0123     2.4351 H       
  52 H52           -3.9999     1.3416     1.6405 H       
  53 H53           -4.0705     1.5295    -0.7992 H       
  54 H54           -4.9989     0.3335    -1.7359 H       
  55 H55            3.1639     3.7395    -0.9564 H       
  56 H56            2.3856     6.2656    -0.4582 H       
  57 H57            0.0226     6.1436     0.6710 H       
  58 H58           -5.3032     2.7457     0.6297 H       
  59 H59           -9.6606     0.4497     0.4265 H       
  60 H60           -9.5642     2.8947     0.6921 H       
  61 H61           -7.3893     4.0415     0.7936 H       
  62 H62           -7.6034    -1.7530     1.2007 H       
  63 H63           -8.5063    -1.5503    -0.3198 H       
  64 H64           -6.7278    -1.6193    -0.3432 H       
  65 H65            3.6717    -6.1509     0.2347 H       
  66 H66            4.5743    -4.6495    -0.1009 H       
  67 H67            5.2056    -5.8609     2.0662 H       
  68 H68            4.7825    -4.1437     2.2338 H       
  69 H69            0.7189    -4.1496     1.4839 H       
  70 H70            1.0433    -5.7579     0.7958 H       
  71 H71            4.7632    -6.0383     4.4563 H       
  72 H72            3.0989    -6.6502     6.1500 H       
  73 H73           -0.0268    -5.6420     3.3996 H       
  74 H74            1.7386    -7.0659     7.3240 H       
  75 H75            0.1298    -7.2247     7.7816 H       
@<TRIPOS>BOND
   1    1    2 1
   2    1   16 am
   3    1   43 1
   4    2    3 ar
   5    2    7 ar
   6    3    4 ar
   7    3    8 1
   8    4    5 ar
   9    4   44 1
  10    5    6 ar
  11    5   45 1
  12    6    7 ar
  13    6   14 1
  14    7   46 1
  15    8    9 1
  16    8   10 1
  17    9   13 1
  18    9   47 1
  19    9   48 1
  20   10   11 1
  21   10   49 1
  22   10   50 1
  23   11   12 1
  24   11   51 1
  25   11   52 1
  26   12   13 1
  27   12   24 1
  28   13   53 1
  29   13   54 1
  30   14   15 2
  31   14   19 am
  32   16   18 2
  33   16   17 1
  34   17   20 2
  35   17   23 1
  36   19   31 1
  37   19   35 1
  38   20   21 1
  39   20   55 1
  40   21   22 2
  41   21   56 1
  42   22   23 1
  43   22   57 1
  44   24   25 ar
  45   24   26 ar
  46   25   29 ar
  47   25   58 1
  48   26   27 ar
  49   26   30 1
  50   27   28 ar
  51   27   59 1
  52   28   29 ar
  53   28   60 1
  54   29   61 1
  55   30   62 1
  56   30   63 1
  57   30   64 1
  58   31   32 1
  59   31   65 1
  60   31   66 1
  61   32   33 1
  62   32   67 1
  63   32   68 1
  64   33   34 ar
  65   33   36 ar
  66   34   35 1
  67   34   39 ar
  68   35   69 1
  69   35   70 1
  70   36   37 ar
  71   36   71 1
  72   37   38 ar
  73   37   72 1
  74   38   39 ar
  75   38   40 1
  76   39   73 1
  77   40   41 2
  78   40   42 am
  79   42   74 1
  80   42   75 1

#	End of record

