#	Name: ASD09080001
#	Creating user name:	WinNT
#	Creation time:	15. 06. 2019 21:20

#	Modifying user name:	WinNT
#	Modification time:	15. 06. 2019 21:20

#	Program:	/corina/corina34_cracker 3.40 0067  02.08.2006

@<TRIPOS>MOLECULE
ASD09080001
  53   54    0    0    0
SMALL
NO_CHARGES


@<TRIPOS>ATOM
   1 C1            -0.0167     1.3772     0.0096 C.ar    
   2 C2             0.0021    -0.0041     0.0020 C.ar    
   3 C3            -1.1962    -0.7147     0.0101 C.ar    
   4 C4            -2.4082    -0.0277     0.0258 C.ar    
   5 C5            -2.4165     1.3537     0.0333 C.ar    
   6 C6            -1.2232     2.0552     0.0306 C.ar    
   7 Cl7            1.4756     2.2642     0.0001 Cl      
   8 Cl8           -3.9258     2.2111     0.0523 Cl      
   9 C9            -1.1817    -2.1986     0.0015 C.ar    
  10 C10           -2.3800    -2.9096     0.0096 C.ar    
  11 C11            0.0301    -2.8859    -0.0204 C.ar    
  12 C12            0.0377    -4.2660    -0.0283 C.ar    
  13 C13           -1.1547    -4.9669    -0.0144 C.ar    
  14 C14           -2.3607    -4.2896     0.0016 C.ar    
  15 C15           -1.1400    -6.4738    -0.0231 C.3     
  16 C16           -1.1135    -6.9918     1.4163 C.3     
  17 N17            0.1441    -6.5956     2.0548 N.am    
  18 C18           -1.2242    -8.5178     1.4112 C.3     
  19 C19           -1.1977    -9.0359     2.8506 C.3     
  20 O20           -2.4509    -8.9043     0.7884 O.3     
  21 O21           -2.2250    -8.3925     3.6074 O.3     
  22 C22            0.2107    -6.4759     3.3956 C.2     
  23 O23           -0.7706    -6.6961     4.0735 O.2     
  24 C24            1.5043    -6.0683     4.0524 C.3     
  25 C25           -1.4298   -10.5249     2.8529 C.2     
  26 O26           -2.4251   -10.9804     3.3645 O.2     
  27 O27           -0.5307   -11.3451     2.2865 O.3     
  28 C28           -0.8195   -12.7676     2.3258 C.3     
  29 O29            1.3223    -6.0116     5.4686 O.3     
  30 C30            2.4957    -5.6324     6.1907 C.3     
  31 H31            0.9441    -0.5322    -0.0105 H       
  32 H32           -3.3397    -0.5743     0.0318 H       
  33 H33           -1.2338     3.1351     0.0364 H       
  34 H34           -3.3222    -2.3818     0.0225 H       
  35 H35            0.9617    -2.3396    -0.0316 H       
  36 H36            0.9765    -4.7998    -0.0457 H       
  37 H37           -3.2888    -4.8418     0.0127 H       
  38 H38           -2.0339    -6.8430    -0.5257 H       
  39 H39           -0.2542    -6.8254    -0.5522 H       
  40 H40           -1.9513    -6.5686     1.9702 H       
  41 H41            0.9289    -6.4195     1.5126 H       
  42 H42           -0.3863    -8.9411     0.8572 H       
  43 H43           -0.2274    -8.8187     3.2971 H       
  44 H44           -2.5367    -8.6089    -0.1284 H       
  45 H45           -3.1174    -8.5428     3.2664 H       
  46 H46            2.2783    -6.7980     3.8145 H       
  47 H47            1.8049    -5.0870     3.6851 H       
  48 H48           -0.0152   -13.3153     1.8349 H       
  49 H49           -0.9008   -13.0933     3.3629 H       
  50 H50           -1.7595   -12.9619     1.8093 H       
  51 H51            2.8168    -4.6421     5.8678 H       
  52 H52            2.2750    -5.6128     7.2580 H       
  53 H53            3.2902    -6.3531     5.9972 H       
@<TRIPOS>BOND
   1    1    2 ar
   2    1    7 1
   3    1    6 ar
   4    2    3 ar
   5    2   31 1
   6    3    4 ar
   7    3    9 1
   8    4    5 ar
   9    4   32 1
  10    5    6 ar
  11    5    8 1
  12    6   33 1
  13    9   10 ar
  14    9   11 ar
  15   10   14 ar
  16   10   34 1
  17   11   12 ar
  18   11   35 1
  19   12   13 ar
  20   12   36 1
  21   13   14 ar
  22   13   15 1
  23   14   37 1
  24   15   16 1
  25   15   38 1
  26   15   39 1
  27   16   17 1
  28   16   18 1
  29   16   40 1
  30   17   22 am
  31   17   41 1
  32   18   19 1
  33   18   20 1
  34   18   42 1
  35   19   21 1
  36   19   25 1
  37   19   43 1
  38   20   44 1
  39   21   45 1
  40   22   23 2
  41   22   24 1
  42   24   29 1
  43   24   46 1
  44   24   47 1
  45   25   26 2
  46   25   27 1
  47   27   28 1
  48   28   48 1
  49   28   49 1
  50   28   50 1
  51   29   30 1
  52   30   51 1
  53   30   52 1
  54   30   53 1

#	End of record

