#	Name: ASD03330779
#	Creating user name:	WinNT
#	Creation time:	15. 06. 2019 20:37

#	Modifying user name:	WinNT
#	Modification time:	15. 06. 2019 20:37

#	Program:	/corina/corina34_cracker 3.40 0067  02.08.2006

@<TRIPOS>MOLECULE
ASD03330779
  57   59    0    0    0
SMALL
NO_CHARGES


@<TRIPOS>ATOM
   1 C1            -0.0159     1.3547     0.0393 C.2     
   2 N2             0.0042    -0.0047     0.0504 N.pl3   
   3 C3             1.2781     1.7736    -0.0303 C.2     
   4 N4             2.0647     0.6761    -0.0780 N.2     
   5 C5             1.3083    -0.3957    -0.0360 C.2     
   6 C6             1.7895    -1.7937    -0.0751 C.ar    
   7 C7             1.7380     3.1734    -0.0507 C.2     
   8 O8             0.9287     4.0801    -0.0031 O.2     
   9 C9             3.5125     4.8406    -0.1423 C.3     
  10 N10            3.0553     3.4490    -0.1220 N.am    
  11 C11            4.8783     4.9188    -0.8276 C.3     
  12 C12            3.6294     5.3516     1.2706 C.2     
  13 O13            3.3576     4.6249     2.2027 O.2     
  14 C14           -1.1733    -0.8711     0.1522 C.3     
  15 C15           -2.2421    -0.3838    -0.8312 C.3     
  16 C16           -3.1086     0.6804    -0.1655 C.3     
  17 N17           -2.3245     1.4887     0.7704 N.3     
  18 C18           -1.2509     2.2169     0.0780 C.3     
  19 C19            2.7355    -2.1840    -1.0268 C.ar    
  20 C20            1.3054    -2.7270     0.8414 C.ar    
  21 C21            1.7590    -4.0307     0.8000 C.ar    
  22 C22            3.1810    -3.4920    -1.0572 C.ar    
  23 C23           -3.1874     2.4109     1.5205 C.3     
  24 N24            4.0360     6.6162     1.4983 N.am    
  25 C25            4.7351     4.5183    -2.2973 C.3     
  26 C26            3.8594     5.5425    -3.0220 C.3     
  27 C27            6.1176     4.4758    -2.9513 C.3     
  28 F28            3.2131    -1.2851    -1.9152 F       
  29 C29            2.6927    -4.4128    -0.1482 C.ar    
  30 Cl30           1.1572    -5.1933     1.9402 Cl      
  31 H31            2.7952     5.4508    -0.6912 H       
  32 H32            3.7007     2.7258    -0.1600 H       
  33 H33            5.2587     5.9383    -0.7642 H       
  34 H34            5.5727     4.2404    -0.3321 H       
  35 H35           -0.8937    -1.8960    -0.0920 H       
  36 H36           -1.5676    -0.8321     1.1676 H       
  37 H37           -1.7586     0.0407    -1.7110 H       
  38 H38           -2.8676    -1.2242    -1.1324 H       
  39 H39           -3.5300     1.3298    -0.9328 H       
  40 H40           -3.9203     0.1938     0.3753 H       
  41 H41           -1.0334     3.1412     0.6133 H       
  42 H42           -1.5653     2.4490    -0.9395 H       
  43 H43            0.5776    -2.4307     1.5822 H       
  44 H44            3.9120    -3.7955    -1.7919 H       
  45 H45           -3.9252     1.8405     2.0846 H       
  46 H46           -2.5796     2.9990     2.2081 H       
  47 H47           -3.6976     3.0777     0.8253 H       
  48 H48            4.2535     7.1975     0.7528 H       
  49 H49            4.1113     6.9452     2.4077 H       
  50 H50            4.2721     3.5337    -2.3621 H       
  51 H51            4.3225     6.5271    -2.9572 H       
  52 H52            3.7574     5.2572    -4.0690 H       
  53 H53            2.8745     5.5728    -2.5561 H       
  54 H54            6.7415     3.7462    -2.4350 H       
  55 H55            6.0157     4.1905    -3.9983 H       
  56 H56            6.5807     5.4604    -2.8864 H       
  57 H57            3.0444    -5.4336    -0.1755 H       
@<TRIPOS>BOND
   1    1    2 1
   2    1    3 2
   3    1   18 1
   4    2   14 1
   5    2    5 1
   6    3    4 1
   7    3    7 1
   8    4    5 2
   9    5    6 1
  10    6   20 ar
  11    6   19 ar
  12    7    8 2
  13    7   10 am
  14    9   10 1
  15    9   11 1
  16    9   12 1
  17    9   31 1
  18   10   32 1
  19   11   25 1
  20   11   33 1
  21   11   34 1
  22   12   13 2
  23   12   24 am
  24   14   15 1
  25   14   35 1
  26   14   36 1
  27   15   16 1
  28   15   37 1
  29   15   38 1
  30   16   17 1
  31   16   39 1
  32   16   40 1
  33   17   18 1
  34   17   23 1
  35   18   41 1
  36   18   42 1
  37   19   28 1
  38   19   22 ar
  39   20   21 ar
  40   20   43 1
  41   21   29 ar
  42   21   30 1
  43   22   29 ar
  44   22   44 1
  45   23   45 1
  46   23   46 1
  47   23   47 1
  48   24   48 1
  49   24   49 1
  50   25   27 1
  51   25   26 1
  52   25   50 1
  53   26   51 1
  54   26   52 1
  55   26   53 1
  56   27   54 1
  57   27   55 1
  58   27   56 1
  59   29   57 1

#	End of record

