#	Name: ASD03910048
#	Creating user name:	WinNT
#	Creation time:	15. 06. 2019 20:47

#	Modifying user name:	WinNT
#	Modification time:	15. 06. 2019 20:47

#	Program:	/corina/corina34_cracker 3.40 0067  02.08.2006

@<TRIPOS>MOLECULE
ASD03910048
  59   61    0    0    0
SMALL
NO_CHARGES


@<TRIPOS>ATOM
   1 C1             0.4627     1.3345     0.2012 C.ar    
   2 C2             0.6384     0.1436     0.8815 C.ar    
   3 C3            -0.4303    -0.4522     1.5258 C.ar    
   4 C4            -1.6772     0.1408     1.4912 C.ar    
   5 C5            -1.8569     1.3368     0.8088 C.ar    
   6 C6            -0.7802     1.9358     0.1679 C.ar    
   7 N7            -3.1188     1.9402     0.7718 N.am    
   8 C8            -3.2234     3.2839     0.7626 C.2     
   9 O9            -2.2306     3.9702     0.8831 O.2     
  10 C10           -4.4160     5.4321     0.6250 C.ar    
  11 C11           -4.2013     6.1213    -0.5542 C.ar    
  12 C12           -4.0621     7.4956    -0.5369 C.ar    
  13 C13           -4.1379     8.1842     0.6651 C.ar    
  14 C14           -4.3533     7.4903     1.8469 C.ar    
  15 C15           -4.4918     6.1160     1.8243 C.ar    
  16 O16           -4.0008     9.5361     0.6848 O.3     
  17 C17           -4.2055    10.1907     1.9385 C.3     
  18 C18           -5.5760     9.8640     2.4733 C.2     
  19 C19            1.6302     1.9803    -0.4996 C.3     
  20 C20           -0.2344    -1.7502     2.2660 C.3     
  21 O21           -5.7489     9.7482     3.6681 O.2     
  22 N22           -6.6095     9.7005     1.6239 N.am    
  23 C23           -4.5737     3.9335     0.6025 C.3     
  24 C24           -7.9157     9.2751     2.1329 C.3     
  25 C25           -8.8903     9.1683     0.9884 C.2     
  26 O26           -8.5307     9.4216    -0.1369 O.2     
  27 O27          -10.1579     8.7919     1.2192 O.3     
  28 C28           -3.1281     9.7505     2.9450 C.3     
  29 C29           -2.3587    11.0241     3.3521 C.3     
  30 C30           -3.3562    12.1759     3.0737 C.3     
  31 C31           -4.0544    11.7166     1.7687 C.3     
  32 H32            1.6122    -0.3225     0.9095 H       
  33 H33           -2.5116    -0.3254     1.9939 H       
  34 H34           -0.9167     2.8661    -0.3633 H       
  35 H35           -3.9184     1.3914     0.7528 H       
  36 H36           -4.1421     5.5847    -1.4896 H       
  37 H37           -3.8941     8.0335    -1.4582 H       
  38 H38           -4.4124     8.0241     2.7840 H       
  39 H39           -4.6596     5.5754     2.7441 H       
  40 H40            1.6867     1.6139    -1.5246 H       
  41 H41            1.4962     3.0620    -0.5074 H       
  42 H42            2.5521     1.7322     0.0263 H       
  43 H43            0.0378    -1.5409     3.3006 H       
  44 H44           -1.1603    -2.3249     2.2431 H       
  45 H45            0.5610    -2.3235     1.7899 H       
  46 H46           -6.4885     9.8644     0.6755 H       
  47 H47           -5.0132     3.6287    -0.3472 H       
  48 H48           -5.2248     3.6244     1.4201 H       
  49 H49           -7.8178     8.3041     2.6185 H       
  50 H50           -8.2806    10.0067     2.8538 H       
  51 H51          -10.7461     8.7378     0.4536 H       
  52 H52           -3.5965     9.3014     3.8208 H       
  53 H53           -2.4491     9.0376     2.4773 H       
  54 H54           -2.0995    10.9914     4.4103 H       
  55 H55           -1.4626    11.1398     2.7423 H       
  56 H56           -4.0777    12.2668     3.8857 H       
  57 H57           -2.8271    13.1161     2.9186 H       
  58 H58           -3.4325    11.9439     0.9029 H       
  59 H59           -5.0318    12.1894     1.6722 H       
@<TRIPOS>BOND
   1    1    2 ar
   2    1   19 1
   3    1    6 ar
   4    2    3 ar
   5    2   32 1
   6    3    4 ar
   7    3   20 1
   8    4    5 ar
   9    4   33 1
  10    5    6 ar
  11    5    7 1
  12    6   34 1
  13    7    8 am
  14    7   35 1
  15    8    9 2
  16    8   23 1
  17   10   11 ar
  18   10   15 ar
  19   10   23 1
  20   11   12 ar
  21   11   36 1
  22   12   13 ar
  23   12   37 1
  24   13   14 ar
  25   13   16 1
  26   14   15 ar
  27   14   38 1
  28   15   39 1
  29   16   17 1
  30   17   18 1
  31   17   28 1
  32   17   31 1
  33   18   21 2
  34   18   22 am
  35   19   40 1
  36   19   41 1
  37   19   42 1
  38   20   43 1
  39   20   44 1
  40   20   45 1
  41   22   24 1
  42   22   46 1
  43   23   47 1
  44   23   48 1
  45   24   25 1
  46   24   49 1
  47   24   50 1
  48   25   26 2
  49   25   27 1
  50   27   51 1
  51   28   29 1
  52   28   52 1
  53   28   53 1
  54   29   30 1
  55   29   54 1
  56   29   55 1
  57   30   31 1
  58   30   56 1
  59   30   57 1
  60   31   58 1
  61   31   59 1

#	End of record

