#	Name: ASD07300368
#	Creating user name:	WinNT
#	Creation time:	15. 06. 2019 21:09

#	Modifying user name:	WinNT
#	Modification time:	15. 06. 2019 21:09

#	Program:	/corina/corina34_cracker 3.40 0067  02.08.2006

@<TRIPOS>MOLECULE
ASD07300368
  48   52    0    0    0
SMALL
NO_CHARGES


@<TRIPOS>ATOM
   1 C1            -0.8617     0.9916    -0.1298 C.ar    
   2 C2            -1.0255    -0.3811    -0.3532 C.ar    
   3 C3             0.0542    -1.2311    -0.1950 C.ar    
   4 C4             1.2831    -0.6744     0.1874 C.ar    
   5 C5             1.3677     0.7048     0.3918 C.ar    
   6 N6             0.3160     1.4792     0.2306 N.ar    
   7 C7            -2.9747     0.6193    -0.7005 C.2     
   8 N8            -2.0979     1.5802    -0.3561 N.am    
   9 N9            -2.3563    -0.5770    -0.7133 N.am    
  10 C10            2.4341    -1.5075     0.3662 C.1     
  11 N11            3.3471    -2.1684     0.5081 N.1     
  12 O12           -4.1478     0.8040    -0.9651 O.2     
  13 C13           -2.3855     2.9485    -0.2442 C.ar    
  14 C14           -3.6694     3.4113    -0.4991 C.ar    
  15 C15           -3.9520     4.7583    -0.3889 C.ar    
  16 C16           -2.9532     5.6493    -0.0233 C.ar    
  17 C17           -1.6699     5.1873     0.2311 C.ar    
  18 C18           -1.3878     3.8397     0.1271 C.ar    
  19 O19           -3.2320     6.9755     0.0851 O.3     
  20 C20           -4.9885     8.6919     2.6111 C.ar    
  21 C21           -4.9061     7.3808     3.1134 C.ar    
  22 C22           -5.4802     7.0939     4.3547 C.ar    
  23 C23           -6.1074     8.1205     5.0367 C.ar    
  24 C24           -6.1482     9.3869     4.4776 C.ar    
  25 N25           -5.6005     9.6367     3.3053 N.ar    
  26 C26           -3.9077     7.3950     1.1793 C.2     
  27 N27           -4.3486     8.6701     1.3871 N.pl3   
  28 N28           -4.2315     6.6402     2.1970 N.2     
  29 C29           -4.1753     9.8063     0.4787 C.3     
  30 C30           -2.9781    -1.8626    -1.0402 C.3     
  31 C31           -3.5430    -2.4944     0.2337 C.3     
  32 H32           -0.0465    -2.2935    -0.3610 H       
  33 H33            2.3101     1.1421     0.6868 H       
  34 H34           -4.4468     2.7179    -0.7840 H       
  35 H35           -4.9506     5.1184    -0.5875 H       
  36 H36           -0.8927     5.8813     0.5152 H       
  37 H37           -0.3900     3.4796     0.3298 H       
  38 H38           -5.4356     6.0979     4.7698 H       
  39 H39           -6.5626     7.9359     5.9985 H       
  40 H40           -6.6390    10.1861     5.0132 H       
  41 H41           -3.2436    10.3208     0.7139 H       
  42 H42           -4.1425     9.4474    -0.5500 H       
  43 H43           -5.0110    10.4962     0.5964 H       
  44 H44           -3.7849    -1.7045    -1.7559 H       
  45 H45           -2.2316    -2.5271    -1.4751 H       
  46 H46           -4.0056    -3.4509    -0.0095 H       
  47 H47           -2.7362    -2.6525     0.9494 H       
  48 H48           -4.2895    -1.8298     0.6687 H       
@<TRIPOS>BOND
   1    1    2 ar
   2    1    6 ar
   3    1    8 1
   4    2    3 ar
   5    2    9 1
   6    3    4 ar
   7    3   32 1
   8    4    5 ar
   9    4   10 1
  10    5    6 ar
  11    5   33 1
  12    7    8 am
  13    7    9 am
  14    7   12 2
  15    8   13 1
  16    9   30 1
  17   10   11 3
  18   13   14 ar
  19   13   18 ar
  20   14   15 ar
  21   14   34 1
  22   15   16 ar
  23   15   35 1
  24   16   17 ar
  25   16   19 1
  26   17   18 ar
  27   17   36 1
  28   18   37 1
  29   19   26 1
  30   20   21 ar
  31   20   25 ar
  32   20   27 1
  33   21   22 ar
  34   21   28 1
  35   22   23 ar
  36   22   38 1
  37   23   24 ar
  38   23   39 1
  39   24   25 ar
  40   24   40 1
  41   26   27 1
  42   26   28 2
  43   27   29 1
  44   29   41 1
  45   29   42 1
  46   29   43 1
  47   30   31 1
  48   30   44 1
  49   30   45 1
  50   31   46 1
  51   31   47 1
  52   31   48 1

#	End of record

