#	Name: ASD05380097
#	Creating user name:	WinNT
#	Creation time:	15. 06. 2019 20:59

#	Modifying user name:	WinNT
#	Modification time:	15. 06. 2019 20:59

#	Program:	/corina/corina34_cracker 3.40 0067  02.08.2006

@<TRIPOS>MOLECULE
ASD05380097
  49   53    0    0    0
SMALL
NO_CHARGES


@<TRIPOS>ATOM
   1 C1            -0.1399     1.4432    -0.4444 C.ar    
   2 C2             0.0691     0.1187     0.0024 C.ar    
   3 C3             0.9331     2.1966    -0.9227 C.ar    
   4 C4             2.1954     1.6365    -0.9545 C.ar    
   5 C5             2.4010     0.3366    -0.5161 C.ar    
   6 C6             1.3544    -0.4229    -0.0406 C.ar    
   7 N7            -0.9885    -0.5949     0.4638 N.2     
   8 C8            -2.1841    -0.0903     0.5039 C.2     
   9 N9            -2.4761     1.1740     0.0943 N.am    
  10 C10           -1.5031     1.9861    -0.3807 C.2     
  11 C11           -3.7943     1.6411     0.1703 C.ar    
  12 C12           -4.6636     1.4473    -0.8951 C.ar    
  13 C13           -4.2363     2.2940     1.3134 C.ar    
  14 C14           -6.3984     2.5640     0.3203 C.ar    
  15 C15           -3.3054    -0.9485     1.0303 C.3     
  16 N16           -3.0876    -2.3394     0.6248 N.pl3   
  17 C17           -4.1620    -3.2051     0.5171 C.ar    
  18 N18           -5.3977    -2.7910     0.7778 N.ar    
  19 O19           -1.7501     3.1195    -0.7502 O.2     
  20 C20           -3.9724    -4.5406     0.1239 C.ar    
  21 C21           -5.1016    -5.3720     0.0325 C.ar    
  22 N22           -6.2982    -4.8698     0.3186 N.ar    
  23 C23           -6.4287    -3.6100     0.6777 C.ar    
  24 N24           -2.8963    -5.2900    -0.2163 N.2     
  25 C25           -3.2836    -6.4987    -0.5037 C.2     
  26 N26           -4.6360    -6.5998    -0.3652 N.pl3   
  27 C27           -5.9629     1.9092    -0.8171 C.ar    
  28 C28           -5.5368     2.7535     1.3852 C.ar    
  29 C29           -3.3401    -0.8620     2.5575 C.3     
  30 C30           -4.5527    -1.6320     3.0846 C.3     
  31 F31            0.7387     3.4629    -1.3514 F       
  32 H32            3.0290     2.2153    -1.3241 H       
  33 H33            3.3944    -0.0858    -0.5483 H       
  34 H34            1.5282    -1.4336     0.2981 H       
  35 H35           -4.3240     0.9363    -1.7839 H       
  36 H36           -3.5640     2.4420     2.1455 H       
  37 H37           -7.4148     2.9243     0.3789 H       
  38 H38           -4.2539    -0.5961     0.6249 H       
  39 H39           -2.1904    -2.6534     0.4319 H       
  40 H40           -7.4159    -3.2322     0.8992 H       
  41 H41           -2.6300    -7.3032    -0.8072 H       
  42 H42           -5.1709    -7.3942    -0.5189 H       
  43 H43           -6.6381     1.7631    -1.6473 H       
  44 H44           -5.8811     3.2613     2.2740 H       
  45 H45           -2.4280    -1.2963     2.9668 H       
  46 H46           -3.4130     0.1824     2.8607 H       
  47 H47           -4.5774    -1.5703     4.1725 H       
  48 H48           -5.4648    -1.1977     2.6753 H       
  49 H49           -4.4797    -2.6764     2.7814 H       
@<TRIPOS>BOND
   1    1    2 ar
   2    1    3 ar
   3    1   10 1
   4    2    7 1
   5    2    6 ar
   6    3    4 ar
   7    3   31 1
   8    4    5 ar
   9    4   32 1
  10    5    6 ar
  11    5   33 1
  12    6   34 1
  13    7    8 2
  14    8    9 1
  15    8   15 1
  16    9   10 am
  17    9   11 1
  18   10   19 2
  19   11   12 ar
  20   11   13 ar
  21   12   27 ar
  22   12   35 1
  23   13   28 ar
  24   13   36 1
  25   14   27 ar
  26   14   28 ar
  27   14   37 1
  28   15   16 1
  29   15   29 1
  30   15   38 1
  31   16   17 1
  32   16   39 1
  33   17   18 ar
  34   17   20 ar
  35   18   23 ar
  36   20   21 ar
  37   20   24 1
  38   21   22 ar
  39   21   26 1
  40   22   23 ar
  41   23   40 1
  42   24   25 2
  43   25   26 1
  44   25   41 1
  45   26   42 1
  46   27   43 1
  47   28   44 1
  48   29   30 1
  49   29   45 1
  50   29   46 1
  51   30   47 1
  52   30   48 1
  53   30   49 1

#	End of record

