#	Name: ASD03090407
#	Creating user name:	WinNT
#	Creation time:	15. 06. 2019 20:28

#	Modifying user name:	WinNT
#	Modification time:	15. 06. 2019 20:28

#	Program:	/corina/corina34_cracker 3.40 0067  02.08.2006

@<TRIPOS>MOLECULE
ASD03090407
  40   42    0    0    0
SMALL
NO_CHARGES


@<TRIPOS>ATOM
   1 C1            -0.0186     1.5023     0.0155 C.2     
   2 C2             0.0014    -0.0045     0.0124 C.3     
   3 O3             1.0237     2.1227     0.0094 O.2     
   4 N4            -1.1946     2.1607     0.0195 N.am    
   5 C5            -1.2153     3.5571     0.1329 C.ar    
   6 C6            -2.1836     4.2939    -0.5360 C.ar    
   7 C7            -2.2037     5.6700    -0.4234 C.ar    
   8 C8            -1.2567     6.3163     0.3575 C.ar    
   9 C9            -0.2887     5.5808     1.0257 C.ar    
  10 C10           -0.2712     4.2041     0.9189 C.ar    
  11 O11           -1.2768     7.6714     0.4676 O.3     
  12 C12           -0.2720     8.2707     1.2881 C.3     
  13 C13           -0.4542     9.7898     1.2900 C.3     
  14 F14           -1.7194    10.1071     1.7957 F       
  15 F15            0.5296    10.3764     2.0932 F       
  16 F16           -0.3393    10.2749    -0.0172 F       
  17 N17            5.3309    -1.8124     0.2446 N.pl3   
  18 C18            5.5002    -1.8690     1.6012 C.2     
  19 C19            4.3722    -1.4853     2.2195 C.2     
  20 C20            3.4012    -1.1561     1.1733 C.ar    
  21 C21            2.0788    -0.7077     1.1828 C.ar    
  22 C22            1.4287    -0.4880     0.0014 C.ar    
  23 C23            2.0722    -0.7070    -1.2091 C.ar    
  24 C24            3.3762    -1.1497    -1.2415 C.ar    
  25 C25            4.0575    -1.3800    -0.0505 C.ar    
  26 H26           -0.5013    -0.3764     0.9053 H       
  27 H27           -0.5139    -0.3729    -0.8747 H       
  28 H28           -2.0266     1.6678    -0.0562 H       
  29 H29           -2.9205     3.7909    -1.1445 H       
  30 H30           -2.9568     6.2433    -0.9436 H       
  31 H31            0.4487     6.0846     1.6328 H       
  32 H32            0.4797     3.6313     1.4427 H       
  33 H33           -0.3614     7.8927     2.3065 H       
  34 H34            0.7138     8.0235     0.8941 H       
  35 H35            6.0085    -2.0393    -0.4114 H       
  36 H36            6.4070    -2.1771     2.1006 H       
  37 H37            4.2111    -1.4299     3.2860 H       
  38 H38            1.5715    -0.5360     2.1207 H       
  39 H39            1.5450    -0.5288    -2.1347 H       
  40 H40            3.8680    -1.3175    -2.1882 H       
@<TRIPOS>BOND
   1    1    2 1
   2    1    3 2
   3    1    4 am
   4    2   22 1
   5    2   26 1
   6    2   27 1
   7    4    5 1
   8    4   28 1
   9    5    6 ar
  10    5   10 ar
  11    6    7 ar
  12    6   29 1
  13    7    8 ar
  14    7   30 1
  15    8    9 ar
  16    8   11 1
  17    9   10 ar
  18    9   31 1
  19   10   32 1
  20   11   12 1
  21   12   13 1
  22   12   33 1
  23   12   34 1
  24   13   14 1
  25   13   15 1
  26   13   16 1
  27   17   18 1
  28   17   25 1
  29   17   35 1
  30   18   19 2
  31   18   36 1
  32   19   20 1
  33   19   37 1
  34   20   21 ar
  35   20   25 ar
  36   21   22 ar
  37   21   38 1
  38   22   23 ar
  39   23   24 ar
  40   23   39 1
  41   24   25 ar
  42   24   40 1

#	End of record

