#	Name: ASD02398069
#	Creating user name:	WinNT
#	Creation time:	15. 06. 2019 20:20

#	Modifying user name:	WinNT
#	Modification time:	15. 06. 2019 20:20

#	Program:	/corina/corina34_cracker 3.40 0067  02.08.2006

@<TRIPOS>MOLECULE
ASD02398069
  54   56    0    0    0
SMALL
NO_CHARGES


@<TRIPOS>ATOM
   1 C1            -0.0167     1.3833     0.0096 C.ar    
   2 C2             0.0021    -0.0041     0.0020 C.ar    
   3 C3            -1.1853    -0.7097     0.0095 C.ar    
   4 C4            -2.3921    -0.0347     0.0242 C.ar    
   5 C5            -2.4135     1.3476     0.0318 C.ar    
   6 C6            -1.2285     2.0581     0.0306 C.ar    
   7 C7             1.3169    -0.7404    -0.0149 C.3     
   8 C8             1.4199    -1.6239     1.2277 C.3     
   9 C9             0.4550    -2.7749     1.1199 C.2     
  10 C10            0.2032    -3.3268    -0.0621 C.2     
  11 C11            0.8689    -2.8076    -1.2677 C.2     
  12 C12            1.3987    -1.5893    -1.2559 C.2     
  13 C13            2.0829    -1.0554    -2.4879 C.3     
  14 S14            1.0106     0.1659    -3.2937 S.3     
  15 C15            1.9899     0.6841    -4.7300 C.3     
  16 C16           -3.6860    -0.8071     0.0313 C.3     
  17 C17           -4.1047    -1.0727     1.4544 C.2     
  18 O18           -3.4223    -0.6755     2.3690 O.2     
  19 O19           -5.2356    -1.7505     1.7060 O.3     
  20 C20            1.2221     1.7156    -5.5158 C.ar    
  21 C21            1.3690     3.0584    -5.2222 C.ar    
  22 C22            0.6647     4.0046    -5.9429 C.ar    
  23 C23           -0.1862     3.6080    -6.9576 C.ar    
  24 C24           -0.3324     2.2653    -7.2519 C.ar    
  25 C25            0.3752     1.3194    -6.5340 C.ar    
  26 C26           -0.7603    -4.4807    -0.1679 C.3     
  27 F27           -1.2586    -4.7901     1.1021 F       
  28 F28           -1.8194    -4.1280    -1.0112 F       
  29 F29           -0.0973    -5.5951    -0.6931 F       
  30 O30            1.1501     2.0799     0.0022 O.3     
  31 C31            1.0546     3.5057     0.0108 C.3     
  32 H32           -1.1711    -1.7896     0.0036 H       
  33 H33           -3.3573     1.8725     0.0432 H       
  34 H34           -1.2458     3.1379     0.0366 H       
  35 H35            2.1351    -0.0202    -0.0160 H       
  36 H36            2.4356    -2.0098     1.3143 H       
  37 H37            1.1817    -1.0335     2.1125 H       
  38 H38           -0.0333    -3.1530     2.0059 H       
  39 H39            0.9268    -3.4151    -2.1588 H       
  40 H40            3.0234    -0.5827    -2.2051 H       
  41 H41            2.2814    -1.8758    -3.1776 H       
  42 H42            2.9328     1.1133    -4.3912 H       
  43 H43            2.1908    -0.1798    -5.3636 H       
  44 H44           -4.4587    -0.2262    -0.4723 H       
  45 H45           -3.5465    -1.7546    -0.4892 H       
  46 H46           -5.4627    -1.8964     2.6345 H       
  47 H47            2.0338     3.3682    -4.4294 H       
  48 H48            0.7789     5.0537    -5.7131 H       
  49 H49           -0.7371     4.3473    -7.5203 H       
  50 H50           -0.9975     1.9555    -8.0444 H       
  51 H51            0.2610     0.2703    -6.7639 H       
  52 H52            2.0556     3.9369     0.0036 H       
  53 H53            0.5092     3.8386    -0.8722 H       
  54 H54            0.5262     3.8290     0.9076 H       
@<TRIPOS>BOND
   1    1    2 ar
   2    1   30 1
   3    1    6 ar
   4    2    3 ar
   5    2    7 1
   6    3    4 ar
   7    3   32 1
   8    4    5 ar
   9    4   16 1
  10    5    6 ar
  11    5   33 1
  12    6   34 1
  13    7    8 1
  14    7   12 1
  15    7   35 1
  16    8    9 1
  17    8   36 1
  18    8   37 1
  19    9   10 2
  20    9   38 1
  21   10   11 1
  22   10   26 1
  23   11   12 2
  24   11   39 1
  25   12   13 1
  26   13   14 1
  27   13   40 1
  28   13   41 1
  29   14   15 1
  30   15   20 1
  31   15   42 1
  32   15   43 1
  33   16   17 1
  34   16   44 1
  35   16   45 1
  36   17   18 2
  37   17   19 1
  38   19   46 1
  39   20   21 ar
  40   20   25 ar
  41   21   22 ar
  42   21   47 1
  43   22   23 ar
  44   22   48 1
  45   23   24 ar
  46   23   49 1
  47   24   25 ar
  48   24   50 1
  49   25   51 1
  50   26   27 1
  51   26   28 1
  52   26   29 1
  53   30   31 1
  54   31   52 1
  55   31   53 1
  56   31   54 1

#	End of record

