#	Name: ASD02508495
#	Creating user name:	WinNT
#	Creation time:	15. 06. 2019 20:24

#	Modifying user name:	WinNT
#	Modification time:	15. 06. 2019 20:24

#	Program:	/corina/corina34_cracker 3.40 0067  02.08.2006

@<TRIPOS>MOLECULE
ASD02508495
  31   33    0    0    0
SMALL
NO_CHARGES


@<TRIPOS>ATOM
   1 N1            -0.2431     1.3578    -0.1617 N.2     
   2 C2            -0.1429     0.0215    -0.1104 C.2     
   3 C3             1.1605    -0.3062    -0.2012 C.2     
   4 N4             1.8586     0.8684    -0.3097 N.pl3   
   5 C5             0.9492     1.8765    -0.2810 C.2     
   6 C6             3.2468     1.0033    -0.4274 C.2     
   7 S7             1.8380    -1.9326    -0.1832 S.o2    
   8 N8             1.7717    -2.5085    -1.7344 N.am    
   9 C9             0.5351    -2.6819    -2.3634 C.ar    
  10 C10           -0.5139    -3.2841    -1.6808 C.ar    
  11 O11            3.2160    -1.7898     0.1332 O.2     
  12 O12            0.9441    -2.7313     0.5799 O.2     
  13 C13            0.3524    -2.2471    -3.6695 C.ar    
  14 C14           -0.8701    -2.4193    -4.2897 C.ar    
  15 C15           -1.9130    -3.0247    -3.6104 C.ar    
  16 C16           -1.7352    -3.4545    -2.3047 C.ar    
  17 Cl17          -3.0451    -4.2135    -1.4551 Cl      
  18 C18            3.8809     1.6286    -1.4294 C.2     
  19 C19            5.2613     1.6333    -1.3288 C.2     
  20 C20            5.7497     1.0162    -0.2522 C.2     
  21 S21            4.4274     0.3850     0.7204 S.3     
  22 F22           -3.1076    -3.1920    -4.2189 F       
  23 H23           -0.9651    -0.6720    -0.0127 H       
  24 H24            1.1744     2.9308    -0.3466 H       
  25 H25            2.5907    -2.7255    -2.2066 H       
  26 H26           -0.3752    -3.6193    -0.6636 H       
  27 H27            1.1656    -1.7743    -4.2001 H       
  28 H28           -1.0122    -2.0808    -5.3054 H       
  29 H29            3.3555     2.0922    -2.2513 H       
  30 H30            5.8955     2.1014    -2.0671 H       
  31 H31            6.7984     0.9222    -0.0117 H       
@<TRIPOS>BOND
   1    1    2 1
   2    1    5 2
   3    2    3 2
   4    2   23 1
   5    3    4 1
   6    3    7 1
   7    4    5 1
   8    4    6 1
   9    5   24 1
  10    6   18 2
  11    6   21 1
  12    7    8 am
  13    7   11 2
  14    7   12 2
  15    8    9 1
  16    8   25 1
  17    9   13 ar
  18    9   10 ar
  19   10   16 ar
  20   10   26 1
  21   13   14 ar
  22   13   27 1
  23   14   15 ar
  24   14   28 1
  25   15   16 ar
  26   15   22 1
  27   16   17 1
  28   18   19 1
  29   18   29 1
  30   19   20 2
  31   19   30 1
  32   20   21 1
  33   20   31 1

#	End of record

