#	Name: ASD03230002
#	Creating user name:	WinNT
#	Creation time:	15. 06. 2019 20:34

#	Modifying user name:	WinNT
#	Modification time:	15. 06. 2019 20:34

#	Program:	/corina/corina34_cracker 3.40 0067  02.08.2006

@<TRIPOS>MOLECULE
ASD03230002
  46   48    0    0    0
SMALL
NO_CHARGES


@<TRIPOS>ATOM
   1 C1            -0.0168     1.3894     0.0097 C.ar    
   2 C2             0.0021    -0.0041     0.0020 C.ar    
   3 C3            -1.1879    -0.7181     0.0095 C.ar    
   4 C4            -2.3950    -0.0528     0.0242 C.ar    
   5 C5            -2.4221     1.3455     0.0320 C.ar    
   6 C6            -1.2224     2.0643     0.0306 C.ar    
   7 C7            -3.7096     2.0585     0.0471 C.2     
   8 C8            -4.8640     1.3642     0.0535 C.2     
   9 C9            -6.1461     2.0743     0.0685 C.2     
  10 C10           -7.3969     1.5123     0.0765 C.2     
  11 O11           -6.3299     3.4085     0.0832 O.3     
  12 C12           -8.2709     2.6320     0.0907 C.2     
  13 C13           -9.7451     2.6031     0.1041 C.2     
  14 N14           -7.5030     3.6995     0.0938 N.2     
  15 C15          -10.4390     3.7524     0.1168 C.2     
  16 C16          -11.9119     3.7235     0.1302 C.ar    
  17 C17          -12.6363     4.9193     0.1435 C.ar    
  18 C18          -12.5886     2.5009     0.1239 C.ar    
  19 C19          -13.9674     2.4762     0.1365 C.ar    
  20 C20          -14.6856     3.6629     0.1550 C.ar    
  21 C21          -14.0175     4.8862     0.1560 C.ar    
  22 O22          -16.0444     3.6327     0.1669 O.3     
  23 O23            1.1893    -0.6656    -0.0133 O.3     
  24 O24            1.1517     2.0851     0.0023 O.3     
  25 C25            1.0578     3.5110     0.0108 C.3     
  26 O26          -14.7253     6.0473     0.1747 O.3     
  27 C27          -13.9758     7.2640     0.1746 C.3     
  28 H28           -1.1681    -1.7979     0.0036 H       
  29 H29           -3.3195    -0.6110     0.0293 H       
  30 H30           -1.2383     3.1441     0.0369 H       
  31 H31           -3.7288     3.1383     0.0531 H       
  32 H32           -4.8448     0.2844     0.0475 H       
  33 H33           -7.6566     0.4640     0.0725 H       
  34 H34          -10.2666     1.6573     0.1037 H       
  35 H35           -9.9175     4.6981     0.1172 H       
  36 H36          -12.1176     5.8665     0.1442 H       
  37 H37          -12.0320     1.5755     0.1088 H       
  38 H38          -14.4893     1.5307     0.1316 H       
  39 H39          -16.4296     3.6150     1.0537 H       
  40 H40            1.5416    -0.8618     0.8656 H       
  41 H41            0.5127     3.8445    -0.8722 H       
  42 H42            0.5297     3.8350     0.9076 H       
  43 H43            2.0593     3.9411     0.0036 H       
  44 H44          -13.3361     7.2967     1.0565 H       
  45 H45          -13.3595     7.3110    -0.7232 H       
  46 H46          -14.6601     8.1122     0.1904 H       
@<TRIPOS>BOND
   1    1    2 ar
   2    1   24 1
   3    1    6 ar
   4    2    3 ar
   5    2   23 1
   6    3    4 ar
   7    3   28 1
   8    4    5 ar
   9    4   29 1
  10    5    6 ar
  11    5    7 1
  12    6   30 1
  13    7    8 2
  14    7   31 1
  15    8    9 1
  16    8   32 1
  17    9   10 2
  18    9   11 1
  19   10   12 1
  20   10   33 1
  21   11   14 1
  22   12   13 1
  23   12   14 2
  24   13   15 2
  25   13   34 1
  26   15   16 1
  27   15   35 1
  28   16   17 ar
  29   16   18 ar
  30   17   21 ar
  31   17   36 1
  32   18   19 ar
  33   18   37 1
  34   19   20 ar
  35   19   38 1
  36   20   21 ar
  37   20   22 1
  38   21   26 1
  39   22   39 1
  40   23   40 1
  41   24   25 1
  42   25   41 1
  43   25   42 1
  44   25   43 1
  45   26   27 1
  46   27   44 1
  47   27   45 1
  48   27   46 1

#	End of record

