#	Name: ASD03430726
#	Creating user name:	WinNT
#	Creation time:	15. 06. 2019 20:41

#	Modifying user name:	WinNT
#	Modification time:	15. 06. 2019 20:41

#	Program:	/corina/corina34_cracker 3.40 0067  02.08.2006

@<TRIPOS>MOLECULE
ASD03430726
  58   64    0    0    0
SMALL
NO_CHARGES


@<TRIPOS>ATOM
   1 C1             3.5542    -1.8541    -4.5056 C.ar    
   2 C2             2.8242    -2.5798    -3.5738 C.ar    
   3 C3             3.2517    -3.8321    -3.1801 C.ar    
   4 C4             4.4202    -4.3780    -3.7031 C.ar    
   5 C5             5.1453    -3.6495    -4.6404 C.ar    
   6 C6             4.7175    -2.3937    -5.0396 C.ar    
   7 O7             4.6771    -5.6042    -3.1638 O.3     
   8 C8             2.6880    -4.8545    -2.2302 C.3     
   9 C9             3.4700    -6.1286    -2.5789 C.3     
  10 C10            1.5906    -4.4459    -0.2429 C.ar    
  11 C11            2.8697    -4.4617    -0.7940 C.ar    
  12 C12            1.2088    -5.0434    -2.4072 C.2     
  13 N13            0.6434    -4.7909    -1.2100 N.am    
  14 O14            0.6351    -5.3606    -3.4277 O.2     
  15 C15            3.9680    -4.1506    -0.0245 C.ar    
  16 C16            3.8082    -3.8208     1.3102 C.ar    
  17 C17            2.5433    -3.8034     1.8683 C.ar    
  18 C18            1.4394    -4.1137     1.1008 C.ar    
  19 C19           -0.7967    -4.8700    -0.9526 C.3     
  20 O20            5.4509    -1.6988    -5.9527 O.3     
  21 C21           -1.5180    -3.8735    -1.8232 C.ar    
  22 O22            3.1156    -0.6225    -4.8884 O.3     
  23 C23            4.0673     0.2248    -5.5415 C.3     
  24 C24            4.7971    -0.6053    -6.6056 C.3     
  25 C25           -1.2876    -6.2596    -1.2670 C.ar    
  26 C26           -2.7810    -4.1630    -2.3047 C.ar    
  27 C27           -3.4426    -3.2490    -3.1033 C.ar    
  28 C28           -2.8413    -2.0452    -3.4199 C.ar    
  29 C29           -1.5787    -1.7552    -2.9376 C.ar    
  30 C30           -0.9189    -2.6674    -2.1355 C.ar    
  31 C31           -1.5939    -7.1332    -0.2404 C.ar    
  32 C32           -2.0442    -8.4079    -0.5288 C.ar    
  33 C33           -2.1887    -8.8090    -1.8438 C.ar    
  34 C34           -1.8832    -7.9351    -2.8704 C.ar    
  35 C35           -1.4371    -6.6589    -2.5820 C.ar    
  36 F36            1.6928    -2.0588    -3.0506 F       
  37 H37            6.0492    -4.0659    -5.0598 H       
  38 H38            2.9215    -6.7339    -3.3007 H       
  39 H39            3.6934    -6.7037    -1.6803 H       
  40 H40            4.9551    -4.1643    -0.4624 H       
  41 H41            4.6698    -3.5779     1.9145 H       
  42 H42            2.4188    -3.5461     2.9097 H       
  43 H43            0.4546    -4.0985     1.5439 H       
  44 H44           -0.9914    -4.6444     0.0958 H       
  45 H45            3.5516     1.0594    -6.0164 H       
  46 H46            4.7850     0.6017    -4.8129 H       
  47 H47            5.5360     0.0152    -7.1127 H       
  48 H48            4.0782    -0.9879    -7.3301 H       
  49 H49           -3.2507    -5.1036    -2.0574 H       
  50 H50           -4.4290    -3.4755    -3.4801 H       
  51 H51           -3.3579    -1.3313    -4.0444 H       
  52 H52           -1.1089    -0.8148    -3.1853 H       
  53 H53            0.0675    -2.4409    -1.7587 H       
  54 H54           -1.4811    -6.8199     0.7870 H       
  55 H55           -2.2828    -9.0907     0.2733 H       
  56 H56           -2.5398    -9.8051    -2.0691 H       
  57 H57           -1.9958    -8.2485    -3.8978 H       
  58 H58           -1.1985    -5.9761    -3.3841 H       
@<TRIPOS>BOND
   1    1    2 ar
   2    1    6 ar
   3    1   22 1
   4    2    3 ar
   5    2   36 1
   6    3    4 ar
   7    3    8 1
   8    4    5 ar
   9    4    7 1
  10    5    6 ar
  11    5   37 1
  12    6   20 1
  13    7    9 1
  14    8    9 1
  15    8   11 1
  16    8   12 1
  17    9   38 1
  18    9   39 1
  19   10   11 ar
  20   10   13 1
  21   10   18 ar
  22   11   15 ar
  23   12   13 am
  24   12   14 2
  25   13   19 1
  26   15   16 ar
  27   15   40 1
  28   16   17 ar
  29   16   41 1
  30   17   18 ar
  31   17   42 1
  32   18   43 1
  33   19   21 1
  34   19   25 1
  35   19   44 1
  36   20   24 1
  37   21   26 ar
  38   21   30 ar
  39   22   23 1
  40   23   24 1
  41   23   45 1
  42   23   46 1
  43   24   47 1
  44   24   48 1
  45   25   31 ar
  46   25   35 ar
  47   26   27 ar
  48   26   49 1
  49   27   28 ar
  50   27   50 1
  51   28   29 ar
  52   28   51 1
  53   29   30 ar
  54   29   52 1
  55   30   53 1
  56   31   32 ar
  57   31   54 1
  58   32   33 ar
  59   32   55 1
  60   33   34 ar
  61   33   56 1
  62   34   35 ar
  63   34   57 1
  64   35   58 1

#	End of record

