#	Name: ASD01208741
#	Creating user name:	WinNT
#	Creation time:	15. 06. 2019 19:10

#	Modifying user name:	WinNT
#	Modification time:	15. 06. 2019 19:10

#	Program:	/corina/corina34_cracker 3.40 0067  02.08.2006

@<TRIPOS>MOLECULE
ASD01208741
  52   55    0    0    0
SMALL
NO_CHARGES


@<TRIPOS>ATOM
   1 C1             0.1634     1.3096    -0.1915 C.2     
   2 C2             0.1924    -0.1059     0.2137 C.ar    
   3 C3             1.3804    -0.8458     0.1052 C.ar    
   4 C4             1.3987    -2.1758     0.4884 C.ar    
   5 C5             0.2462    -2.7734     0.9775 C.ar    
   6 C6            -0.9321    -2.0411     1.0856 C.ar    
   7 C7            -0.9617    -0.7168     0.7135 C.ar    
   8 O8             1.1702     1.8399    -0.6213 O.2     
   9 N9            -0.9801     2.0159    -0.0914 N.am    
  10 O10            2.5061    -0.2598    -0.3737 O.3     
  11 C11            3.6176    -1.0287    -0.5078 C.ar    
  12 C12            3.7264    -1.9088    -1.5771 C.ar    
  13 C13            4.8525    -2.6909    -1.7163 C.ar    
  14 C14            5.8851    -2.5976    -0.7810 C.ar    
  15 C15            5.7722    -1.7115     0.2922 C.ar    
  16 C16            4.6453    -0.9289     0.4216 C.ar    
  17 O17            8.1614    -3.4479    -0.1030 O.3     
  18 C18            7.0940    -3.4349    -0.9263 C.2     
  19 N19            7.3286    -4.3049    -1.8809 N.2     
  20 N20            8.4787    -4.8480    -1.6866 N.2     
  21 C21            9.0193    -4.3507    -0.6098 C.2     
  22 C22           10.3633    -4.7203    -0.0369 C.3     
  23 S23           -2.4174     4.4058    -0.4038 S.3     
  24 C24           -1.0074     3.3520    -0.4739 C.2     
  25 N25            0.0018     4.0224    -0.9393 N.2     
  26 C26           -0.2114     5.2873    -1.2508 C.2     
  27 C27           -1.4533     5.7328    -1.0484 C.2     
  28 F28           -1.8952     6.9853    -1.2957 F       
  29 O29            0.2679    -4.0777     1.3518 O.3     
  30 C30           -0.9179    -6.1773     1.5142 C.3     
  31 C31           -0.9783    -4.6642     1.7328 C.3     
  32 C32           -1.2485    -4.3727     3.2103 C.3     
  33 C33           -0.7779    -6.4601     0.0764 C.1     
  34 N34           -0.6698    -6.6783    -1.0332 N.1     
  35 H35            2.3105    -2.7488     0.4062 H       
  36 H36           -1.8255    -2.5128     1.4673 H       
  37 H37           -1.8771    -0.1507     0.8032 H       
  38 H38           -1.7839     1.5919     0.2476 H       
  39 H39            2.9274    -1.9804    -2.3001 H       
  40 H40            4.9361    -3.3754    -2.5475 H       
  41 H41            6.5688    -1.6366     1.0176 H       
  42 H42            4.5591    -0.2401     1.2490 H       
  43 H43           10.2446    -5.5462     0.6644 H       
  44 H44           11.0316    -5.0217    -0.8435 H       
  45 H45           10.7857    -3.8603     0.4827 H       
  46 H46            0.5693     5.9214    -1.6442 H       
  47 H47           -0.0623    -6.5880     2.0503 H       
  48 H48           -1.8342    -6.6351     1.8870 H       
  49 H49           -1.7793    -4.2411     1.1266 H       
  50 H50           -2.1991    -4.8200     3.5009 H       
  51 H51           -0.4475    -4.7957     3.8165 H       
  52 H52           -1.2915    -3.2948     3.3660 H       
@<TRIPOS>BOND
   1    1    2 1
   2    1    8 2
   3    1    9 am
   4    2    3 ar
   5    2    7 ar
   6    3    4 ar
   7    3   10 1
   8    4    5 ar
   9    4   35 1
  10    5    6 ar
  11    5   29 1
  12    6    7 ar
  13    6   36 1
  14    7   37 1
  15    9   24 1
  16    9   38 1
  17   10   11 1
  18   11   12 ar
  19   11   16 ar
  20   12   13 ar
  21   12   39 1
  22   13   14 ar
  23   13   40 1
  24   14   15 ar
  25   14   18 1
  26   15   16 ar
  27   15   41 1
  28   16   42 1
  29   17   18 1
  30   17   21 1
  31   18   19 2
  32   19   20 1
  33   20   21 2
  34   21   22 1
  35   22   43 1
  36   22   44 1
  37   22   45 1
  38   23   24 1
  39   23   27 1
  40   24   25 2
  41   25   26 1
  42   26   27 2
  43   26   46 1
  44   27   28 1
  45   29   31 1
  46   30   31 1
  47   30   33 1
  48   30   47 1
  49   30   48 1
  50   31   32 1
  51   31   49 1
  52   32   50 1
  53   32   51 1
  54   32   52 1
  55   33   34 3

#	End of record

