#	Name: ASD04930015
#	Creating user name:	WinNT
#	Creation time:	15. 06. 2019 20:56

#	Modifying user name:	WinNT
#	Modification time:	15. 06. 2019 20:56

#	Program:	/corina/corina34_cracker 3.40 0067  02.08.2006

@<TRIPOS>MOLECULE
ASD04930015
  20   21    0    0    0
SMALL
NO_CHARGES


@<TRIPOS>ATOM
   1 C1            -0.0167     1.3813     0.0096 C.ar    
   2 C2             0.0021    -0.0041     0.0020 C.ar    
   3 C3             1.1989    -0.6956    -0.0149 C.ar    
   4 C4             2.3932     0.0030    -0.0250 C.ar    
   5 C5             2.3751     1.4117    -0.0130 C.ar    
   6 C6             1.1656     2.0971     0.0022 C.ar    
   7 N7             3.6271    -0.6336    -0.0523 N.am    
   8 C8             4.7562     0.0717     0.1568 C.2     
   9 O9             4.7345     1.3835     0.4606 O.3     
  10 C10            3.6803     2.1007    -0.0123 C.2     
  11 O11            3.8055     3.2420    -0.4106 O.2     
  12 O12            5.8280    -0.4941     0.0687 O.2     
  13 Br13           1.1385     3.9879     0.0127 Br      
  14 C14            3.7014    -2.0742    -0.3081 C.3     
  15 H15           -0.9611     1.9052     0.0169 H       
  16 H16           -0.9296    -0.5503     0.0098 H       
  17 H17            1.2018    -1.7756    -0.0198 H       
  18 H18            3.7919    -2.2486    -1.3803 H       
  19 H19            4.5704    -2.4895     0.2022 H       
  20 H20            2.7971    -2.5563     0.0633 H       
@<TRIPOS>BOND
   1    1    2 ar
   2    1    6 ar
   3    1   15 1
   4    2    3 ar
   5    2   16 1
   6    3    4 ar
   7    3   17 1
   8    4    5 ar
   9    4    7 1
  10    5    6 ar
  11    5   10 1
  12    6   13 1
  13    7    8 am
  14    7   14 1
  15    8    9 1
  16    8   12 2
  17    9   10 1
  18   10   11 2
  19   14   18 1
  20   14   19 1
  21   14   20 1

#	End of record

