#	Name: ASD04590022
#	Creating user name:	WinNT
#	Creation time:	15. 06. 2019 20:50

#	Modifying user name:	WinNT
#	Modification time:	15. 06. 2019 20:50

#	Program:	/corina/corina34_cracker 3.40 0067  02.08.2006

@<TRIPOS>MOLECULE
ASD04590022
  25   26    0    0    0
SMALL
NO_CHARGES


@<TRIPOS>ATOM
   1 N1            -0.0767     1.2683    -0.0493 N.pl3   
   2 N2            -0.0362    -0.0145     0.0020 N.2     
   3 C3             1.1935    -0.4418    -0.2149 C.2     
   4 C4             2.0021     0.7053    -0.4235 C.2     
   5 C5             1.1602     1.7666    -0.3104 C.2     
   6 C6             1.6424    -1.8460    -0.2358 C.2     
   7 O7             2.8108    -2.1077    -0.4483 O.2     
   8 N8             0.7578    -2.8395    -0.0194 N.am    
   9 C9             1.1624    -4.1744    -0.1354 C.ar    
  10 C10            2.4404    -4.5501     0.2569 C.ar    
  11 C11            2.8377    -5.8678     0.1416 C.ar    
  12 C12            1.9627    -6.8140    -0.3649 C.ar    
  13 C13            0.6880    -6.4414    -0.7571 C.ar    
  14 C14            0.2846    -5.1259    -0.6377 C.ar    
  15 F15            2.3533    -8.1025    -0.4769 F       
  16 N16            3.3788     0.7373    -0.6896 N.pl3   
  17 H17           -0.8757     1.8038     0.0760 H       
  18 H18            1.4244     2.8091    -0.4100 H       
  19 H19           -0.1593    -2.6295     0.2167 H       
  20 H20            3.1233    -3.8124     0.6517 H       
  21 H21            3.8317    -6.1604     0.4463 H       
  22 H22            0.0072    -7.1808    -1.1522 H       
  23 H23           -0.7113    -4.8366    -0.9393 H       
  24 H24            3.8810    -0.0905    -0.7478 H       
  25 H25            3.8288     1.5874    -0.8155 H       
@<TRIPOS>BOND
   1    1    2 1
   2    1    5 1
   3    1   17 1
   4    2    3 2
   5    3    4 1
   6    3    6 1
   7    4    5 2
   8    4   16 1
   9    5   18 1
  10    6    7 2
  11    6    8 am
  12    8    9 1
  13    8   19 1
  14    9   10 ar
  15    9   14 ar
  16   10   11 ar
  17   10   20 1
  18   11   12 ar
  19   11   21 1
  20   12   13 ar
  21   12   15 1
  22   13   14 ar
  23   13   22 1
  24   14   23 1
  25   16   24 1
  26   16   25 1

#	End of record

