#	Name: ASD09740043
#	Creating user name:	WinNT
#	Creation time:	15. 06. 2019 21:22

#	Modifying user name:	WinNT
#	Modification time:	15. 06. 2019 21:22

#	Program:	/corina/corina34_cracker 3.40 0067  02.08.2006

@<TRIPOS>MOLECULE
ASD09740043
  46   49    0    0    0
SMALL
NO_CHARGES


@<TRIPOS>ATOM
   1 N1            -0.0144     1.2085     0.0087 N.2     
   2 O2             0.0021    -0.0041     0.0020 O.3     
   3 C3             1.2061     1.6802    -0.0004 C.2     
   4 N4             2.0462     0.6242    -0.0141 N.2     
   5 C5             1.2702    -0.4441    -0.0125 C.2     
   6 C6             1.7127    -1.8531    -0.0238 C.ar    
   7 C7             1.5949     3.1126     0.0031 C.ar    
   8 C8             0.7689    -2.8832    -0.0204 C.ar    
   9 C9             3.0748    -2.1584    -0.0438 C.ar    
  10 C10            3.4864    -3.4744    -0.0543 C.ar    
  11 C11            2.5495    -4.4976    -0.0456 C.ar    
  12 C12            1.1879    -4.1997    -0.0310 C.ar    
  13 N13            2.8885     3.4372    -0.0079 N.ar    
  14 C14            3.3064     4.6791    -0.0056 C.ar    
  15 C15            2.3808     5.7364     0.0094 C.ar    
  16 C16            0.9939     5.4318     0.0214 C.ar    
  17 C17            0.6081     4.0807     0.0121 C.ar    
  18 C18            2.7888     7.0792     0.0134 C.ar    
  19 C19            1.8506     8.0665     0.0285 C.ar    
  20 C20            0.4898     7.7665     0.0407 C.ar    
  21 C21            0.0561     6.4752     0.0369 C.ar    
  22 O22            2.9600    -5.7927    -0.0565 O.3     
  23 C23            4.6368    -7.5328    -0.0866 C.3     
  24 C24            4.3696    -6.0264    -0.0768 C.3     
  25 O25            0.2719    -5.2049    -0.0225 O.3     
  26 C26           -1.9796    -6.0829     0.0002 C.3     
  27 C27           -1.1061    -4.8268    -0.0077 C.3     
  28 H28           -0.2857    -2.6509    -0.0091 H       
  29 H29            3.8063    -1.3638    -0.0513 H       
  30 H30            4.5405    -3.7092    -0.0697 H       
  31 H31            4.3654     4.8908    -0.0149 H       
  32 H32           -0.4360     3.8047     0.0207 H       
  33 H33            3.8397     7.3280     0.0048 H       
  34 H34            2.1667     9.0993     0.0315 H       
  35 H35           -0.2319     8.5699     0.0529 H       
  36 H36           -1.0015     6.2562     0.0464 H       
  37 H37            5.7120    -7.7111    -0.1021 H       
  38 H38            4.2065    -7.9840     0.8076 H       
  39 H39            4.1821    -7.9767    -0.9722 H       
  40 H40            4.7998    -5.5753    -0.9709 H       
  41 H41            4.8243    -5.5825     0.8088 H       
  42 H42           -1.7559    -6.6755     0.8872 H       
  43 H43           -3.0307    -5.7945     0.0115 H       
  44 H44           -1.7745    -6.6736    -0.8926 H       
  45 H45           -1.3112    -4.2361     0.8852 H       
  46 H46           -1.3299    -4.2342    -0.8947 H       
@<TRIPOS>BOND
   1    1    2 1
   2    1    3 2
   3    2    5 1
   4    3    4 1
   5    3    7 1
   6    4    5 2
   7    5    6 1
   8    6    8 ar
   9    6    9 ar
  10    7   13 ar
  11    7   17 ar
  12    8   12 ar
  13    8   28 1
  14    9   10 ar
  15    9   29 1
  16   10   11 ar
  17   10   30 1
  18   11   12 ar
  19   11   22 1
  20   12   25 1
  21   13   14 ar
  22   14   15 ar
  23   14   31 1
  24   15   16 ar
  25   15   18 ar
  26   16   17 ar
  27   16   21 ar
  28   17   32 1
  29   18   19 ar
  30   18   33 1
  31   19   20 ar
  32   19   34 1
  33   20   21 ar
  34   20   35 1
  35   21   36 1
  36   22   24 1
  37   23   24 1
  38   23   37 1
  39   23   38 1
  40   23   39 1
  41   24   40 1
  42   24   41 1
  43   25   27 1
  44   26   27 1
  45   26   42 1
  46   26   43 1
  47   26   44 1
  48   27   45 1
  49   27   46 1

#	End of record

