#	Name: ASD01120338
#	Creating user name:	WinNT
#	Creation time:	15. 06. 2019 18:59

#	Modifying user name:	WinNT
#	Modification time:	15. 06. 2019 18:59

#	Program:	/corina/corina34_cracker 3.40 0067  02.08.2006

@<TRIPOS>MOLECULE
ASD01120338
  46   48    0    0    0
SMALL
NO_CHARGES


@<TRIPOS>ATOM
   1 C1            -0.0187     1.5258     0.0104 C.3     
   2 C2             0.0021    -0.0041     0.0020 C.3     
   3 C3             0.7421    -0.5109     1.2415 C.3     
   4 N4             0.7619    -1.9757     1.2335 N.pl3   
   5 C5             1.8097    -2.6544     0.6169 C.ar    
   6 C6             2.9409    -2.9911     1.3378 C.ar    
   7 C7             3.9865    -3.6671     0.7267 C.ar    
   8 C8             3.9184    -4.0146    -0.6049 C.ar    
   9 C9             2.7924    -3.6883    -1.3554 C.ar    
  10 C10            1.7224    -3.0076    -0.7434 C.ar    
  11 C11            0.7333    -2.8134    -1.7333 C.2     
  12 C12            1.1940    -3.3570    -2.8925 C.2     
  13 N13            2.4481    -3.8979    -2.6703 N.pl3   
  14 C14            0.4747    -3.3719    -4.1709 C.2     
  15 O15           -0.6294    -2.8692    -4.2532 O.2     
  16 O16            1.0380    -3.9434    -5.2551 O.3     
  17 N17            5.0451    -4.7359    -1.2387 N.pl3   
  18 O18            6.0311    -5.0217    -0.5832 O.2     
  19 O19            4.9861    -5.0437    -2.4157 O.2     
  20 C20           -0.2704    -2.6916     1.8444 C.ar    
  21 C21           -0.2525    -4.0810     1.8374 C.ar    
  22 C22           -1.2733    -4.7887     2.4421 C.ar    
  23 C23           -2.3141    -4.1176     3.0551 C.ar    
  24 C24           -2.3376    -2.7297     3.0650 C.ar    
  25 C25           -1.3129    -2.0158     2.4646 C.ar    
  26 O26           -3.3623    -2.0714     3.6679 O.3     
  27 C27           -4.3811    -2.8710     4.2717 C.3     
  28 H28            1.0039     1.9031     0.0027 H       
  29 H29           -0.5459     1.8868    -0.8726 H       
  30 H30           -0.5289     1.8773     0.9072 H       
  31 H31           -1.0205    -0.3814     0.0098 H       
  32 H32            0.5123    -0.3556    -0.8948 H       
  33 H33            1.7647    -0.1336     1.2338 H       
  34 H34            0.2319    -0.1594     2.1383 H       
  35 H35            3.0106    -2.7259     2.3824 H       
  36 H36            4.8643    -3.9237     1.3011 H       
  37 H37           -0.2184    -2.3218    -1.5947 H       
  38 H38            2.9962    -4.3457    -3.3336 H       
  39 H39            0.5257    -3.9287    -6.0751 H       
  40 H40            0.5596    -4.6079     1.3586 H       
  41 H41           -1.2580    -5.8686     2.4353 H       
  42 H42           -3.1107    -4.6738     3.5269 H       
  43 H43           -1.3295    -0.9360     2.4713 H       
  44 H44           -5.1365    -2.2225     4.7157 H       
  45 H45           -4.8445    -3.5023     3.5136 H       
  46 H46           -3.9397    -3.4979     5.0464 H       
@<TRIPOS>BOND
   1    1    2 1
   2    1   28 1
   3    1   29 1
   4    1   30 1
   5    2    3 1
   6    2   31 1
   7    2   32 1
   8    3    4 1
   9    3   33 1
  10    3   34 1
  11    4    5 1
  12    4   20 1
  13    5    6 ar
  14    5   10 ar
  15    6    7 ar
  16    6   35 1
  17    7    8 ar
  18    7   36 1
  19    8    9 ar
  20    8   17 1
  21    9   10 ar
  22    9   13 1
  23   10   11 1
  24   11   12 2
  25   11   37 1
  26   12   13 1
  27   12   14 1
  28   13   38 1
  29   14   15 2
  30   14   16 1
  31   16   39 1
  32   17   18 2
  33   17   19 2
  34   20   21 ar
  35   20   25 ar
  36   21   22 ar
  37   21   40 1
  38   22   23 ar
  39   22   41 1
  40   23   24 ar
  41   23   42 1
  42   24   25 ar
  43   24   26 1
  44   25   43 1
  45   26   27 1
  46   27   44 1
  47   27   45 1
  48   27   46 1

#	End of record

