#	Name: ASD01917810
#	Creating user name:	WinNT
#	Creation time:	15. 06. 2019 20:10

#	Modifying user name:	WinNT
#	Modification time:	15. 06. 2019 20:10

#	Program:	/corina/corina34_cracker 3.40 0067  02.08.2006

@<TRIPOS>MOLECULE
ASD01917810
  43   45    0    0    0
SMALL
NO_CHARGES


@<TRIPOS>ATOM
   1 C1             0.2497     0.9568    -1.5300 C.2     
   2 C2             0.1484    -0.3725    -1.7220 C.2     
   3 C3            -1.0792    -1.1903    -1.4104 C.3     
   4 C4            -1.9774    -0.3918    -0.4574 C.3     
   5 N5            -2.0780     0.9945    -0.9377 N.am    
   6 C6            -0.8539     1.8157    -0.9638 C.3     
   7 C7            -3.2589     1.5012    -1.3442 C.2     
   8 O8            -3.3442     2.6725    -1.6467 O.2     
   9 O9             1.4753     1.3275    -1.9231 O.3     
  10 C10            2.1141     0.2259    -2.3481 C.2     
  11 N11            1.3144    -0.7981    -2.2263 N.2     
  12 C12            3.5237     0.1795    -2.8792 C.3     
  13 O13            3.5063     0.3781    -4.2942 O.3     
  14 C14            4.7052     0.3648    -4.9339 C.ar    
  15 C15            4.7621     0.5512    -6.3075 C.ar    
  16 C16            5.9821     0.5372    -6.9554 C.ar    
  17 C17            7.1459     0.3376    -6.2361 C.ar    
  18 C18            7.0919     0.1510    -4.8671 C.ar    
  19 C19            5.8749     0.1704    -4.2137 C.ar    
  20 C20           -4.4733     0.6123    -1.4227 C.3     
  21 C21           -4.1715    -0.5848    -2.3265 C.3     
  22 C22           -4.8329     0.1152    -0.0211 C.3     
  23 C23           -5.6038     1.3739    -1.9782 C.1     
  24 N24           -6.4762     1.9617    -2.4070 N.1     
  25 H25           -1.6212    -1.4013    -2.3322 H       
  26 H26           -0.7839    -2.1261    -0.9358 H       
  27 H27           -2.9702    -0.8410    -0.4304 H       
  28 H28           -1.5453    -0.4002     0.5433 H       
  29 H29           -0.5968     2.1304     0.0476 H       
  30 H30           -1.0068     2.6893    -1.5975 H       
  31 H31            4.1151     0.9653    -2.4093 H       
  32 H32            3.9650    -0.7913    -2.6540 H       
  33 H33            3.8532     0.7068    -6.8698 H       
  34 H34            6.0268     0.6820    -8.0247 H       
  35 H35            8.0987     0.3270    -6.7444 H       
  36 H36            8.0023    -0.0054    -4.3076 H       
  37 H37            5.8332     0.0246    -3.1444 H       
  38 H38           -3.4292    -1.2235    -1.8478 H       
  39 H39           -5.0863    -1.1534    -2.4939 H       
  40 H40           -3.7841    -0.2303    -3.2817 H       
  41 H41           -5.3624     0.9006     0.5183 H       
  42 H42           -5.4712    -0.7648    -0.1003 H       
  43 H43           -3.9214    -0.1443     0.5174 H       
@<TRIPOS>BOND
   1    1    2 2
   2    1    9 1
   3    1    6 1
   4    2    3 1
   5    2   11 1
   6    3    4 1
   7    3   25 1
   8    3   26 1
   9    4    5 1
  10    4   27 1
  11    4   28 1
  12    5    6 1
  13    5    7 am
  14    6   29 1
  15    6   30 1
  16    7    8 2
  17    7   20 1
  18    9   10 1
  19   10   11 2
  20   10   12 1
  21   12   13 1
  22   12   31 1
  23   12   32 1
  24   13   14 1
  25   14   15 ar
  26   14   19 ar
  27   15   16 ar
  28   15   33 1
  29   16   17 ar
  30   16   34 1
  31   17   18 ar
  32   17   35 1
  33   18   19 ar
  34   18   36 1
  35   19   37 1
  36   20   23 1
  37   20   21 1
  38   20   22 1
  39   21   38 1
  40   21   39 1
  41   21   40 1
  42   22   41 1
  43   22   42 1
  44   22   43 1
  45   23   24 3

#	End of record

