#	Name: ASD01890325
#	Creating user name:	WinNT
#	Creation time:	15. 06. 2019 19:50

#	Modifying user name:	WinNT
#	Modification time:	15. 06. 2019 19:50

#	Program:	/corina/corina34_cracker 3.40 0067  02.08.2006

@<TRIPOS>MOLECULE
ASD01890325
  39   40    0    0    0
SMALL
NO_CHARGES


@<TRIPOS>ATOM
   1 C1            -0.0178     1.4581     0.0101 C.2     
   2 C2             0.0021    -0.0041     0.0020 C.2     
   3 C3             1.1795    -0.6627    -0.0128 C.2     
   4 C4             1.1999    -2.1695    -0.0210 C.3     
   5 O5             1.0271     2.0805     0.0034 O.2     
   6 O6            -1.1951     2.1167     0.0192 O.3     
   7 C7             2.4439     0.0905    -0.0208 C.ar    
   8 C8             2.7967     0.8833     1.0760 C.ar    
   9 C9             3.9833     1.5855     1.0610 C.ar    
  10 C10            4.8240     1.5076    -0.0357 C.ar    
  11 C11            4.4816     0.7256    -1.1251 C.ar    
  12 C12            3.3015     0.0125    -1.1228 C.ar    
  13 S13            1.6349    -2.7592    -1.6804 S.3     
  14 C14            1.6091    -4.5115    -1.4978 C.ar    
  15 C15            1.8989    -5.3290    -2.5834 C.ar    
  16 C16            1.8784    -6.7019    -2.4371 C.ar    
  17 C17            1.5695    -7.2639    -1.2106 C.ar    
  18 C18            1.2799    -6.4524    -0.1276 C.ar    
  19 C19            1.3045    -5.0787    -0.2663 C.ar    
  20 Cl20           1.5446    -8.9904    -1.0305 Cl      
  21 C21           -1.1397     3.5446     0.0267 C.3     
  22 C22           -2.5613     4.1101     0.0365 C.3     
  23 H23           -0.9258    -0.5567     0.0079 H       
  24 H24            1.9383    -2.5268     0.6967 H       
  25 H25            0.2149    -2.5477     0.2523 H       
  26 H26            2.1414     0.9456     1.9322 H       
  27 H27            4.2572     2.1982     1.9072 H       
  28 H28            5.7518     2.0603    -0.0416 H       
  29 H29            5.1425     0.6705    -1.9775 H       
  30 H30            3.0378    -0.6008    -1.9717 H       
  31 H31            2.1397    -4.8910    -3.5408 H       
  32 H32            2.1032    -7.3378    -3.2806 H       
  33 H33            1.0385    -6.8939     0.8280 H       
  34 H34            1.0831    -4.4459     0.5804 H       
  35 H35           -0.6079     3.8829     0.9160 H       
  36 H36           -0.6164     3.8926    -0.8639 H       
  37 H37           -3.0931     3.7718    -0.8528 H       
  38 H38           -3.0846     3.7622     0.9271 H       
  39 H39           -2.5190     5.1993     0.0423 H       
@<TRIPOS>BOND
   1    1    2 1
   2    1    5 2
   3    1    6 1
   4    2    3 2
   5    2   23 1
   6    3    4 1
   7    3    7 1
   8    4   13 1
   9    4   24 1
  10    4   25 1
  11    6   21 1
  12    7    8 ar
  13    7   12 ar
  14    8    9 ar
  15    8   26 1
  16    9   10 ar
  17    9   27 1
  18   10   11 ar
  19   10   28 1
  20   11   12 ar
  21   11   29 1
  22   12   30 1
  23   13   14 1
  24   14   15 ar
  25   14   19 ar
  26   15   16 ar
  27   15   31 1
  28   16   17 ar
  29   16   32 1
  30   17   18 ar
  31   17   20 1
  32   18   19 ar
  33   18   33 1
  34   19   34 1
  35   21   22 1
  36   21   35 1
  37   21   36 1
  38   22   37 1
  39   22   38 1
  40   22   39 1

#	End of record

