#	Name: ASD02198060
#	Creating user name:	WinNT
#	Creation time:	15. 06. 2019 20:18

#	Modifying user name:	WinNT
#	Modification time:	15. 06. 2019 20:18

#	Program:	/corina/corina34_cracker 3.40 0067  02.08.2006

@<TRIPOS>MOLECULE
ASD02198060
  57   60    0    0    0
SMALL
NO_CHARGES


@<TRIPOS>ATOM
   1 C1            -0.0134     1.3783     0.0917 C.2     
   2 C2             0.0023     0.0013     0.0295 C.2     
   3 C3            -1.1891    -0.7932     0.0149 C.1     
   4 S4             1.5723     2.0047     0.0907 S.3     
   5 C5             2.2772     0.3983     0.0056 C.2     
   6 C6             1.2825    -0.5479    -0.0187 C.2     
   7 C7             3.6589     0.1215    -0.0318 C.2     
   8 C8             4.6310     1.2280    -0.1456 C.2     
   9 O9             4.0517    -1.0314     0.0298 O.2     
  10 N10            1.5268    -1.9115    -0.0844 N.pl3   
  11 N11           -1.1550     2.1443     0.1418 N.pl3   
  12 N12           -2.1341    -1.4235     0.0034 N.1     
  13 C13            4.3275     2.5927    -0.3461 C.2     
  14 N14            5.4509     3.2555    -0.3921 N.2     
  15 N15            6.5127     2.3592    -0.2257 N.pl3   
  16 C16            6.0042     1.1217    -0.0699 C.2     
  17 C17            7.8738     2.6933    -0.2175 C.ar    
  18 C18            8.3451     3.7114    -1.0355 C.ar    
  19 C19            6.7909    -0.1464     0.1395 C.3     
  20 C20            8.7527     2.0105     0.6127 C.ar    
  21 C21           10.0935     2.3420     0.6185 C.ar    
  22 C22           10.5608     3.3529    -0.2012 C.ar    
  23 C23            9.6870     4.0382    -1.0253 C.ar    
  24 C24           -1.0552     3.6045     0.2061 C.3     
  25 C25           -2.4383     4.2010     0.2519 C.ar    
  26 C26           -3.0547     4.4202     1.4694 C.ar    
  27 C27           -3.0856     4.5333    -0.9240 C.ar    
  28 C28           -4.3568     5.0821    -0.8837 C.ar    
  29 C29           -4.3236     4.9678     1.5167 C.ar    
  30 C30           -4.9798     5.2979     0.3423 C.ar    
  31 O31           -4.9946     5.4098    -2.0392 O.3     
  32 C32           -4.2945     5.1609    -3.2598 C.3     
  33 O33           -6.2275     5.8370     0.3871 O.3     
  34 C34           -6.8023     6.0356     1.6803 C.3     
  35 H35            2.4390    -2.2398    -0.1159 H       
  36 H36            0.7855    -2.5369    -0.0989 H       
  37 H37           -2.0261     1.7176     0.1346 H       
  38 H38            3.3381     3.0143    -0.4447 H       
  39 H39            7.6632     4.2470    -1.6794 H       
  40 H40            6.9419    -0.3083     1.2068 H       
  41 H41            6.2417    -0.9885    -0.2816 H       
  42 H42            7.7583    -0.0598    -0.3552 H       
  43 H43            8.3882     1.2214     1.2536 H       
  44 H44           10.7776     1.8113     1.2641 H       
  45 H45           11.6095     3.6107    -0.1944 H       
  46 H46           10.0550     4.8273    -1.6644 H       
  47 H47           -0.5056     3.8919     1.1024 H       
  48 H48           -0.5300     3.9719    -0.6756 H       
  49 H49           -2.5444     4.1628     2.3857 H       
  50 H50           -2.5999     4.3651    -1.8739 H       
  51 H51           -4.8034     5.1373     2.4694 H       
  52 H52           -4.0712     4.0970    -3.3400 H       
  53 H53           -4.9139     5.4667    -4.1029 H       
  54 H54           -3.3643     5.7289    -3.2674 H       
  55 H55           -6.1709     6.7101     2.2588 H       
  56 H56           -7.7960     6.4705     1.5732 H       
  57 H57           -6.8783     5.0779     2.1951 H       
@<TRIPOS>BOND
   1    1    2 2
   2    1    4 1
   3    1   11 1
   4    2    3 1
   5    2    6 1
   6    3   12 3
   7    4    5 1
   8    5    6 2
   9    5    7 1
  10    6   10 1
  11    7    8 1
  12    7    9 2
  13    8   13 1
  14    8   16 2
  15   10   35 1
  16   10   36 1
  17   11   24 1
  18   11   37 1
  19   13   14 2
  20   13   38 1
  21   14   15 1
  22   15   16 1
  23   15   17 1
  24   16   19 1
  25   17   18 ar
  26   17   20 ar
  27   18   23 ar
  28   18   39 1
  29   19   40 1
  30   19   41 1
  31   19   42 1
  32   20   21 ar
  33   20   43 1
  34   21   22 ar
  35   21   44 1
  36   22   23 ar
  37   22   45 1
  38   23   46 1
  39   24   25 1
  40   24   47 1
  41   24   48 1
  42   25   26 ar
  43   25   27 ar
  44   26   29 ar
  45   26   49 1
  46   27   28 ar
  47   27   50 1
  48   28   31 1
  49   28   30 ar
  50   29   30 ar
  51   29   51 1
  52   30   33 1
  53   31   32 1
  54   32   52 1
  55   32   53 1
  56   32   54 1
  57   33   34 1
  58   34   55 1
  59   34   56 1
  60   34   57 1

#	End of record

