#	Name: ASD03540510
#	Creating user name:	WinNT
#	Creation time:	15. 06. 2019 20:43

#	Modifying user name:	WinNT
#	Modification time:	15. 06. 2019 20:43

#	Program:	/corina/corina34_cracker 3.40 0067  02.08.2006

@<TRIPOS>MOLECULE
ASD03540510
  52   55    0    0    0
SMALL
NO_CHARGES


@<TRIPOS>ATOM
   1 N1            -0.0161     1.3396     0.0094 N.am    
   2 C2             0.0021    -0.0041     0.0020 C.2     
   3 N3             1.1390    -0.7172    -0.0122 N.am    
   4 C4             2.3459    -0.1106    -0.0200 C.2     
   5 C5             2.3857     1.3633    -0.0129 C.ar    
   6 C6             3.5871     2.0607    -0.0197 C.ar    
   7 C7             3.5659     3.4548    -0.0121 C.ar    
   8 C8             2.3437     4.1382     0.0023 C.ar    
   9 C9             1.1622     3.4519     0.0094 C.ar    
  10 C10            1.1637     2.0628     0.0020 C.ar    
  11 C11            4.8337     4.2115    -0.0186 C.2     
  12 O12            5.8952     3.6190    -0.0307 O.2     
  13 N13            4.8141     5.5591    -0.0113 N.am    
  14 C14            6.0721     6.3100    -0.0178 C.3     
  15 C15            5.7753     7.7874    -0.0074 C.ar    
  16 C16            5.6497     8.4561     1.1973 C.ar    
  17 C17            5.3781     9.8085     1.2142 C.ar    
  18 C18            5.2303    10.5026     0.0116 C.ar    
  19 C19            5.3588     9.8216    -1.2005 C.ar    
  20 C20            5.6353     8.4701    -1.2027 C.ar    
  21 C21            4.9478    11.9064     0.0215 C.1     
  22 N22            4.7237    13.0201     0.0293 N.1     
  23 O23            3.3721    -0.7626    -0.0320 O.2     
  24 O24           -1.0576    -0.5997     0.0089 O.2     
  25 C25           -1.2992     2.0466     0.0193 C.3     
  26 C26            1.0697    -2.1806    -0.0189 C.3     
  27 C27            1.0327    -2.6752    -1.4420 C.ar    
  28 C28            2.2115    -2.9586    -2.1061 C.ar    
  29 C29            2.1775    -3.4122    -3.4115 C.ar    
  30 C30            0.9648    -3.5829    -4.0526 C.ar    
  31 C31           -0.2140    -3.3004    -3.3881 C.ar    
  32 C32           -0.1803    -2.8509    -2.0813 C.ar    
  33 H33            4.5271     1.5290    -0.0304 H       
  34 H34            2.3349     5.2181     0.0081 H       
  35 H35            0.2260     3.9901     0.0212 H       
  36 H36            3.9672     6.0319    -0.0017 H       
  37 H37            6.6548     6.0502     0.8660 H       
  38 H38            6.6399     6.0598    -0.9139 H       
  39 H39            5.7643     7.9180     2.1267 H       
  40 H40            5.2796    10.3291     2.1553 H       
  41 H41            5.2457    10.3524    -2.1343 H       
  42 H42            5.7389     7.9429    -2.1396 H       
  43 H43           -2.1134     1.3219     0.0192 H       
  44 H44           -1.3652     2.6671     0.9130 H       
  45 H45           -1.3736     2.6768    -0.8669 H       
  46 H46            1.9463    -2.5881     0.4847 H       
  47 H47            0.1684    -2.5041     0.5017 H       
  48 H48            3.1590    -2.8252    -1.6052 H       
  49 H49            3.0985    -3.6329    -3.9306 H       
  50 H50            0.9383    -3.9366    -5.0726 H       
  51 H51           -1.1615    -3.4334    -3.8891 H       
  52 H52           -1.1014    -2.6337    -1.5610 H       
@<TRIPOS>BOND
   1    1    2 am
   2    1   10 1
   3    1   25 1
   4    2    3 am
   5    2   24 2
   6    3    4 am
   7    3   26 1
   8    4    5 1
   9    4   23 2
  10    5    6 ar
  11    5   10 ar
  12    6    7 ar
  13    6   33 1
  14    7    8 ar
  15    7   11 1
  16    8    9 ar
  17    8   34 1
  18    9   10 ar
  19    9   35 1
  20   11   12 2
  21   11   13 am
  22   13   14 1
  23   13   36 1
  24   14   15 1
  25   14   37 1
  26   14   38 1
  27   15   16 ar
  28   15   20 ar
  29   16   17 ar
  30   16   39 1
  31   17   18 ar
  32   17   40 1
  33   18   19 ar
  34   18   21 1
  35   19   20 ar
  36   19   41 1
  37   20   42 1
  38   21   22 3
  39   25   43 1
  40   25   44 1
  41   25   45 1
  42   26   27 1
  43   26   46 1
  44   26   47 1
  45   27   28 ar
  46   27   32 ar
  47   28   29 ar
  48   28   48 1
  49   29   30 ar
  50   29   49 1
  51   30   31 ar
  52   30   50 1
  53   31   32 ar
  54   31   51 1
  55   32   52 1

#	End of record

