#	Name: ASD01890168
#	Creating user name:	WinNT
#	Creation time:	15. 06. 2019 19:50

#	Modifying user name:	WinNT
#	Modification time:	15. 06. 2019 19:50

#	Program:	/corina/corina34_cracker 3.40 0067  02.08.2006

@<TRIPOS>MOLECULE
ASD01890168
  34   35    0    0    0
SMALL
NO_CHARGES


@<TRIPOS>ATOM
   1 C1            -0.0184     1.5028     0.0103 C.2     
   2 C2             0.0021    -0.0041     0.0020 C.3     
   3 C3             1.4513    -0.4944    -0.0145 C.3     
   4 O4             1.0237     2.1235     0.0037 O.2     
   5 C5            -1.3000     2.2197     0.0203 C.ar    
   6 C6            -1.3218     3.6199     0.0280 C.ar    
   7 C7            -2.5211     4.2844     0.0373 C.ar    
   8 C8            -3.7146     3.5704     0.0392 C.ar    
   9 C9            -3.6985     2.1797     0.0315 C.ar    
  10 C10           -2.5046     1.5055     0.0163 C.ar    
  11 O11           -4.8986     4.2326     0.0489 O.3     
  12 C12           -6.0863     3.4381     0.0502 C.3     
  13 C13            1.4717    -2.0012    -0.0227 C.ar    
  14 C14            1.4697    -2.6856    -1.2238 C.ar    
  15 C15            1.4884    -4.0676    -1.2321 C.ar    
  16 C16            1.5092    -4.7660    -0.0379 C.ar    
  17 C17            1.5113    -4.0805     1.1638 C.ar    
  18 C18            1.4982    -2.6984     1.1707 C.ar    
  19 Cl19           1.5322    -6.5018    -0.0475 Cl      
  20 H20           -0.4983    -0.3791     0.8948 H       
  21 H21           -0.5153    -0.3696    -0.8850 H       
  22 H22            1.9516    -0.1193    -0.9073 H       
  23 H23            1.9686    -0.1289     0.8726 H       
  24 H24           -0.3956     4.1753     0.0269 H       
  25 H25           -2.5390     5.3643     0.0437 H       
  26 H26           -4.6281     1.6298     0.0333 H       
  27 H27           -2.4932     0.4256     0.0059 H       
  28 H28           -6.1071     2.8142    -0.8433 H       
  29 H29           -6.0982     2.8039     0.9366 H       
  30 H30           -6.9597     4.0903     0.0583 H       
  31 H31            1.4531    -2.1404    -2.1559 H       
  32 H32            1.4864    -4.6022    -2.1705 H       
  33 H33            1.5275    -4.6251     2.0963 H       
  34 H34            1.5043    -2.1631     2.1087 H       
@<TRIPOS>BOND
   1    1    2 1
   2    1    4 2
   3    1    5 1
   4    2    3 1
   5    2   20 1
   6    2   21 1
   7    3   13 1
   8    3   22 1
   9    3   23 1
  10    5    6 ar
  11    5   10 ar
  12    6    7 ar
  13    6   24 1
  14    7    8 ar
  15    7   25 1
  16    8    9 ar
  17    8   11 1
  18    9   10 ar
  19    9   26 1
  20   10   27 1
  21   11   12 1
  22   12   28 1
  23   12   29 1
  24   12   30 1
  25   13   14 ar
  26   13   18 ar
  27   14   15 ar
  28   14   31 1
  29   15   16 ar
  30   15   32 1
  31   16   17 ar
  32   16   19 1
  33   17   18 ar
  34   17   33 1
  35   18   34 1

#	End of record

