#	Name: ASD01911041
#	Creating user name:	WinNT
#	Creation time:	15. 06. 2019 19:57

#	Modifying user name:	WinNT
#	Modification time:	15. 06. 2019 19:57

#	Program:	/corina/corina34_cracker 3.40 0067  02.08.2006

@<TRIPOS>MOLECULE
ASD01911041
  52   55    0    0    0
SMALL
NO_CHARGES


@<TRIPOS>ATOM
   1 N1            -4.7518    -3.3310     1.0063 N.3     
   2 C2            -3.5025    -2.6300     1.3314 C.3     
   3 C3            -2.6796    -2.4402     0.0527 C.3     
   4 N4            -3.5232    -1.7744    -0.9514 N.am    
   5 C5            -4.8507    -2.3422    -1.2319 C.3     
   6 C6            -5.5881    -2.5357     0.0974 C.3     
   7 C7            -3.0915    -0.6728    -1.5969 C.2     
   8 C8            -3.8995    -0.0921    -2.6876 C.ar    
   9 C9            -4.0112     1.2961    -2.8123 C.ar    
  10 C10           -4.7647     1.8435    -3.8283 C.ar    
  11 C11           -5.4176     1.0216    -4.7352 C.ar    
  12 C12           -5.3128    -0.3742    -4.6201 C.ar    
  13 C13           -4.5469    -0.9279    -3.5970 C.ar    
  14 C14           -5.9863    -1.2249    -5.5547 C.1     
  15 O15           -2.0366    -0.1574    -1.2811 O.2     
  16 C16           -6.5384    -1.9223    -6.3208 C.1     
  17 C17           -7.2118    -2.7730    -7.2554 C.ar    
  18 C18           -7.1079    -4.1620    -7.1414 C.ar    
  19 C19           -7.7593    -4.9754    -8.0445 C.ar    
  20 C20           -8.5149    -4.4187    -9.0630 C.ar    
  21 C21           -8.6217    -3.0429    -9.1820 C.ar    
  22 C22           -7.9805    -2.2181    -8.2821 C.ar    
  23 C23           -5.4469    -3.6644     2.1558 C.ar    
  24 O24           -6.1577     1.5661    -5.7330 O.3     
  25 N25           -6.6023    -4.3043     2.0502 N.ar    
  26 C26           -7.2916    -4.6376     3.1288 C.ar    
  27 C27           -6.7915    -4.3093     4.3791 C.ar    
  28 C28           -5.5801    -3.6399     4.4533 C.ar    
  29 N29           -4.9386    -3.3408     3.3358 N.ar    
  30 C30           -6.2207     2.9926    -5.7897 C.3     
  31 Cl31          -9.3313    -5.4500   -10.1960 Cl      
  32 H32           -3.7335    -1.6561     1.7630 H       
  33 H33           -2.9304    -3.2194     2.0479 H       
  34 H34           -1.8078    -1.8219     0.2666 H       
  35 H35           -2.3594    -3.4116    -0.3242 H       
  36 H36           -5.4143    -1.6589    -1.8672 H       
  37 H37           -4.7392    -3.3041    -1.7322 H       
  38 H38           -6.5287    -3.0569    -0.0810 H       
  39 H39           -5.7901    -1.5632     0.5463 H       
  40 H40           -3.5055     1.9418    -2.1096 H       
  41 H41           -4.8474     2.9165    -3.9185 H       
  42 H42           -4.4619    -2.0004    -3.5031 H       
  43 H43           -6.5185    -4.5973    -6.3480 H       
  44 H44           -7.6799    -6.0489    -7.9575 H       
  45 H45           -9.2122    -2.6153    -9.9788 H       
  46 H46           -8.0646    -1.1454    -8.3760 H       
  47 H47           -8.2330    -5.1589     3.0363 H       
  48 H48           -7.3341    -4.5692     5.2760 H       
  49 H49           -5.1630    -3.3693     5.4120 H       
  50 H50           -6.6512     3.3744    -4.8640 H       
  51 H51           -5.2160     3.3959    -5.9167 H       
  52 H52           -6.8429     3.2955    -6.6318 H       
@<TRIPOS>BOND
   1    1    2 1
   2    1   23 1
   3    1    6 1
   4    2    3 1
   5    2   32 1
   6    2   33 1
   7    3    4 1
   8    3   34 1
   9    3   35 1
  10    4    5 1
  11    4    7 am
  12    5    6 1
  13    5   36 1
  14    5   37 1
  15    6   38 1
  16    6   39 1
  17    7    8 1
  18    7   15 2
  19    8    9 ar
  20    8   13 ar
  21    9   10 ar
  22    9   40 1
  23   10   11 ar
  24   10   41 1
  25   11   12 ar
  26   11   24 1
  27   12   13 ar
  28   12   14 1
  29   13   42 1
  30   14   16 3
  31   16   17 1
  32   17   18 ar
  33   17   22 ar
  34   18   19 ar
  35   18   43 1
  36   19   20 ar
  37   19   44 1
  38   20   21 ar
  39   20   31 1
  40   21   22 ar
  41   21   45 1
  42   22   46 1
  43   23   25 ar
  44   23   29 ar
  45   24   30 1
  46   25   26 ar
  47   26   27 ar
  48   26   47 1
  49   27   28 ar
  50   27   48 1
  51   28   29 ar
  52   28   49 1
  53   30   50 1
  54   30   51 1
  55   30   52 1

#	End of record

