#	Name: ASD09360009
#	Creating user name:	WinNT
#	Creation time:	15. 06. 2019 21:21

#	Modifying user name:	WinNT
#	Modification time:	15. 06. 2019 21:21

#	Program:	/corina/corina34_cracker 3.40 0067  02.08.2006

@<TRIPOS>MOLECULE
ASD09360009
  97  103    0    0    0
SMALL
NO_CHARGES


@<TRIPOS>ATOM
   1 N1            -0.1227     1.0389     0.1566 N.am    
   2 C2             0.0830    -0.2845     0.0292 C.2     
   3 C3            -1.1993    -0.9722    -0.2253 C.2     
   4 C4            -2.1971    -0.0571    -0.2532 C.2     
   5 C5            -1.5599     1.2898    -0.0028 C.3     
   6 C6             0.8573     2.0027     0.4029 C.ar    
   7 C7            -2.1280     1.9072     1.2491 C.ar    
   8 C8            -3.6209    -0.3226    -0.4774 C.2     
   9 O9             1.1642    -0.8331     0.1110 O.2     
  10 O10           -1.3525    -2.3047    -0.4028 O.3     
  11 O11           -4.2578    -0.9579     0.3422 O.2     
  12 C12           -4.2828     0.1809    -1.6981 C.ar    
  13 C13           -3.0199     2.9561     1.1562 C.ar    
  14 C14           -3.5444     3.5260     2.3146 C.ar    
  15 C15           -3.1648     3.0328     3.5610 C.ar    
  16 C16           -2.2719     1.9831     3.6423 C.ar    
  17 C17           -1.7588     1.4176     2.4892 C.ar    
  18 C18            2.1874     1.6215     0.5385 C.ar    
  19 C19            3.1562     2.5713     0.7821 C.ar    
  20 C20            2.8016     3.9150     0.8922 C.ar    
  21 C21            1.4673     4.2953     0.7555 C.ar    
  22 C22            0.5022     3.3430     0.5067 C.ar    
  23 C23           -5.6490    -0.0405    -1.8952 C.ar    
  24 C24           -6.2645     0.4295    -3.0327 C.ar    
  25 C25           -5.5256     1.1270    -3.9893 C.ar    
  26 C26           -4.1616     1.3483    -3.7940 C.ar    
  27 C27           -3.5448     0.8843    -2.6547 C.ar    
  28 C28            3.8425     4.9388     1.1549 C.ar    
  29 C29            3.4894     6.2814     1.2650 C.ar    
  30 C30            4.4661     7.2327     1.5108 C.ar    
  31 C31            5.7924     6.8468     1.6463 C.ar    
  32 C32            6.1436     5.5141     1.5366 C.ar    
  33 C33            5.1762     4.5590     1.2979 C.ar    
  34 O34            4.1255     8.5439     1.6190 O.3     
  35 C35           -4.5035     4.6545     2.2210 C.ar    
  36 C36           -4.9422     5.2956     3.3765 C.ar    
  37 C37           -5.8378     6.3485     3.2825 C.ar    
  38 C38           -6.2952     6.7618     2.0391 C.ar    
  39 C39           -5.8601     6.1253     0.8915 C.ar    
  40 C40           -4.9632     5.0795     0.9757 C.ar    
  41 C41           -6.1900     1.6327    -5.2142 C.ar    
  42 C42           -5.4363     2.2323    -6.2225 C.ar    
  43 C43           -6.0603     2.7012    -7.3604 C.ar    
  44 C44           -7.4309     2.5774    -7.5019 C.ar    
  45 C45           -8.1839     1.9839    -6.5047 C.ar    
  46 C46           -7.5702     1.5056    -5.3650 C.ar    
  47 C47            5.7324    15.7021     2.6835 C.3     
  48 O48           -6.2687     6.9764     4.4082 O.3     
  49 C49           -7.1916     8.0539     4.2370 C.3     
  50 C50            5.1836     9.4702     1.8730 C.3     
  51 C51            4.6113    10.8863     1.9618 C.3     
  52 C52            5.7442    11.8781     2.2338 C.3     
  53 C53            5.1719    13.2942     2.3227 C.3     
  54 C54            6.3047    14.2860     2.5946 C.3     
  55 H55           -1.7275     1.9481    -0.8553 H       
  56 H56           -0.5273    -2.8060    -0.3497 H       
  57 H57           -3.3105     3.3349     0.1874 H       
  58 H58           -3.5680     3.4710     4.4620 H       
  59 H59           -1.9766     1.6002     4.6080 H       
  60 H60           -1.0608     0.5963     2.5573 H       
  61 H61            2.4617     0.5804     0.4532 H       
  62 H62            4.1892     2.2746     0.8881 H       
  63 H63            1.1904     5.3357     0.8408 H       
  64 H64           -0.5315     3.6372     0.4004 H       
  65 H65           -6.2210    -0.5805    -1.1552 H       
  66 H66           -7.3199     0.2583    -3.1854 H       
  67 H67           -3.5907     1.8879    -4.5353 H       
  68 H68           -2.4892     1.0557    -2.5038 H       
  69 H69            2.4570     6.5803     1.1587 H       
  70 H70            6.5525     7.5899     1.8376 H       
  71 H71            7.1771     5.2191     1.6421 H       
  72 H72            5.4537     3.5187     1.2127 H       
  73 H73           -4.5857     4.9726     4.3435 H       
  74 H74           -6.9932     7.5828     1.9678 H       
  75 H75           -6.2195     6.4502    -0.0737 H       
  76 H76           -4.6250     4.5844     0.0774 H       
  77 H77           -4.3663     2.3298    -6.1129 H       
  78 H78           -5.4776     3.1661    -8.1419 H       
  79 H79           -7.9149     2.9459    -8.3943 H       
  80 H80           -9.2536     1.8903    -6.6205 H       
  81 H81           -8.1591     1.0424    -4.5872 H       
  82 H82            5.0052    15.7499     3.4940 H       
  83 H83            6.5395    16.4086     2.8772 H       
  84 H84            5.2449    15.9566     1.7424 H       
  85 H85           -7.4538     8.4660     5.2115 H       
  86 H86           -6.7335     8.8311     3.6253 H       
  87 H87           -8.0916     7.6866     3.7438 H       
  88 H88            5.6712     9.2156     2.8141 H       
  89 H89            5.9108     9.4223     1.0625 H       
  90 H90            4.1237    11.1408     1.0208 H       
  91 H91            3.8841    10.9341     2.7724 H       
  92 H92            6.2317    11.6235     3.1749 H       
  93 H93            6.4713    11.8302     1.4233 H       
  94 H94            4.6843    13.5487     1.3816 H       
  95 H95            4.4447    13.3420     3.1332 H       
  96 H96            7.0319    14.2381     1.7841 H       
  97 H97            6.7923    14.0314     3.5357 H       
@<TRIPOS>BOND
   1    1    2 am
   2    1    6 1
   3    1    5 1
   4    2    3 1
   5    2    9 2
   6    3    4 2
   7    3   10 1
   8    4    5 1
   9    4    8 1
  10    5    7 1
  11    5   55 1
  12    6   18 ar
  13    6   22 ar
  14    7   13 ar
  15    7   17 ar
  16    8   11 2
  17    8   12 1
  18   10   56 1
  19   12   23 ar
  20   12   27 ar
  21   13   14 ar
  22   13   57 1
  23   14   15 ar
  24   14   35 1
  25   15   16 ar
  26   15   58 1
  27   16   17 ar
  28   16   59 1
  29   17   60 1
  30   18   19 ar
  31   18   61 1
  32   19   20 ar
  33   19   62 1
  34   20   21 ar
  35   20   28 1
  36   21   22 ar
  37   21   63 1
  38   22   64 1
  39   23   24 ar
  40   23   65 1
  41   24   25 ar
  42   24   66 1
  43   25   26 ar
  44   25   41 1
  45   26   27 ar
  46   26   67 1
  47   27   68 1
  48   28   29 ar
  49   28   33 ar
  50   29   30 ar
  51   29   69 1
  52   30   31 ar
  53   30   34 1
  54   31   32 ar
  55   31   70 1
  56   32   33 ar
  57   32   71 1
  58   33   72 1
  59   34   50 1
  60   35   36 ar
  61   35   40 ar
  62   36   37 ar
  63   36   73 1
  64   37   38 ar
  65   37   48 1
  66   38   39 ar
  67   38   74 1
  68   39   40 ar
  69   39   75 1
  70   40   76 1
  71   41   42 ar
  72   41   46 ar
  73   42   43 ar
  74   42   77 1
  75   43   44 ar
  76   43   78 1
  77   44   45 ar
  78   44   79 1
  79   45   46 ar
  80   45   80 1
  81   46   81 1
  82   47   54 1
  83   47   82 1
  84   47   83 1
  85   47   84 1
  86   48   49 1
  87   49   85 1
  88   49   86 1
  89   49   87 1
  90   50   51 1
  91   50   88 1
  92   50   89 1
  93   51   52 1
  94   51   90 1
  95   51   91 1
  96   52   53 1
  97   52   92 1
  98   52   93 1
  99   53   54 1
 100   53   94 1
 101   53   95 1
 102   54   96 1
 103   54   97 1

#	End of record

