#	Name: ASD03240231
#	Creating user name:	WinNT
#	Creation time:	15. 06. 2019 20:34

#	Modifying user name:	WinNT
#	Modification time:	15. 06. 2019 20:34

#	Program:	/corina/corina34_cracker 3.40 0067  02.08.2006

@<TRIPOS>MOLECULE
ASD03240231
  40   43    0    0    0
SMALL
NO_CHARGES


@<TRIPOS>ATOM
   1 C1            -0.5276     1.9409    -0.6202 C.ar    
   2 C2            -0.6923     0.5689    -0.5761 C.ar    
   3 C3             0.4224    -0.2510    -0.4831 C.ar    
   4 N4             1.6397     0.2500    -0.4356 N.ar    
   5 C5             1.8548     1.5549    -0.4743 C.ar    
   6 C6             0.7744     2.4518    -0.5684 C.ar    
   7 N7             2.9952     2.3337    -0.4414 N.pl3   
   8 C8             2.5960     3.6444    -0.5139 C.2     
   9 N9             1.2879     3.7050    -0.5880 N.2     
  10 C10            3.5018     4.8101    -0.5086 C.ar    
  11 C11            4.3144     1.8711    -0.3509 C.ar    
  12 C12            4.8720     1.1495    -1.3980 C.ar    
  13 C13            6.1731     0.6952    -1.3059 C.ar    
  14 C14            6.9203     0.9583    -0.1725 C.ar    
  15 C15            6.3676     1.6763     0.8722 C.ar    
  16 C16            5.0690     2.1382     0.7837 C.ar    
  17 N17            4.0711     6.9453     0.3403 N.ar    
  18 C18            3.2562     5.9024     0.3392 C.ar    
  19 C19            4.6229     4.8441    -1.3434 C.ar    
  20 C20            5.4412     5.9601    -1.3011 C.ar    
  21 C21            5.1308     6.9996    -0.4437 C.ar    
  22 C22            8.3396     0.4612    -0.0753 C.3     
  23 N23            2.1541     5.8885     1.1789 N.pl3   
  24 N24            9.2525     1.4777    -0.6150 N.3     
  25 Br25          -2.4255    -0.1844    -0.6415 Br      
  26 H26           -1.3797     2.6000    -0.6969 H       
  27 H27            0.2896    -1.3222    -0.4485 H       
  28 H28            4.2889     0.9434    -2.2833 H       
  29 H29            6.6072     0.1336    -2.1198 H       
  30 H30            6.9534     1.8796     1.7564 H       
  31 H31            4.6394     2.7027     1.5981 H       
  32 H32            4.8454     4.0197    -2.0048 H       
  33 H33            6.3154     6.0183    -1.9327 H       
  34 H34            5.7699     7.8696    -0.4119 H       
  35 H35            8.5864     0.2687     0.9688 H       
  36 H36            8.4419    -0.4602    -0.6486 H       
  37 H37            1.9302     6.6765     1.6984 H       
  38 H38            1.6065     5.0908     1.2473 H       
  39 H39            9.1307     2.3607    -0.1421 H       
  40 H40           10.2112     1.1678    -0.5610 H       
@<TRIPOS>BOND
   1    1    2 ar
   2    1    6 ar
   3    1   26 1
   4    2    3 ar
   5    2   25 1
   6    3    4 ar
   7    3   27 1
   8    4    5 ar
   9    5    7 1
  10    5    6 ar
  11    6    9 1
  12    7    8 1
  13    7   11 1
  14    8    9 2
  15    8   10 1
  16   10   19 ar
  17   10   18 ar
  18   11   12 ar
  19   11   16 ar
  20   12   13 ar
  21   12   28 1
  22   13   14 ar
  23   13   29 1
  24   14   15 ar
  25   14   22 1
  26   15   16 ar
  27   15   30 1
  28   16   31 1
  29   17   18 ar
  30   17   21 ar
  31   18   23 1
  32   19   20 ar
  33   19   32 1
  34   20   21 ar
  35   20   33 1
  36   21   34 1
  37   22   24 1
  38   22   35 1
  39   22   36 1
  40   23   37 1
  41   23   38 1
  42   24   39 1
  43   24   40 1

#	End of record

