#	Name: ASD01900661
#	Creating user name:	WinNT
#	Creation time:	15. 06. 2019 19:52

#	Modifying user name:	WinNT
#	Modification time:	15. 06. 2019 19:52

#	Program:	/corina/corina34_cracker 3.40 0067  02.08.2006

@<TRIPOS>MOLECULE
ASD01900661
  38   41    0    0    0
SMALL
NO_CHARGES


@<TRIPOS>ATOM
   1 C1            -0.0158     1.4087    -0.1141 C.ar    
   2 C2             0.0117     0.0196    -0.1182 C.ar    
   3 C3            -1.1603    -0.7072    -0.0664 C.ar    
   4 C4            -2.3833    -0.0522    -0.0091 C.ar    
   5 C5            -2.4090     1.3491    -0.0094 C.ar    
   6 O6            -3.5357    -0.7543     0.0537 O.3     
   7 C7            -4.7273    -0.1808    -0.1860 C.2     
   8 C8            -4.9051     1.1614    -0.2019 C.2     
   9 C9            -3.7318     2.0225     0.0390 C.2     
  10 C10           -5.8919    -1.0513    -0.4436 C.ar    
  11 N11           -7.0831    -0.4959    -0.6835 N.ar    
  12 C12           -8.1585    -1.2050    -0.9197 C.ar    
  13 C13           -8.0932    -2.6095    -0.9288 C.ar    
  14 C14           -6.8450    -3.2393    -0.6783 C.ar    
  15 C15           -5.7250    -2.4273    -0.4368 C.ar    
  16 C16           -9.2239    -3.4019    -1.1774 C.ar    
  17 C17           -9.1076    -4.7593    -1.1747 C.ar    
  18 C18           -7.8826    -5.3765    -0.9289 C.ar    
  19 C19           -6.7629    -4.6402    -0.6839 C.ar    
  20 C20           -1.2278     2.0774    -0.0543 C.ar    
  21 O21            1.1469     2.1118    -0.1631 O.3     
  22 C22            2.3594     1.3575    -0.2174 C.3     
  23 N23           -3.8497     3.3053     0.2816 N.2     
  24 O24           -2.7125     4.0632     0.6522 O.3     
  25 H25            0.9594    -0.4964    -0.1628 H       
  26 H26           -1.1262    -1.7867    -0.0707 H       
  27 H27           -5.8792     1.5898    -0.3861 H       
  28 H28           -9.0993    -0.7091    -1.1079 H       
  29 H29           -4.7572    -2.8653    -0.2419 H       
  30 H30          -10.1805    -2.9388    -1.3694 H       
  31 H31           -9.9795    -5.3672    -1.3660 H       
  32 H32           -7.8200    -6.4546    -0.9326 H       
  33 H33           -5.8197    -5.1309    -0.4943 H       
  34 H34           -1.2538     3.1571    -0.0505 H       
  35 H35            3.2097     2.0386    -0.2529 H       
  36 H36            2.4353     0.7275     0.6688 H       
  37 H37            2.3580     0.7312    -1.1095 H       
  38 H38           -2.8980     4.9990     0.8105 H       
@<TRIPOS>BOND
   1    1    2 ar
   2    1   21 1
   3    1   20 ar
   4    2    3 ar
   5    2   25 1
   6    3    4 ar
   7    3   26 1
   8    4    5 ar
   9    4    6 1
  10    5   20 ar
  11    5    9 1
  12    6    7 1
  13    7    8 2
  14    7   10 1
  15    8    9 1
  16    8   27 1
  17    9   23 2
  18   10   11 ar
  19   10   15 ar
  20   11   12 ar
  21   12   13 ar
  22   12   28 1
  23   13   14 ar
  24   13   16 ar
  25   14   15 ar
  26   14   19 ar
  27   15   29 1
  28   16   17 ar
  29   16   30 1
  30   17   18 ar
  31   17   31 1
  32   18   19 ar
  33   18   32 1
  34   19   33 1
  35   20   34 1
  36   21   22 1
  37   22   35 1
  38   22   36 1
  39   22   37 1
  40   23   24 1
  41   24   38 1

#	End of record

