#	Name: ASD03331942
#	Creating user name:	WinNT
#	Creation time:	15. 06. 2019 20:40

#	Modifying user name:	WinNT
#	Modification time:	15. 06. 2019 20:40

#	Program:	/corina/corina34_cracker 3.40 0067  02.08.2006

@<TRIPOS>MOLECULE
ASD03331942
  79   82    0    0    0
SMALL
NO_CHARGES


@<TRIPOS>ATOM
   1 C1            -1.1683     1.4447     1.1280 C.2     
   2 N2            -1.3426     0.1133     1.2911 N.pl3   
   3 C3            -0.1200    -0.4323     1.5562 C.2     
   4 N4             0.7721     0.5304     1.5754 N.2     
   5 C5             0.1569     1.7034     1.3176 C.2     
   6 C6             0.8020     3.0271     1.2522 C.2     
   7 O7             0.1372     4.0162     1.0097 O.2     
   8 N8             2.1285     3.1413     1.4610 N.am    
   9 C9             2.7697     4.4569     1.3960 C.3     
  10 C10            3.1189     4.7828    -0.0575 C.3     
  11 C11            4.1521     3.7781    -0.5713 C.3     
  12 C12            4.0286     4.4437     2.2243 C.2     
  13 C13            1.8556     4.6996    -0.9165 C.3     
  14 C14            3.6983     6.1966    -0.1382 C.3     
  15 O15            4.4730     3.3928     2.6354 O.2     
  16 N16            4.6606     5.5998     2.5082 N.am    
  17 C17            5.9225     5.5811     3.2522 C.3     
  18 C18           -2.6241    -0.5931     1.2111 C.3     
  19 C19           -3.3753    -0.1315    -0.0414 C.3     
  20 C20           -4.2074     1.1051     0.2834 C.3     
  21 N21           -3.5377     1.9412     1.2820 N.3     
  22 C22           -2.2470     2.4387     0.7833 C.3     
  23 C23           -4.4021     3.0513     1.7044 C.3     
  24 C24            0.1537    -1.8673     1.7845 C.ar    
  25 C25            1.3978    -2.4035     1.4450 C.ar    
  26 C26            1.6526    -3.7393     1.6569 C.ar    
  27 C27            0.6667    -4.5590     2.2121 C.ar    
  28 C28           -0.5776    -4.0222     2.5521 C.ar    
  29 C29           -0.8301    -2.6852     2.3448 C.ar    
  30 C30            0.9398    -5.9931     2.4393 C.2     
  31 N31            1.5679    -6.7177     1.4922 N.am    
  32 O32            0.5980    -6.5194     3.4804 O.2     
  33 C33            1.7628    -8.1663     1.6556 C.3     
  34 C34            2.0712    -6.0819     0.2652 C.3     
  35 C35            1.5530    -6.8729    -0.9407 C.3     
  36 N36            1.9102    -8.2891    -0.7835 N.3     
  37 C37            1.2573    -8.8711     0.3922 C.3     
  38 C38            1.5839    -9.0520    -1.9956 C.3     
  39 H39            2.6588     2.3524     1.6544 H       
  40 H40            2.0874     5.2132     1.7841 H       
  41 H41            3.7394     2.7709    -0.5139 H       
  42 H42            4.4009     4.0103    -1.6069 H       
  43 H43            5.0522     3.8374     0.0407 H       
  44 H44            1.1195     5.4153    -0.5505 H       
  45 H45            2.1044     4.9317    -1.9521 H       
  46 H46            1.4428     3.6924    -0.8591 H       
  47 H47            4.5983     6.2559     0.4739 H       
  48 H48            3.9472     6.4287    -1.1737 H       
  49 H49            2.9622     6.9123     0.2277 H       
  50 H50            4.2800     6.4441     2.2199 H       
  51 H51            6.2809     6.6019     3.3853 H       
  52 H52            5.7624     5.1221     4.2277 H       
  53 H53            6.6632     5.0056     2.6969 H       
  54 H54           -2.4452    -1.6668     1.1536 H       
  55 H55           -3.2194    -0.3690     2.0963 H       
  56 H56           -2.6581     0.1100    -0.8259 H       
  57 H57           -4.0322    -0.9305    -0.3852 H       
  58 H58           -4.3568     1.6853    -0.6271 H       
  59 H59           -5.1771     0.7924     0.6707 H       
  60 H60           -2.0214     3.3977     1.2497 H       
  61 H61           -2.2973     2.5614    -0.2986 H       
  62 H62           -5.3184     2.6528     2.1400 H       
  63 H63           -3.8804     3.6562     2.4460 H       
  64 H64           -4.6490     3.6685     0.8405 H       
  65 H65            2.1598    -1.7698     1.0158 H       
  66 H66            2.6145    -4.1540     1.3937 H       
  67 H67           -1.3400    -4.6556     2.9809 H       
  68 H68           -1.7919    -2.2702     2.6075 H       
  69 H69            2.8226    -8.3798     1.7948 H       
  70 H70            1.1992    -8.5164     2.5205 H       
  71 H71            1.7114    -5.0544     0.2111 H       
  72 H72            3.1611    -6.0915     0.2684 H       
  73 H73            0.4690    -6.7757    -1.0008 H       
  74 H74            2.0047    -6.4829    -1.8528 H       
  75 H75            1.4964    -9.9328     0.4527 H       
  76 H76            0.1779    -8.7450     0.3086 H       
  77 H77            2.1369    -8.6439    -2.8417 H       
  78 H78            1.8585   -10.0971    -1.8521 H       
  79 H79            0.5141    -8.9812    -2.1926 H       
@<TRIPOS>BOND
   1    1    2 1
   2    1    5 2
   3    1   22 1
   4    2    3 1
   5    2   18 1
   6    3    4 2
   7    3   24 1
   8    4    5 1
   9    5    6 1
  10    6    7 2
  11    6    8 am
  12    8    9 1
  13    8   39 1
  14    9   10 1
  15    9   12 1
  16    9   40 1
  17   10   11 1
  18   10   13 1
  19   10   14 1
  20   11   41 1
  21   11   42 1
  22   11   43 1
  23   12   15 2
  24   12   16 am
  25   13   44 1
  26   13   45 1
  27   13   46 1
  28   14   47 1
  29   14   48 1
  30   14   49 1
  31   16   17 1
  32   16   50 1
  33   17   51 1
  34   17   52 1
  35   17   53 1
  36   18   19 1
  37   18   54 1
  38   18   55 1
  39   19   20 1
  40   19   56 1
  41   19   57 1
  42   20   21 1
  43   20   58 1
  44   20   59 1
  45   21   22 1
  46   21   23 1
  47   22   60 1
  48   22   61 1
  49   23   62 1
  50   23   63 1
  51   23   64 1
  52   24   25 ar
  53   24   29 ar
  54   25   26 ar
  55   25   65 1
  56   26   27 ar
  57   26   66 1
  58   27   28 ar
  59   27   30 1
  60   28   29 ar
  61   28   67 1
  62   29   68 1
  63   30   31 am
  64   30   32 2
  65   31   33 1
  66   31   34 1
  67   33   37 1
  68   33   69 1
  69   33   70 1
  70   34   35 1
  71   34   71 1
  72   34   72 1
  73   35   36 1
  74   35   73 1
  75   35   74 1
  76   36   37 1
  77   36   38 1
  78   37   75 1
  79   37   76 1
  80   38   77 1
  81   38   78 1
  82   38   79 1

#	End of record

