#	Name: ASD05740036
#	Creating user name:	WinNT
#	Creation time:	15. 06. 2019 21:02

#	Modifying user name:	WinNT
#	Modification time:	15. 06. 2019 21:02

#	Program:	/corina/corina34_cracker 3.40 0067  02.08.2006

@<TRIPOS>MOLECULE
ASD05740036
  48   51    0    0    0
SMALL
NO_CHARGES


@<TRIPOS>ATOM
   1 C1            -0.0166     1.3766     0.0096 C.ar    
   2 C2            -3.1330     0.9979     1.3175 C.3     
   3 C3            -2.9723    -0.4812     3.4405 C.2     
   4 C4            -2.4007    -1.6564     4.0878 C.2     
   5 C5            -2.5792    -0.1997     2.0455 C.2     
   6 C6            -1.7110    -1.0393     1.4337 C.2     
   7 C7            -1.1959    -2.1573     2.1153 C.2     
   8 O8            -1.5313    -2.4417     3.3789 O.3     
   9 C9            -1.2931    -0.7744     0.0102 C.3     
  10 C10            0.0021    -0.0041     0.0020 C.ar    
  11 C11            1.2082    -0.6808    -0.0136 C.ar    
  12 O12           -0.4177    -2.8922     1.5344 O.2     
  13 C13            1.1779     2.0860     0.0020 C.ar    
  14 C14            2.3873     1.4033    -0.0132 C.ar    
  15 C15            2.3988     0.0221    -0.0207 C.ar    
  16 N16            1.1626     3.4826     0.0092 N.am    
  17 S17            2.1576     4.3268    -1.0104 S.o2    
  18 O18            1.8915     5.6901    -0.7105 O.2     
  19 O19            3.4441     3.7656    -0.7887 O.2     
  20 C20           -2.8341    -1.8045     5.3530 C.2     
  21 S21           -3.9455    -0.5234     5.7910 S.3     
  22 C22           -3.8188     0.2141     4.2636 C.2     
  23 O23           -2.4592    -2.8153     6.1820 O.3     
  24 C24           -2.9778    -2.8371     7.4336 C.2     
  25 N25           -3.8138    -1.9672     7.9056 N.2     
  26 S26           -2.6298    -4.0207     8.6173 S.3     
  27 C27           -3.7013    -3.2107     9.7573 C.2     
  28 C28           -4.2188    -2.1416     9.1504 C.2     
  29 C29            1.5599     3.9122    -2.6721 C.3     
  30 C30            2.4094     4.6400    -3.7160 C.3     
  31 H31           -0.9588     1.9045     0.0169 H       
  32 H32           -3.8087     1.5432     1.9764 H       
  33 H33           -2.3138     1.6507     1.0162 H       
  34 H34           -3.6771     0.6659     0.4332 H       
  35 H35           -1.1555    -1.7221    -0.5104 H       
  36 H36           -2.0653    -0.1923    -0.4928 H       
  37 H37            1.2200    -1.7607    -0.0199 H       
  38 H38            3.3177     1.9517    -0.0191 H       
  39 H39            3.3389    -0.5094    -0.0322 H       
  40 H40            0.5691     3.9581     0.6114 H       
  41 H41           -4.3433     1.1136     3.9769 H       
  42 H42           -3.9060    -3.5266    10.7696 H       
  43 H43           -4.9114    -1.4716     9.6381 H       
  44 H44            1.6363     2.8361    -2.8277 H       
  45 H45            0.5192     4.2207    -2.7714 H       
  46 H46            3.4501     4.3315    -3.6167 H       
  47 H47            2.0503     4.3908    -4.7145 H       
  48 H48            2.3331     5.7161    -3.5604 H       
@<TRIPOS>BOND
   1    1   10 ar
   2    1   13 ar
   3    1   31 1
   4    2    5 1
   5    2   32 1
   6    2   33 1
   7    2   34 1
   8    3    4 1
   9    3    5 1
  10    3   22 2
  11    4   20 2
  12    4    8 1
  13    5    6 2
  14    6    7 1
  15    6    9 1
  16    7    8 1
  17    7   12 2
  18    9   10 1
  19    9   35 1
  20    9   36 1
  21   10   11 ar
  22   11   15 ar
  23   11   37 1
  24   13   14 ar
  25   13   16 1
  26   14   15 ar
  27   14   38 1
  28   15   39 1
  29   16   17 am
  30   16   40 1
  31   17   18 2
  32   17   19 2
  33   17   29 1
  34   20   21 1
  35   20   23 1
  36   21   22 1
  37   22   41 1
  38   23   24 1
  39   24   26 1
  40   24   25 2
  41   25   28 1
  42   26   27 1
  43   27   28 2
  44   27   42 1
  45   28   43 1
  46   29   30 1
  47   29   44 1
  48   29   45 1
  49   30   46 1
  50   30   47 1
  51   30   48 1

#	End of record

