#	Name: ASD01881203
#	Creating user name:	WinNT
#	Creation time:	15. 06. 2019 19:42

#	Modifying user name:	WinNT
#	Modification time:	15. 06. 2019 19:42

#	Program:	/corina/corina34_cracker 3.40 0067  02.08.2006

@<TRIPOS>MOLECULE
ASD01881203
  39   41    0    0    0
SMALL
NO_CHARGES


@<TRIPOS>ATOM
   1 N1            -0.0159     1.3188     0.0093 N.ar    
   2 C2             0.0021    -0.0041     0.0020 C.ar    
   3 N3             1.1381    -0.6825    -0.0125 N.ar    
   4 C4             2.3025    -0.0539    -0.0202 C.ar    
   5 C5             2.3227     1.3310    -0.0130 C.ar    
   6 C6             1.1130     2.0110     0.0022 C.ar    
   7 C7             3.6289     2.0826    -0.0209 C.3     
   8 O8             4.7136     1.1524    -0.0358 O.3     
   9 C9             5.9684     1.6692    -0.0446 C.ar    
  10 C10            7.0702     0.8188    -0.0592 C.ar    
  11 C11            8.3391     1.3417    -0.0685 C.ar    
  12 C12            8.5341     2.7271    -0.0633 C.ar    
  13 C13            7.4237     3.5779    -0.0486 C.ar    
  14 C14            6.1514     3.0462    -0.0447 C.ar    
  15 C15            9.7128     0.7187    -0.0851 C.3     
  16 N16           10.6676     1.8330    -0.0887 N.am    
  17 C17            9.9829     2.9895    -0.0761 C.2     
  18 O18           10.4882     4.0954    -0.0757 O.2     
  19 Cl19           7.6469     5.2994    -0.0414 Cl      
  20 Cl20           1.0802     3.7467     0.0113 Cl      
  21 C21           12.6206     1.6692    -1.5517 C.3     
  22 C22           12.1270     1.7058    -0.1040 C.3     
  23 O23           -1.1714    -0.6807     0.0100 O.3     
  24 C24           -1.0975    -2.1077     0.0017 C.3     
  25 H25            3.2259    -0.6140    -0.0317 H       
  26 H26            3.6794     2.7139    -0.9080 H       
  27 H27            3.6958     2.7044     0.8718 H       
  28 H28            6.9267    -0.2516    -0.0630 H       
  29 H29            5.2940     3.7028    -0.0336 H       
  30 H30            9.8566     0.1049     0.8041 H       
  31 H31            9.8393     0.1140    -0.9831 H       
  32 H32           12.1762     0.8169    -2.0657 H       
  33 H33           12.3308     2.5901    -2.0577 H       
  34 H34           13.7064     1.5745    -1.5631 H       
  35 H35           12.5714     2.5581     0.4100 H       
  36 H36           12.4168     0.7849     0.4021 H       
  37 H37           -0.5567    -2.4488     0.8845 H       
  38 H38           -2.1049    -2.5238     0.0094 H       
  39 H39           -0.5744    -2.4392    -0.8954 H       
@<TRIPOS>BOND
   1    1    2 ar
   2    1    6 ar
   3    2    3 ar
   4    2   23 1
   5    3    4 ar
   6    4    5 ar
   7    4   25 1
   8    5    6 ar
   9    5    7 1
  10    6   20 1
  11    7    8 1
  12    7   26 1
  13    7   27 1
  14    8    9 1
  15    9   10 ar
  16    9   14 ar
  17   10   11 ar
  18   10   28 1
  19   11   12 ar
  20   11   15 1
  21   12   13 ar
  22   12   17 1
  23   13   14 ar
  24   13   19 1
  25   14   29 1
  26   15   16 1
  27   15   30 1
  28   15   31 1
  29   16   17 am
  30   16   22 1
  31   17   18 2
  32   21   22 1
  33   21   32 1
  34   21   33 1
  35   21   34 1
  36   22   35 1
  37   22   36 1
  38   23   24 1
  39   24   37 1
  40   24   38 1
  41   24   39 1

#	End of record

