#	Name: ASD02198248
#	Creating user name:	WinNT
#	Creation time:	15. 06. 2019 20:19

#	Modifying user name:	WinNT
#	Modification time:	15. 06. 2019 20:19

#	Program:	/corina/corina34_cracker 3.40 0067  02.08.2006

@<TRIPOS>MOLECULE
ASD02198248
  47   49    0    0    0
SMALL
NO_CHARGES


@<TRIPOS>ATOM
   1 C1            -0.0166     1.3759     0.0096 C.2     
   2 C2             0.0021    -0.0041     0.0020 C.2     
   3 C3            -1.2154    -0.8198     0.0088 C.2     
   4 S4             1.5676     2.0058    -0.0021 S.3     
   5 C5             2.2774     0.3995    -0.0175 C.2     
   6 C6             1.2835    -0.5516    -0.0132 C.2     
   7 C7             3.6585     0.1258    -0.0326 C.2     
   8 C8             4.6310     1.2363    -0.0359 C.2     
   9 O9             4.0514    -1.0290    -0.0430 O.2     
  10 N10            1.5311    -1.9139    -0.0224 N.pl3   
  11 N11           -1.1583     2.1393     0.0194 N.pl3   
  12 C12           -1.0619     3.6011     0.0268 C.3     
  13 C13           -0.9099     4.1096    -1.4082 C.3     
  14 O14            4.3521     2.5531    -0.0253 O.3     
  15 N15           -1.7645    -1.2012     1.1791 N.am    
  16 C16           -2.4165     3.7852     2.1181 C.3     
  17 C17           -2.3299     4.1927     0.6459 C.3     
  18 O18           -1.7306    -1.1529    -1.0424 O.2     
  19 N19            5.3577     3.2238    -0.0315 N.2     
  20 C20            6.4371     2.4820    -0.0468 C.2     
  21 C21            5.9938     1.1319    -0.0443 C.2     
  22 C22            7.8435     2.9570    -0.0587 C.ar    
  23 C23            8.1202     4.3224    -0.0533 C.ar    
  24 C24            8.8914     2.0390    -0.0694 C.ar    
  25 C25           10.1971     2.4862    -0.0799 C.ar    
  26 C26           10.4662     3.8429    -0.0794 C.ar    
  27 C27            9.4297     4.7587    -0.0639 C.ar    
  28 H28            2.4443    -2.2408    -0.0329 H       
  29 H29            0.7914    -2.5413    -0.0184 H       
  30 H30           -2.0284     1.7106     0.0213 H       
  31 H31           -0.1951     3.9051     0.6137 H       
  32 H32           -1.7767     3.8056    -1.9951 H       
  33 H33           -0.8382     5.1972    -1.4026 H       
  34 H34           -0.0066     3.6882    -1.8492 H       
  35 H35           -1.3539    -0.9357     2.0168 H       
  36 H36           -2.5704    -1.7411     1.1835 H       
  37 H37           -2.4487     2.6983     2.1930 H       
  38 H38           -1.5429     4.1605     2.6510 H       
  39 H39           -3.3199     4.2067     2.5591 H       
  40 H40           -2.2977     5.2796     0.5710 H       
  41 H41           -3.2035     3.8174     0.1130 H       
  42 H42            6.5933     0.2337    -0.0540 H       
  43 H43            7.3116     5.0382    -0.0413 H       
  44 H44            8.6824     0.9795    -0.0691 H       
  45 H45           11.0102     1.7754    -0.0882 H       
  46 H46           11.4894     4.1885    -0.0873 H       
  47 H47            9.6453     5.8169    -0.0636 H       
@<TRIPOS>BOND
   1    1    2 2
   2    1    4 1
   3    1   11 1
   4    2    3 1
   5    2    6 1
   6    3   15 am
   7    3   18 2
   8    4    5 1
   9    5    6 2
  10    5    7 1
  11    6   10 1
  12    7    8 1
  13    7    9 2
  14    8   14 1
  15    8   21 2
  16   10   28 1
  17   10   29 1
  18   11   12 1
  19   11   30 1
  20   12   13 1
  21   12   17 1
  22   12   31 1
  23   13   32 1
  24   13   33 1
  25   13   34 1
  26   14   19 1
  27   15   35 1
  28   15   36 1
  29   16   17 1
  30   16   37 1
  31   16   38 1
  32   16   39 1
  33   17   40 1
  34   17   41 1
  35   19   20 2
  36   20   21 1
  37   20   22 1
  38   21   42 1
  39   22   23 ar
  40   22   24 ar
  41   23   27 ar
  42   23   43 1
  43   24   25 ar
  44   24   44 1
  45   25   26 ar
  46   25   45 1
  47   26   27 ar
  48   26   46 1
  49   27   47 1

#	End of record

