#	Name: ASD00451037
#	Creating user name:	WinNT
#	Creation time:	15. 06. 2019 18:36

#	Modifying user name:	WinNT
#	Modification time:	15. 06. 2019 18:36

#	Program:	/corina/corina34_cracker 3.40 0067  02.08.2006

@<TRIPOS>MOLECULE
ASD00451037
  52   56    0    0    0
SMALL
NO_CHARGES


@<TRIPOS>ATOM
   1 C1             0.0474     1.2811     0.1151 C.ar    
   2 C2            -0.0098    -0.0945     0.0707 C.ar    
   3 C3             1.3000     1.9274     0.0503 C.ar    
   4 N4            -1.1283     2.0321     0.2179 N.am    
   5 C5             1.1519    -0.8533    -0.0371 C.ar    
   6 C6             1.4000     3.3272     0.0930 C.ar    
   7 C7             2.4782     1.1492    -0.0594 C.ar    
   8 C8             2.3790    -0.2564    -0.1015 C.ar    
   9 C9             2.6252     3.9175     0.0286 C.ar    
  10 C10            3.7249     1.7928    -0.1239 C.ar    
  11 O11            3.5011    -1.0156    -0.2066 O.3     
  12 C12            3.7846     3.1521    -0.0794 C.ar    
  13 C13            4.2212    -1.2485     0.9208 C.ar    
  14 C14            5.4394    -1.9213     0.8661 C.ar    
  15 C15            3.7650    -0.8161     2.1641 C.ar    
  16 C16            6.1517    -2.1420     2.0452 C.ar    
  17 N17            6.1860    -2.4771    -0.1708 N.am    
  18 C18            4.5255    -1.0713     3.2875 C.ar    
  19 N19            7.3085    -2.8246     1.6900 N.am    
  20 N20            5.6741    -1.7156     3.2047 N.ar    
  21 C21            7.3035    -3.0122     0.3572 C.2     
  22 O22            8.1755    -3.5793    -0.2744 O.2     
  23 C23           -2.2574     1.6014    -0.3791 C.2     
  24 O24           -2.2307     0.6165    -1.0916 O.2     
  25 N25           -3.4159     2.2625    -0.1863 N.am    
  26 C26           -4.6046     1.7647    -0.7314 C.ar    
  27 C27           -5.8010     1.9114    -0.0414 C.ar    
  28 C28           -6.9747     1.4198    -0.5798 C.ar    
  29 C29           -6.9616     0.7814    -1.8050 C.ar    
  30 C30           -5.7688     0.6320    -2.4991 C.ar    
  31 C31           -4.5904     1.1288    -1.9650 C.ar    
  32 O32           -5.7575     0.0038    -3.7041 O.3     
  33 C33           -7.0095    -0.4779    -4.1965 C.3     
  34 F34           -7.8977     0.5935    -4.3394 F       
  35 F35           -6.8169    -1.0928    -5.4382 F       
  36 F36           -7.5397    -1.4059    -3.2937 F       
  37 H37           -0.9679    -0.5903     0.1207 H       
  38 H38           -1.1311     2.8627     0.7188 H       
  39 H39            1.0822    -1.9306    -0.0702 H       
  40 H40            0.5096     3.9327     0.1762 H       
  41 H41            2.6995     4.9944     0.0613 H       
  42 H42            4.6317     1.2122    -0.2073 H       
  43 H43            4.7446     3.6445    -0.1288 H       
  44 H44            2.8273    -0.2869     2.2480 H       
  45 H45            5.9428    -2.4787    -1.1098 H       
  46 H46            4.1739    -0.7370     4.2525 H       
  47 H47            8.0036    -3.1166     2.3003 H       
  48 H48           -3.4257     3.0834     0.3304 H       
  49 H49           -5.8138     2.4097     0.9166 H       
  50 H50           -7.9040     1.5345    -0.0416 H       
  51 H51           -7.8806     0.3979    -2.2231 H       
  52 H52           -3.6615     1.0137    -2.5038 H       
@<TRIPOS>BOND
   1    1    2 ar
   2    1    3 ar
   3    1    4 1
   4    2    5 ar
   5    2   37 1
   6    3    6 ar
   7    3    7 ar
   8    4   23 am
   9    4   38 1
  10    5    8 ar
  11    5   39 1
  12    6    9 ar
  13    6   40 1
  14    7    8 ar
  15    7   10 ar
  16    8   11 1
  17    9   12 ar
  18    9   41 1
  19   10   12 ar
  20   10   42 1
  21   11   13 1
  22   12   43 1
  23   13   15 ar
  24   13   14 ar
  25   14   16 ar
  26   14   17 1
  27   15   18 ar
  28   15   44 1
  29   16   19 1
  30   16   20 ar
  31   17   21 am
  32   17   45 1
  33   18   20 ar
  34   18   46 1
  35   19   21 am
  36   19   47 1
  37   21   22 2
  38   23   24 2
  39   23   25 am
  40   25   26 1
  41   25   48 1
  42   26   27 ar
  43   26   31 ar
  44   27   28 ar
  45   27   49 1
  46   28   29 ar
  47   28   50 1
  48   29   30 ar
  49   29   51 1
  50   30   31 ar
  51   30   32 1
  52   31   52 1
  53   32   33 1
  54   33   34 1
  55   33   35 1
  56   33   36 1

#	End of record

