#	Name: ASD01811855
#	Creating user name:	WinNT
#	Creation time:	15. 06. 2019 19:27

#	Modifying user name:	WinNT
#	Modification time:	15. 06. 2019 19:27

#	Program:	/corina/corina34_cracker 3.40 0067  02.08.2006

@<TRIPOS>MOLECULE
ASD01811855
  53   56    0    0    0
SMALL
NO_CHARGES


@<TRIPOS>ATOM
   1 N1            -0.0158     1.3124     0.0093 N.ar    
   2 C2             0.0021    -0.0041     0.0020 C.ar    
   3 C3             1.1968    -0.7055    -0.0132 C.ar    
   4 C4             2.3959    -0.0149    -0.0209 C.ar    
   5 C5             1.1067     2.0194     0.0023 C.ar    
   6 C6             1.4022     3.4636     0.0068 C.2     
   7 C7             2.3561     1.3764    -0.0130 C.ar    
   8 N8             3.3288     2.3533    -0.0175 N.pl3   
   9 C9             2.7617     3.5823    -0.0058 C.2     
  10 C10            0.4245     4.5603     0.0214 C.2     
  11 O11           -0.7668     4.3132     0.0313 O.2     
  12 N12            0.8473     5.8400     0.0239 N.am    
  13 C13           -0.1275     6.9335     0.0384 C.3     
  14 C14            4.7713     2.0977    -0.0324 C.3     
  15 C15            5.2309     1.8949    -1.4532 C.ar    
  16 C16            5.2287     0.6272    -2.0050 C.ar    
  17 C17            5.6487     2.9778    -2.2046 C.ar    
  18 C18            6.0701     2.7946    -3.5074 C.ar    
  19 C19            6.0742     1.5228    -4.0615 C.ar    
  20 C20            5.6496     0.4386    -3.3072 C.ar    
  21 O21            6.4879     1.3400    -5.3431 O.3     
  22 C22            6.4655     0.0033    -5.8476 C.3     
  23 C23           -0.9345     9.6191     0.8868 C.3     
  24 C24           -0.5147     9.3293    -0.5556 C.3     
  25 C25            0.5033     8.1872    -0.5708 C.3     
  26 C26           -0.5472     7.2234     1.4809 C.3     
  27 C27           -1.5653     8.3654     1.4961 C.3     
  28 O28            0.8954     7.9165    -1.9181 O.3     
  29 H29           -0.9315    -0.5470     0.0084 H       
  30 H30            1.1923    -1.7855    -0.0186 H       
  31 H31            3.3386    -0.5419    -0.0324 H       
  32 H32            3.3036     4.5165    -0.0066 H       
  33 H33            1.7971     6.0370     0.0160 H       
  34 H34           -1.0031     6.6475    -0.5443 H       
  35 H35            5.2957     2.9493     0.4011 H       
  36 H36            4.9877     1.2026     0.5508 H       
  37 H37            4.8981    -0.2165    -1.4173 H       
  38 H38            5.6453     3.9677    -1.7727 H       
  39 H39            6.3957     3.6408    -4.0941 H       
  40 H40            5.6480    -0.5519    -3.7376 H       
  41 H41            7.1138    -0.6261    -5.2380 H       
  42 H42            5.4464    -0.3819    -5.8111 H       
  43 H43            6.8191    -0.0019    -6.8787 H       
  44 H44           -0.0589     9.9051     1.4696 H       
  45 H45           -1.6598    10.4327     0.8977 H       
  46 H46           -1.3903     9.0432    -1.1383 H       
  47 H47           -0.0653    10.2224    -0.9897 H       
  48 H48            1.3790     8.4733     0.0119 H       
  49 H49           -0.9966     6.3302     1.9150 H       
  50 H50            0.3284     7.5094     2.0636 H       
  51 H51           -1.8643     8.5719     2.5238 H       
  52 H52           -2.4409     8.0794     0.9134 H       
  53 H53            1.3039     8.6690    -2.3676 H       
@<TRIPOS>BOND
   1    1    2 ar
   2    1    5 ar
   3    2    3 ar
   4    2   29 1
   5    3    4 ar
   6    3   30 1
   7    4    7 ar
   8    4   31 1
   9    5    7 ar
  10    5    6 1
  11    6    9 2
  12    6   10 1
  13    7    8 1
  14    8    9 1
  15    8   14 1
  16    9   32 1
  17   10   11 2
  18   10   12 am
  19   12   13 1
  20   12   33 1
  21   13   26 1
  22   13   25 1
  23   13   34 1
  24   14   15 1
  25   14   35 1
  26   14   36 1
  27   15   17 ar
  28   15   16 ar
  29   16   20 ar
  30   16   37 1
  31   17   18 ar
  32   17   38 1
  33   18   19 ar
  34   18   39 1
  35   19   20 ar
  36   19   21 1
  37   20   40 1
  38   21   22 1
  39   22   41 1
  40   22   42 1
  41   22   43 1
  42   23   24 1
  43   23   27 1
  44   23   44 1
  45   23   45 1
  46   24   25 1
  47   24   46 1
  48   24   47 1
  49   25   28 1
  50   25   48 1
  51   26   27 1
  52   26   49 1
  53   26   50 1
  54   27   51 1
  55   27   52 1
  56   28   53 1

#	End of record

