#	Name: ASD01883909
#	Creating user name:	WinNT
#	Creation time:	15. 06. 2019 19:47

#	Modifying user name:	WinNT
#	Modification time:	15. 06. 2019 19:47

#	Program:	/corina/corina34_cracker 3.40 0067  02.08.2006

@<TRIPOS>MOLECULE
ASD01883909
  42   45    0    0    0
SMALL
NO_CHARGES


@<TRIPOS>ATOM
   1 C1            -0.1669     1.5288     0.0040 C.ar    
   2 C2            -0.1874     0.1499    -0.0912 C.ar    
   3 C3             0.9963    -0.5514    -0.2244 C.ar    
   4 C4             2.2006     0.1262    -0.2629 C.ar    
   5 C5             2.2210     1.5052    -0.1687 C.ar    
   6 C6             1.0374     2.2064    -0.0341 C.ar    
   7 C7             3.5340     2.2438    -0.2097 C.3     
   8 C8             3.5402     3.2069    -1.3991 C.3     
   9 C9             4.8891     3.9306    -1.4579 C.3     
  10 N10            5.1382     4.5728    -0.1602 N.pl3   
  11 C11            5.0667     3.7547     1.0582 C.3     
  12 C12            3.7158     3.0330     1.0888 C.3     
  13 C13            5.4368     5.9300    -0.0863 C.2     
  14 C14            6.6034     6.4084    -0.6181 C.2     
  15 C15            6.8824     7.7829    -0.5316 C.2     
  16 N16            5.9857     8.6237     0.0819 N.pl3   
  17 C17            4.8255     8.1366     0.6095 C.2     
  18 C18            4.5351     6.8232     0.5325 C.2     
  19 N19            7.8954     8.5333    -0.9373 N.2     
  20 N20            7.6778     9.7599    -0.6156 N.2     
  21 C21            6.5329     9.8708     0.0050 C.2     
  22 C22            7.5770     5.4729    -1.2874 C.3     
  23 F23            7.2205     5.3118    -2.6306 F       
  24 F24            8.8673     6.0078    -1.2083 F       
  25 F25            7.5470     4.2306    -0.6447 F       
  26 H26           -1.0921     2.0771     0.1036 H       
  27 H27           -1.1283    -0.3795    -0.0610 H       
  28 H28            0.9803    -1.6288    -0.2980 H       
  29 H29            3.1255    -0.4218    -0.3663 H       
  30 H30            1.0534     3.2838     0.0392 H       
  31 H31            4.3497     1.5289    -0.3172 H       
  32 H32            3.3873     2.6468    -2.3216 H       
  33 H33            2.7402     3.9376    -1.2797 H       
  34 H34            5.6808     3.2114    -1.6677 H       
  35 H35            4.8636     4.6879    -2.2415 H       
  36 H36            5.8729     3.0211     1.0536 H       
  37 H37            5.1584     4.3960     1.9348 H       
  38 H38            2.9142     3.7653     1.1848 H       
  39 H39            3.6878     2.3491     1.9371 H       
  40 H40            4.1313     8.8108     1.0889 H       
  41 H41            3.6133     6.4506     0.9542 H       
  42 H42            6.0992    10.7833     0.3869 H       
@<TRIPOS>BOND
   1    1    2 ar
   2    1    6 ar
   3    1   26 1
   4    2    3 ar
   5    2   27 1
   6    3    4 ar
   7    3   28 1
   8    4    5 ar
   9    4   29 1
  10    5    6 ar
  11    5    7 1
  12    6   30 1
  13    7    8 1
  14    7   12 1
  15    7   31 1
  16    8    9 1
  17    8   32 1
  18    8   33 1
  19    9   10 1
  20    9   34 1
  21    9   35 1
  22   10   11 1
  23   10   13 1
  24   11   12 1
  25   11   36 1
  26   11   37 1
  27   12   38 1
  28   12   39 1
  29   13   14 2
  30   13   18 1
  31   14   15 1
  32   14   22 1
  33   15   16 1
  34   15   19 2
  35   16   17 1
  36   16   21 1
  37   17   18 2
  38   17   40 1
  39   18   41 1
  40   19   20 1
  41   20   21 2
  42   21   42 1
  43   22   23 1
  44   22   24 1
  45   22   25 1

#	End of record

