#	Name: ASD03082245
#	Creating user name:	WinNT
#	Creation time:	15. 06. 2019 20:27

#	Modifying user name:	WinNT
#	Modification time:	15. 06. 2019 20:27

#	Program:	/corina/corina34_cracker 3.40 0067  02.08.2006

@<TRIPOS>MOLECULE
ASD03082245
  57   59    0    0    0
SMALL
NO_CHARGES


@<TRIPOS>ATOM
   1 N1            -0.0007     1.4642     0.0720 N.pl3   
   2 N2            -0.0305     0.0642    -0.0326 N.2     
   3 C3             1.2001    -0.3592     0.1400 C.2     
   4 N4             1.9971     0.6912     0.3462 N.2     
   5 C5             1.2872     1.8017     0.3084 C.2     
   6 N6             1.6092    -1.6938     0.1128 N.pl3   
   7 C7             2.9636    -2.0132     0.2537 C.ar    
   8 C8             3.4795    -3.1450    -0.3647 C.ar    
   9 C9             4.8170    -3.4584    -0.2242 C.ar    
  10 C10            5.6439    -2.6454     0.5331 C.ar    
  11 C11            5.1319    -1.5168     1.1504 C.ar    
  12 C12            3.7959    -1.1961     1.0075 C.ar    
  13 C13            5.3772    -4.6861    -0.8949 C.3     
  14 F14            4.3586    -5.3403    -1.5960 F       
  15 F15            6.3891    -4.3106    -1.7849 F       
  16 F16            5.9040    -5.5472     0.0737 F       
  17 N17            3.6334     4.6629     0.4894 N.ar    
  18 C18            3.1659     3.4421     0.3279 C.ar    
  19 C19            1.8077     3.1736     0.4912 C.ar    
  20 C20            0.9426     4.2225     0.8305 C.ar    
  21 C21            1.4744     5.4861     0.9901 C.ar    
  22 C22            2.8421     5.6762     0.8103 C.ar    
  23 C23           -1.1383     2.3784    -0.0558 C.3     
  24 F24            6.9519    -2.9544     0.6700 F       
  25 C25           -1.7886     2.5625     1.2911 C.2     
  26 N26           -2.8627     3.3669     1.4166 N.am    
  27 O27           -1.3455     1.9867     2.2623 O.2     
  28 C28           -3.4949     3.5459     2.7260 C.3     
  29 C29           -3.3980     4.0624     0.2435 C.3     
  30 N30            3.3838     6.9442     0.9691 N.pl3   
  31 C31            2.5179     8.0715     1.3237 C.3     
  32 C32            3.3588     9.3448     1.4363 C.3     
  33 O33            3.9005     9.6726     0.1552 O.3     
  34 C34            4.7069    10.8524     0.1498 C.3     
  35 H35            0.9541    -2.3996    -0.0039 H       
  36 H36            2.8349    -3.7796    -0.9548 H       
  37 H37            5.7786    -0.8843     1.7405 H       
  38 H38            3.3980    -0.3132     1.4855 H       
  39 H39            3.8415     2.6411     0.0664 H       
  40 H40           -0.1147     4.0465     0.9636 H       
  41 H41            0.8370     6.3179     1.2512 H       
  42 H42           -0.7898     3.3426    -0.4258 H       
  43 H43           -1.8629     1.9612    -0.7551 H       
  44 H44           -3.0321     4.3878     3.2409 H       
  45 H45           -4.5587     3.7421     2.5921 H       
  46 H46           -3.3642     2.6409     3.3193 H       
  47 H47           -2.8019     3.8082    -0.6329 H       
  48 H48           -4.4317     3.7575     0.0807 H       
  49 H49           -3.3586     5.1389     0.4100 H       
  50 H50            4.3357     7.0840     0.8454 H       
  51 H51            1.7596     8.2039     0.5521 H       
  52 H52            2.0330     7.8707     2.2791 H       
  53 H53            2.7315    10.1647     1.7861 H       
  54 H54            4.1718     9.1819     2.1438 H       
  55 H55            5.0802    11.0326    -0.8583 H       
  56 H56            4.1076    11.7035     0.4729 H       
  57 H57            5.5479    10.7208     0.8306 H       
@<TRIPOS>BOND
   1    1    2 1
   2    1    5 1
   3    1   23 1
   4    2    3 2
   5    3    4 1
   6    3    6 1
   7    4    5 2
   8    5   19 1
   9    6    7 1
  10    6   35 1
  11    7    8 ar
  12    7   12 ar
  13    8    9 ar
  14    8   36 1
  15    9   10 ar
  16    9   13 1
  17   10   11 ar
  18   10   24 1
  19   11   12 ar
  20   11   37 1
  21   12   38 1
  22   13   14 1
  23   13   15 1
  24   13   16 1
  25   17   18 ar
  26   17   22 ar
  27   18   19 ar
  28   18   39 1
  29   19   20 ar
  30   20   21 ar
  31   20   40 1
  32   21   22 ar
  33   21   41 1
  34   22   30 1
  35   23   25 1
  36   23   42 1
  37   23   43 1
  38   25   26 am
  39   25   27 2
  40   26   28 1
  41   26   29 1
  42   28   44 1
  43   28   45 1
  44   28   46 1
  45   29   47 1
  46   29   48 1
  47   29   49 1
  48   30   31 1
  49   30   50 1
  50   31   32 1
  51   31   51 1
  52   31   52 1
  53   32   33 1
  54   32   53 1
  55   32   54 1
  56   33   34 1
  57   34   55 1
  58   34   56 1
  59   34   57 1

#	End of record

