#	Name: ASD02198409
#	Creating user name:	WinNT
#	Creation time:	15. 06. 2019 20:19

#	Modifying user name:	WinNT
#	Modification time:	15. 06. 2019 20:19

#	Program:	/corina/corina34_cracker 3.40 0067  02.08.2006

@<TRIPOS>MOLECULE
ASD02198409
  35   38    0    0    0
SMALL
NO_CHARGES


@<TRIPOS>ATOM
   1 C1            -0.2140     1.0714    -0.3399 C.2     
   2 C2            -0.1174    -0.2756    -0.3553 C.2     
   3 S3             1.3945     1.7721    -0.2167 S.3     
   4 C4             2.1240     0.1722    -0.1922 C.2     
   5 C5             1.1711    -0.7610    -0.2737 C.2     
   6 S6             3.8522    -0.1517    -0.0780 S.o2    
   7 N7             4.4421    -0.2156    -1.6241 N.am    
   8 C8             4.3249     0.8937    -2.4617 C.ar    
   9 C9             4.0852     0.7202    -3.8425 C.ar    
  10 C10            3.9700     1.8640    -4.6696 C.ar    
  11 C11            4.0955     3.1456    -4.1082 C.ar    
  12 C12            4.3271     3.2822    -2.7722 C.ar    
  13 C13            4.4363     2.1670    -1.9470 C.ar    
  14 N14            3.9674    -0.4998    -4.3733 N.ar    
  15 C15            3.7453    -0.6674    -5.6544 C.ar    
  16 C16            3.6218     0.4141    -6.5240 C.ar    
  17 C17            3.7310     1.6888    -6.0459 C.ar    
  18 O18            4.4360     0.9937     0.5272 O.2     
  19 O19            3.9803    -1.4628     0.4548 O.2     
  20 C20           -1.4702     1.8348    -0.4202 C.2     
  21 O21           -2.7181     1.3252    -0.5207 O.3     
  22 C22           -1.5992     3.1892    -0.4016 C.2     
  23 N23           -2.9072     3.4709    -0.4961 N.2     
  24 C24           -3.5764     2.3546    -0.5673 C.2     
  25 Br25           3.9438     4.6789    -5.2046 Br      
  26 H26           -0.9803    -0.9213    -0.4254 H       
  27 H27            1.3935    -1.8178    -0.2752 H       
  28 H28            4.8693    -1.0243    -1.9472 H       
  29 H29            4.4229     4.2703    -2.3469 H       
  30 H30            4.6197     2.3010    -0.8911 H       
  31 H31            3.6561    -1.6699    -6.0459 H       
  32 H32            3.4393     0.2447    -7.5749 H       
  33 H33            3.6377     2.5388    -6.7056 H       
  34 H34           -0.7954     3.9063    -0.3244 H       
  35 H35           -4.6499     2.2720    -0.6508 H       
@<TRIPOS>BOND
   1    1    2 2
   2    1    3 1
   3    1   20 1
   4    2    5 1
   5    2   26 1
   6    3    4 1
   7    4    5 2
   8    4    6 1
   9    5   27 1
  10    6    7 am
  11    6   18 2
  12    6   19 2
  13    7    8 1
  14    7   28 1
  15    8    9 ar
  16    8   13 ar
  17    9   10 ar
  18    9   14 ar
  19   10   11 ar
  20   10   17 ar
  21   11   12 ar
  22   11   25 1
  23   12   13 ar
  24   12   29 1
  25   13   30 1
  26   14   15 ar
  27   15   16 ar
  28   15   31 1
  29   16   17 ar
  30   16   32 1
  31   17   33 1
  32   20   21 1
  33   20   22 2
  34   21   24 1
  35   22   23 1
  36   22   34 1
  37   23   24 2
  38   24   35 1

#	End of record

