#	Name: ASD01885820
#	Creating user name:	WinNT
#	Creation time:	15. 06. 2019 19:50

#	Modifying user name:	WinNT
#	Modification time:	15. 06. 2019 19:50

#	Program:	/corina/corina34_cracker 3.40 0067  02.08.2006

@<TRIPOS>MOLECULE
ASD01885820
  50   53    0    0    0
SMALL
NO_CHARGES


@<TRIPOS>ATOM
   1 C1            -0.0160     1.3294     0.0094 C.ar    
   2 C2            -1.2520     2.0240     0.0189 C.ar    
   3 C3            -2.4596     1.2809     0.0205 C.ar    
   4 C4            -2.3700    -0.1047     0.0125 C.ar    
   5 C5            -1.1108    -0.7138     0.0033 C.ar    
   6 N6             0.0021    -0.0041     0.0020 N.ar    
   7 C7             1.1364     3.4285     0.0097 C.ar    
   8 C8            -0.0805     4.1065     0.0258 C.ar    
   9 C9            -1.2606     3.4246     0.0271 C.ar    
  10 C10           -3.7749     1.9611     0.0308 C.2     
  11 C11           -1.0240    -2.1941    -0.0047 C.2     
  12 C12            2.4227     4.2136     0.0097 C.3     
  13 N13            2.8503     4.4530     1.3945 N.3     
  14 C14            1.1821     2.0685     0.0019 C.ar    
  15 N15            0.1806    -2.7985    -0.0130 N.am    
  16 O16           -2.0389    -2.8621    -0.0037 O.2     
  17 C17            4.2108     5.0039     1.4375 C.3     
  18 C18            4.5669     5.3756     2.8787 C.3     
  19 C19            4.4735     4.1273     3.7605 C.3     
  20 C20            3.0606     3.5456     3.6601 C.3     
  21 C21            2.7483     3.2269     2.1962 C.3     
  22 O22            5.8984     5.8925     2.9231 O.3     
  23 C23           -4.1757     2.9887     0.9094 C.2     
  24 N24           -5.3995     3.3279     0.6043 N.2     
  25 N25           -5.8265     2.5392    -0.4706 N.pl3   
  26 C26           -4.8207     1.7119    -0.8135 C.2     
  27 C27           -7.1405     2.6056    -1.1149 C.3     
  28 H28           -3.2660    -0.7077     0.0137 H       
  29 H29           -0.0889     5.1864     0.0378 H       
  30 H30           -2.1976     3.9616     0.0341 H       
  31 H31            3.1929     3.6491    -0.5159 H       
  32 H32            2.2657     5.1683    -0.4923 H       
  33 H33            2.1338     1.5582    -0.0097 H       
  34 H34            0.9908    -2.2651    -0.0139 H       
  35 H35            0.2373    -3.7668    -0.0182 H       
  36 H36            4.9162     4.2586     1.0698 H       
  37 H37            4.2625     5.8934     0.8097 H       
  38 H38            3.8703     6.1310     3.2424 H       
  39 H39            5.1974     3.3865     3.4210 H       
  40 H40            4.6841     4.3959     4.7957 H       
  41 H41            3.0001     2.6324     4.2522 H       
  42 H42            2.3404     4.2722     4.0361 H       
  43 H43            1.7376     2.8259     2.1195 H       
  44 H44            3.4604     2.4900     1.8250 H       
  45 H45            6.1913     6.1492     3.8082 H       
  46 H46           -3.5757     3.4197     1.6972 H       
  47 H47           -4.8393     0.9798    -1.6073 H       
  48 H48           -7.1080     3.3249    -1.9332 H       
  49 H49           -7.4038     1.6226    -1.5054 H       
  50 H50           -7.8875     2.9188    -0.3854 H       
@<TRIPOS>BOND
   1    1    6 ar
   2    1   14 ar
   3    1    2 ar
   4    2    3 ar
   5    2    9 ar
   6    3   10 1
   7    3    4 ar
   8    4    5 ar
   9    4   28 1
  10    5   11 1
  11    5    6 ar
  12    7   12 1
  13    7    8 ar
  14    7   14 ar
  15    8    9 ar
  16    8   29 1
  17    9   30 1
  18   10   23 1
  19   10   26 2
  20   11   15 am
  21   11   16 2
  22   12   13 1
  23   12   31 1
  24   12   32 1
  25   13   17 1
  26   13   21 1
  27   14   33 1
  28   15   34 1
  29   15   35 1
  30   17   18 1
  31   17   36 1
  32   17   37 1
  33   18   19 1
  34   18   22 1
  35   18   38 1
  36   19   20 1
  37   19   39 1
  38   19   40 1
  39   20   21 1
  40   20   41 1
  41   20   42 1
  42   21   43 1
  43   21   44 1
  44   22   45 1
  45   23   24 2
  46   23   46 1
  47   24   25 1
  48   25   26 1
  49   25   27 1
  50   26   47 1
  51   27   48 1
  52   27   49 1
  53   27   50 1

#	End of record

