#	Name: ASD01350008
#	Creating user name:	WinNT
#	Creation time:	15. 06. 2019 19:16

#	Modifying user name:	WinNT
#	Modification time:	15. 06. 2019 19:16

#	Program:	/corina/corina34_cracker 3.40 0067  02.08.2006

@<TRIPOS>MOLECULE
ASD01350008
  45   48    0    0    0
SMALL
NO_CHARGES


@<TRIPOS>ATOM
   1 C1            -0.0325     1.3680    -0.0281 C.ar    
   2 C2            -0.0201    -0.0307     0.0006 C.ar    
   3 N3            -1.2181    -0.7542     0.1216 N.pl3   
   4 C4            -2.0126    -0.5432     1.2497 C.ar    
   5 C5            -2.5146     0.7342     1.5254 C.ar    
   6 C6            -2.2812     1.8453     0.5904 C.2     
   7 N7            -1.1967     2.0735    -0.0619 N.2     
   8 C8             1.1810     2.0592    -0.0809 C.ar    
   9 C9             2.3746     1.3647    -0.1340 C.ar    
  10 C10            2.3767    -0.0184    -0.1353 C.ar    
  11 C11            1.1815    -0.7146    -0.0681 C.ar    
  12 C12           -2.2994    -1.5976     2.1031 C.ar    
  13 C13           -3.0555    -1.3811     3.2404 C.ar    
  14 C14           -3.5266    -0.1135     3.5342 C.ar    
  15 C15           -3.2609     0.9428     2.6864 C.ar    
  16 N16           -3.3222     2.7241     0.3950 N.pl3   
  17 C17           -3.1379     3.9481    -0.3993 C.3     
  18 C18           -4.2469     4.0152    -1.4547 C.3     
  19 N19           -5.5539     3.8936    -0.7953 N.3     
  20 C20           -5.6981     2.5896    -0.1345 C.3     
  21 C21           -4.6502     2.4610     0.9699 C.3     
  22 C22           -6.6478     4.1247    -1.7482 C.3     
  23 Cl23           3.8771     2.2317    -0.1997 Cl      
  24 C24           -7.9800     3.7487    -1.0964 C.3     
  25 H25           -1.4873    -1.3859    -0.5635 H       
  26 H26            1.1860     3.1392    -0.0807 H       
  27 H27            3.3117    -0.5562    -0.1888 H       
  28 H28            1.1869    -1.7946    -0.0697 H       
  29 H29           -1.9324    -2.5884     1.8793 H       
  30 H30           -3.2797    -2.2048     3.9019 H       
  31 H31           -4.1051     0.0501     4.4314 H       
  32 H32           -3.6303     1.9302     2.9212 H       
  33 H33           -3.1990     4.8200     0.2520 H       
  34 H34           -2.1655     3.9225    -0.8911 H       
  35 H35           -4.1919     4.9687    -1.9801 H       
  36 H36           -4.1214     3.1994    -2.1666 H       
  37 H37           -6.6956     2.5091     0.2976 H       
  38 H38           -5.5524     1.7936    -0.8648 H       
  39 H39           -4.6780     1.4538     1.3855 H       
  40 H40           -4.8539     3.1897     1.7545 H       
  41 H41           -6.6664     5.1770    -2.0318 H       
  42 H42           -6.4919     3.5119    -2.6360 H       
  43 H43           -8.7916     3.9202    -1.8034 H       
  44 H44           -7.9614     2.6964    -0.8128 H       
  45 H45           -8.1359     4.3616    -0.2086 H       
@<TRIPOS>BOND
   1    1    2 ar
   2    1    8 ar
   3    1    7 1
   4    2    3 1
   5    2   11 ar
   6    3    4 1
   7    3   25 1
   8    4    5 ar
   9    4   12 ar
  10    5    6 1
  11    5   15 ar
  12    6    7 2
  13    6   16 1
  14    8    9 ar
  15    8   26 1
  16    9   10 ar
  17    9   23 1
  18   10   11 ar
  19   10   27 1
  20   11   28 1
  21   12   13 ar
  22   12   29 1
  23   13   14 ar
  24   13   30 1
  25   14   15 ar
  26   14   31 1
  27   15   32 1
  28   16   17 1
  29   16   21 1
  30   17   18 1
  31   17   33 1
  32   17   34 1
  33   18   19 1
  34   18   35 1
  35   18   36 1
  36   19   20 1
  37   19   22 1
  38   20   21 1
  39   20   37 1
  40   20   38 1
  41   21   39 1
  42   21   40 1
  43   22   24 1
  44   22   41 1
  45   22   42 1
  46   24   43 1
  47   24   44 1
  48   24   45 1

#	End of record

