#	Name: ASD09116197
#	Creating user name:	WinNT
#	Creation time:	15. 06. 2019 21:21

#	Modifying user name:	WinNT
#	Modification time:	15. 06. 2019 21:21

#	Program:	/corina/corina34_cracker 3.40 0067  02.08.2006

@<TRIPOS>MOLECULE
ASD09116197
  73   79    0    0    0
SMALL
NO_CHARGES


@<TRIPOS>ATOM
   1 N1            -0.0590     1.5275    -0.5285 N.2     
   2 N2            -0.0822     0.2487    -1.1080 N.pl3   
   3 C3             1.1948     1.9112    -0.4978 C.2     
   4 N4             1.9589     0.9470    -1.0245 N.2     
   5 C5             1.2029    -0.0632    -1.3976 C.2     
   6 N6             1.6572     3.1282     0.0026 N.pl3   
   7 C7             3.0333     3.3745     0.0836 C.ar    
   8 C8             3.5135     4.6727    -0.0237 C.ar    
   9 C9             5.7557     3.8644     0.2439 C.ar    
  10 C10            5.2752     2.5641     0.3572 C.ar    
  11 C11            3.9172     2.3205     0.2769 C.ar    
  12 C12           -1.2076    -0.5444    -1.3392 C.ar    
  13 N13           -1.1865    -1.4618    -2.2944 N.ar    
  14 N14           -2.1983    -2.2110    -2.5542 N.ar    
  15 C15           -3.3305    -2.1072    -1.8769 C.ar    
  16 C16           -3.4381    -1.1806    -0.8359 C.ar    
  17 C17           -2.3543    -0.3742    -0.5593 C.ar    
  18 C18           -4.5155    -2.9314    -2.2096 C.ar    
  19 C19           -5.7516    -2.3027    -2.3674 C.ar    
  20 C20           -5.8380    -0.8055    -2.2516 C.3     
  21 C21           -5.7905    -0.3562    -0.7937 C.3     
  22 C22           -4.7030    -1.1083    -0.0311 C.3     
  23 C23           -4.4117    -4.3097    -2.3606 C.ar    
  24 C24           -5.5401    -5.0529    -2.6483 C.ar    
  25 C25           -6.7670    -4.4287    -2.7829 C.ar    
  26 C26           -6.8730    -3.0557    -2.6422 C.ar    
  27 N27            1.6432    -1.2360    -1.9812 N.pl3   
  28 C28            4.8711     4.9167     0.0560 C.ar    
  29 N29            7.1326     4.1124     0.3252 N.3     
  30 C30            7.6286     4.7387    -0.9083 C.3     
  31 C31            9.1155     5.0650    -0.7492 C.3     
  32 C32            7.8735     2.8781     0.6204 C.3     
  33 C33            9.3603     3.2043     0.7794 C.3     
  34 N34            9.8564     3.8306    -0.4540 N.3     
  35 N35           11.2849     4.0879    -0.3697 N.3     
  36 F36            6.1361     1.5390     0.5397 F       
  37 C37           11.7826     4.7163    -1.6072 C.3     
  38 C38           12.4542     6.0466    -1.2063 C.3     
  39 C39           12.8014     5.8260     0.2896 C.3     
  40 C40           11.5967     4.9783     0.7687 C.3     
  41 H41            1.0256     3.8040     0.2946 H       
  42 H42            2.8255     5.4923    -0.1699 H       
  43 H43            3.5433     1.3111     0.3648 H       
  44 H44           -2.3932     0.3666     0.2256 H       
  45 H45           -5.0031    -0.3574    -2.7902 H       
  46 H46           -6.7725    -0.4666    -2.6989 H       
  47 H47           -5.5823     0.7130    -0.7543 H       
  48 H48           -6.7560    -0.5505    -0.3267 H       
  49 H49           -5.0496    -2.1192     0.1835 H       
  50 H50           -4.5016    -0.5925     0.9077 H       
  51 H51           -3.4537    -4.7968    -2.2539 H       
  52 H52           -5.4641    -6.1235    -2.7687 H       
  53 H53           -7.6473    -5.0158    -2.9990 H       
  54 H54           -7.8342    -2.5747    -2.7470 H       
  55 H55            2.5891    -1.3684    -2.1500 H       
  56 H56            1.0062    -1.9267    -2.2221 H       
  57 H57            5.2439     5.9268    -0.0282 H       
  58 H58            7.4944     4.0522    -1.7442 H       
  59 H59            7.0732     5.6570    -1.0986 H       
  60 H60            9.4925     5.5032    -1.6733 H       
  61 H61            9.2470     5.7726     0.0693 H       
  62 H62            7.4965     2.4398     1.5445 H       
  63 H63            7.7420     2.1704    -0.1982 H       
  64 H64            9.4946     3.8909     1.6153 H       
  65 H65            9.9158     2.2860     0.9697 H       
  66 H66           12.5111     4.0632    -2.0877 H       
  67 H67           10.9512     4.9101    -2.2849 H       
  68 H68           13.3586     6.2134    -1.7913 H       
  69 H69           11.7600     6.8790    -1.3221 H       
  70 H70           13.7348     5.2733     0.3963 H       
  71 H71           12.8481     6.7750     0.8237 H       
  72 H72           10.7452     5.6211     0.9919 H       
  73 H73           11.8703     4.3914     1.6455 H       
@<TRIPOS>BOND
   1    1    2 1
   2    1    3 2
   3    2   12 1
   4    2    5 1
   5    3    4 1
   6    3    6 1
   7    4    5 2
   8    5   27 1
   9    6    7 1
  10    6   41 1
  11    7    8 ar
  12    7   11 ar
  13    8   28 ar
  14    8   42 1
  15    9   10 ar
  16    9   28 ar
  17    9   29 1
  18   10   11 ar
  19   10   36 1
  20   11   43 1
  21   12   13 ar
  22   12   17 ar
  23   13   14 ar
  24   14   15 ar
  25   15   16 ar
  26   15   18 1
  27   16   17 ar
  28   16   22 1
  29   17   44 1
  30   18   19 ar
  31   18   23 ar
  32   19   20 1
  33   19   26 ar
  34   20   21 1
  35   20   45 1
  36   20   46 1
  37   21   22 1
  38   21   47 1
  39   21   48 1
  40   22   49 1
  41   22   50 1
  42   23   24 ar
  43   23   51 1
  44   24   25 ar
  45   24   52 1
  46   25   26 ar
  47   25   53 1
  48   26   54 1
  49   27   55 1
  50   27   56 1
  51   28   57 1
  52   29   30 1
  53   29   32 1
  54   30   31 1
  55   30   58 1
  56   30   59 1
  57   31   34 1
  58   31   60 1
  59   31   61 1
  60   32   33 1
  61   32   62 1
  62   32   63 1
  63   33   34 1
  64   33   64 1
  65   33   65 1
  66   34   35 1
  67   35   37 1
  68   35   40 1
  69   37   38 1
  70   37   66 1
  71   37   67 1
  72   38   39 1
  73   38   68 1
  74   38   69 1
  75   39   40 1
  76   39   70 1
  77   39   71 1
  78   40   72 1
  79   40   73 1

#	End of record

