#	Name: ASD06610082
#	Creating user name:	WinNT
#	Creation time:	15. 06. 2019 21:07

#	Modifying user name:	WinNT
#	Modification time:	15. 06. 2019 21:07

#	Program:	/corina/corina34_cracker 3.40 0067  02.08.2006

@<TRIPOS>MOLECULE
ASD06610082
 430  431    0    0    0
SMALL
NO_CHARGES


@<TRIPOS>ATOM
   1 C1            -8.7651    -5.7974    -6.6160 C.2     
   2 O2            -9.3625    -6.7816    -6.2348 O.2     
   3 N3            -6.7204    -7.0663    -6.2781 N.3     
   4 C4            -7.2950    -5.8851    -6.9358 C.3     
   5 C5            -7.1086    -6.0032    -8.4498 C.3     
   6 C6            -5.6160    -5.9667    -8.7843 C.3     
   7 C7            -5.4324    -6.0831   -10.2755 C.2     
   8 O8            -6.3996    -6.1850   -10.9992 O.2     
   9 N9            -4.1929    -6.0737   -10.8046 N.am    
  10 C10          -11.4612    -3.4066    -7.2308 C.2     
  11 O11          -10.7492    -2.6135    -7.8095 O.2     
  12 N12           -9.4172    -4.6266    -6.7590 N.am    
  13 C13          -10.8476    -4.5428    -6.4539 C.3     
  14 C14          -11.0359    -4.2965    -4.9557 C.3     
  15 C15          -10.4316    -5.4604    -4.1676 C.3     
  16 O16          -10.3816    -3.0809    -4.5868 O.3     
  17 C17          -14.6463    -1.6971    -7.2127 C.2     
  18 O18          -15.0080    -2.3170    -6.2350 O.2     
  19 N19          -12.8012    -3.2719    -7.2825 N.am    
  20 C20          -13.3954    -2.1085    -7.9456 C.3     
  21 C21          -13.7460    -2.4689    -9.3906 C.3     
  22 C22          -14.6091    -3.7321    -9.4060 C.3     
  23 C23          -15.9683    -3.4290    -8.7722 C.3     
  24 C24          -12.4598    -2.7203   -10.1800 C.3     
  25 C25          -17.5069     0.4494    -7.9695 C.2     
  26 O26          -17.1042     0.6862    -9.0887 O.2     
  27 N27          -15.3632    -0.6404    -7.6438 N.am    
  28 C28          -16.6359    -0.3067    -6.9996 C.3     
  29 C29          -16.3718     0.5614    -5.7677 C.3     
  30 C30          -20.8894     1.9406    -7.8733 C.2     
  31 O31          -21.0949     1.6044    -6.7263 O.2     
  32 N32          -18.7334     0.8624    -7.5932 N.am    
  33 C33          -19.5801     1.5974    -8.5361 C.3     
  34 C34          -24.1687     3.1328    -8.9631 C.2     
  35 O35          -23.8913     2.9945   -10.1356 O.2     
  36 N36          -21.8318     2.6212    -8.5552 N.am    
  37 C37          -23.1045     2.9549    -7.9110 C.3     
  38 C38          -22.9494     4.2539    -7.1176 C.3     
  39 C39          -21.9750     4.0394    -5.9882 C.2     
  40 C40          -20.8667     4.7666    -5.7504 C.2     
  41 N41          -20.2773     4.2367    -4.6344 N.pl3   
  42 C42          -21.0465     3.2035    -4.2288 C.2     
  43 N43          -22.0627     3.0946    -5.0403 N.2     
  44 C44          -27.5486     4.5193    -9.0931 C.2     
  45 O45          -27.4662     4.9721    -7.9710 O.2     
  46 N46          -25.4287     3.4456    -8.6010 N.am    
  47 C47          -26.4632     3.6186    -9.6238 C.3     
  48 C48          -27.0604     2.2559    -9.9807 C.3     
  49 C49          -26.0027     1.3971   -10.6248 C.ar    
  50 C50          -25.2031     0.5835    -9.8440 C.ar    
  51 C51          -24.2329    -0.2043   -10.4347 C.ar    
  52 C52          -24.0626    -0.1788   -11.8063 C.ar    
  53 C53          -24.8627     0.6342   -12.5872 C.ar    
  54 C54          -25.8358     1.4187   -11.9968 C.ar    
  55 C55          -30.9567     5.4080   -10.0718 C.2     
  56 O56          -30.9917     4.5545   -10.9328 O.2     
  57 N57          -28.6110     4.8216    -9.8654 N.am    
  58 C58          -29.6662     5.6972    -9.3495 C.3     
  59 C59          -29.2720     7.1583    -9.5748 C.3     
  60 C60          -28.0310     7.4859    -8.7421 C.3     
  61 C61          -27.6368     8.9470    -8.9674 C.3     
  62 N62          -26.4485     9.2608    -8.1700 N.pl3   
  63 C63          -25.9070    10.5238    -8.2109 C.2     
  64 N64          -26.4509    11.4421    -8.9592 N.2     
  65 N65          -24.7919    10.8182    -7.4626 N.pl3   
  66 C66          -34.2114     7.0358   -10.4189 C.2     
  67 O67          -33.8313     8.0407    -9.8561 O.2     
  68 N68          -32.0721     6.0978    -9.7611 N.am    
  69 C69          -33.3268     5.8166   -10.4633 C.3     
  70 C70          -34.0392     4.6446    -9.7851 C.3     
  71 C71          -33.1962     3.3772    -9.9394 C.3     
  72 C72          -33.9086     2.2052    -9.2612 C.3     
  73 C73          -33.0656     0.9377    -9.4155 C.3     
  74 N74          -33.7496    -0.1875    -8.7644 N.3     
  75 C75          -37.7256     7.7755   -11.1017 C.2     
  76 O76          -38.0064     6.6021   -11.2255 O.2     
  77 N77          -35.4250     7.0096   -11.0046 N.am    
  78 C78          -36.2849     8.1948   -10.9614 C.3     
  79 C79          -35.9138     9.1363   -12.1089 C.3     
  80 C80          -34.4917     9.6602   -11.8991 C.3     
  81 C81          -34.1261    10.5875   -13.0294 C.2     
  82 O82          -34.9214    10.8068   -13.9122 O.2     
  83 O83          -32.9169    11.1698   -13.0554 O.3     
  84 C84          -40.9066     9.4414   -11.7866 C.2     
  85 O85          -40.3632    10.4940   -12.0468 O.2     
  86 N86          -38.7021     8.7044   -11.0895 N.am    
  87 C87          -40.1026     8.2968   -11.2258 C.3     
  88 C88          -40.6566     7.9084    -9.8536 C.3     
  89 C89          -39.9224     6.6685    -9.3394 C.3     
  90 C90          -40.4764     6.2802    -7.9671 C.3     
  91 N91          -39.7734     5.0929    -7.4748 N.pl3   
  92 C92          -40.1028     4.5564    -6.2526 C.2     
  93 N93          -39.4773     3.5001    -5.8146 N.2     
  94 N94          -41.0920     5.1341    -5.4924 N.pl3   
  95 C95          -44.3860    10.3869   -11.7825 C.2     
  96 O96          -44.6516     9.4889   -11.0117 O.2     
  97 N97          -42.2295     9.2953   -11.9990 N.am    
  98 C98          -43.0312    10.4393   -12.4403 C.3     
  99 C99          -43.1999    10.3879   -13.9601 C.3     
 100 C100         -43.7733     9.0281   -14.3639 C.3     
 101 C101         -45.2036     8.9006   -13.8358 C.3     
 102 C102         -41.8395    10.5874   -14.6313 C.3     
 103 C103         -47.6217    12.0415   -12.1774 C.2     
 104 O104         -47.3221    12.4909   -13.2633 O.2     
 105 N105         -45.3026    11.3379   -12.0506 N.am    
 106 C106         -46.5829    11.3429   -11.3384 C.3     
 107 C107         -46.4229    12.0795   -10.0070 C.3     
 108 C108         -45.4616    11.3017    -9.1061 C.3     
 109 C109         -45.3041    12.0272    -7.7946 C.2     
 110 O110         -45.8996    13.0604    -7.6005 O.2     
 111 O111         -44.5022    11.5256    -6.8422 O.3     
 112 C112         -51.2104    12.8511   -11.8040 C.2     
 113 O113         -51.2969    12.3380   -10.7085 O.2     
 114 N114         -48.8836    12.1668   -11.7210 N.am    
 115 C115         -49.8935    12.8459   -12.5366 C.3     
 116 C116         -54.6996    13.5409   -12.6481 C.2     
 117 O117         -54.4575    13.6085   -13.8346 O.2     
 118 N118         -52.2921    13.4259   -12.3663 N.am    
 119 C119         -53.5723    13.4309   -11.6541 C.3     
 120 C120         -53.6185    14.6232   -10.6965 C.3     
 121 C121         -52.5530    14.4483    -9.6125 C.3     
 122 C122         -52.5146    15.6969    -8.7290 C.3     
 123 C123         -52.8931    13.2274    -8.7554 C.3     
 124 C124         -58.2776    14.2780   -12.5130 C.2     
 125 O125         -58.2258    14.5903   -11.3422 O.2     
 126 N126         -55.9769    13.5642   -12.2186 N.am    
 127 C127         -57.0728    13.6712   -13.1849 C.3     
 128 C128         -57.4286    12.2784   -13.7088 C.3     
 129 C129         -56.2463    11.7132   -14.4986 C.3     
 130 C130         -56.6021    10.3204   -15.0225 C.3     
 131 N131         -55.4701     9.7793   -15.7787 N.pl3   
 132 C132         -55.5578     8.5312   -16.3486 C.2     
 133 N133         -56.6482     7.8295   -16.2162 N.2     
 134 N134         -54.4954     8.0234   -17.0583 N.pl3   
 135 C135         -61.8329    14.6339   -13.2851 C.2     
 136 O136         -61.7528    13.9066   -14.2524 O.2     
 137 N137         -59.4125    14.4735   -13.2131 N.am    
 138 C138         -60.5836    15.0634   -12.5599 C.3     
 139 C139         -60.4727    16.5890   -12.5949 C.3     
 140 C140         -59.2739    17.0326   -11.7540 C.3     
 141 C141         -59.1630    18.5582   -11.7889 C.3     
 142 C142         -57.9643    19.0017   -10.9480 C.3     
 143 N143         -57.8577    20.4665   -10.9816 N.3     
 144 C144         -65.3419    15.6572   -13.3353 C.2     
 145 O145         -65.1246    16.6346   -12.6508 O.2     
 146 N146         -63.0391    15.0579   -12.8589 N.am    
 147 C147         -64.2535    14.6403   -13.5639 C.3     
 148 C148         -64.7081    13.2788   -13.0341 C.3     
 149 C149         -63.6571    12.2212   -13.3771 C.3     
 150 C150         -64.1117    10.8598   -12.8473 C.3     
 151 N151         -63.1053     9.8471   -13.1757 N.pl3   
 152 C152         -63.2975     8.5392   -12.7981 C.2     
 153 N153         -64.3751     8.2002   -12.1480 N.2     
 154 N154         -62.3530     7.5889   -13.1063 N.pl3   
 155 C155         -68.9603    15.8102   -13.8319 C.2     
 156 O156         -69.0287    14.6309   -14.1065 O.2     
 157 N157         -66.5568    15.4806   -13.8914 N.am    
 158 C158         -67.6148    16.4692   -13.6692 C.3     
 159 C159         -67.4757    17.6028   -14.6873 C.3     
 160 C160         -66.1642    18.3513   -14.4411 C.3     
 161 C161         -66.0250    19.4848   -15.4592 C.3     
 162 N162         -64.7692    20.2015   -15.2234 N.pl3   
 163 C163         -64.4260    21.2675   -16.0209 C.2     
 164 N164         -65.2178    21.6405   -16.9867 N.2     
 165 N165         -63.2475    21.9401   -15.7997 N.pl3   
 166 C166         -72.4199    16.9278   -14.2133 C.2     
 167 O167         -72.0898    18.0878   -14.3414 O.2     
 168 N168         -70.0876    16.5314   -13.6724 N.am    
 169 C169         -71.3956    15.8908   -13.8306 C.3     
 170 C170         -71.8043    15.2330   -12.5110 C.3     
 171 C171         -70.8334    14.0961   -12.1857 C.3     
 172 C172         -71.2421    13.4384   -10.8661 C.3     
 173 N173         -70.3125    12.3498   -10.5546 N.pl3   
 174 C174         -70.4808    11.6089    -9.4088 C.2     
 175 N175         -71.4674    11.8750    -8.5997 N.2     
 176 N176         -69.6084    10.5873    -9.1165 N.pl3   
 177 C177         -75.2307    18.2377   -13.5415 C.2     
 178 O178         -74.8204    17.9028   -12.4555 O.2     
 179 N179         -73.7027    16.5661   -14.4134 N.am    
 180 C180         -74.6985    17.5743   -14.7855 C.3     
 181 C181         -75.8491    16.9016   -15.5368 C.3     
 182 C182         -75.3341    16.3450   -16.8657 C.3     
 183 C183         -76.4431    15.5391   -17.5451 C.3     
 184 C184         -74.9142    17.5018   -17.7747 C.3     
 185 O185         -76.1606    19.2007   -13.6399 O.3     
 186 C186          -4.0287    -6.1778   -12.1383 C.2     
 187 O187          -4.9959    -6.2798   -12.8620 O.2     
 188 C188           6.5495    -7.0089   -27.5850 C.3     
 189 C189           5.1424    -7.0195   -26.9843 C.3     
 190 C190           5.2363    -6.8887   -25.4628 C.3     
 191 C191           3.8292    -6.8993   -24.8622 C.3     
 192 C192           3.9231    -6.7684   -23.3407 C.3     
 193 C193           2.5160    -6.7790   -22.7400 C.3     
 194 C194           2.6100    -6.6482   -21.2185 C.3     
 195 C195           1.2029    -6.6588   -20.6179 C.3     
 196 C196           1.2968    -6.5280   -19.0964 C.3     
 197 C197          -0.1103    -6.5386   -18.4957 C.3     
 198 C198          -0.0164    -6.4078   -16.9742 C.3     
 199 C199          -1.4235    -6.4184   -16.3736 C.3     
 200 C200          -1.3295    -6.2876   -14.8521 C.3     
 201 C201          -2.7367    -6.2982   -14.2514 C.3     
 202 C202          -2.6427    -6.1673   -12.7299 C.3     
 203 H203          -6.7732    -6.9825    -5.2740 H       
 204 H204          -7.1713    -7.9116    -6.5946 H       
 205 H205          -6.7909    -4.9879    -6.5766 H       
 206 H206          -7.5357    -6.9443    -8.7962 H       
 207 H207          -7.6120    -5.1722    -8.9438 H       
 208 H208          -5.1890    -5.0256    -8.4379 H       
 209 H209          -5.1126    -6.7978    -8.2903 H       
 210 H210          -3.4190    -5.9921   -10.2256 H       
 211 H211          -8.9394    -3.8394    -7.0640 H       
 212 H212         -11.3339    -5.4778    -6.7324 H       
 213 H213         -12.0997    -4.2191    -4.7311 H       
 214 H214          -9.3505    -5.4707    -4.3064 H       
 215 H215         -10.6609    -5.3401    -3.1088 H       
 216 H216         -10.8530    -6.3996    -4.5261 H       
 217 H217         -10.7145    -2.2992    -5.0486 H       
 218 H218         -13.3723    -3.9452    -6.8806 H       
 219 H219         -12.6829    -1.2836    -7.9395 H       
 220 H220         -14.2973    -1.6466    -9.8466 H       
 221 H221         -14.7533    -4.0610   -10.4352 H       
 222 H222         -14.1114    -4.5191    -8.8395 H       
 223 H223         -16.6491    -4.2597    -8.9580 H       
 224 H224         -15.8458    -3.2929    -7.6977 H       
 225 H225         -16.3781    -2.5185    -9.2095 H       
 226 H226         -11.9605    -3.6066    -9.7884 H       
 227 H227         -12.7029    -2.8748   -11.2312 H       
 228 H228         -11.7994    -1.8586   -10.0827 H       
 229 H229         -15.0365    -0.1007    -8.3807 H       
 230 H230         -17.1410    -1.2237    -6.6963 H       
 231 H231         -15.8667     1.4785    -6.0710 H       
 232 H232         -17.3187     0.8097    -5.2883 H       
 233 H233         -15.7418     0.0146    -5.0661 H       
 234 H234         -19.0555     0.6730    -6.6980 H       
 235 H235         -19.7683     0.9789    -9.4137 H       
 236 H236         -19.0750     2.5144    -8.8394 H       
 237 H237         -21.6674     2.8901    -9.4726 H       
 238 H238         -23.3923     2.1490    -7.2358 H       
 239 H239         -22.5763     5.0389    -7.7753 H       
 240 H240         -23.9169     4.5494    -6.7117 H       
 241 H241         -20.5111     5.6062    -6.3292 H       
 242 H242         -19.4598     4.5456    -4.2135 H       
 243 H243         -20.8546     2.5741    -3.3724 H       
 244 H244         -25.6505     3.5562    -7.6632 H       
 245 H245         -26.0224     4.0666   -10.5143 H       
 246 H246         -27.4218     1.7691    -9.0749 H       
 247 H247         -27.8894     2.3932   -10.6750 H       
 248 H248         -25.3362     0.5636    -8.7724 H       
 249 H249         -23.6078    -0.8394    -9.8246 H       
 250 H250         -23.3041    -0.7937   -12.2677 H       
 251 H251         -24.7294     0.6543   -13.6587 H       
 252 H252         -26.4635     2.0510   -12.6073 H       
 253 H253         -28.6769     4.4594   -10.7628 H       
 254 H254         -29.7986     5.5170    -8.2827 H       
 255 H255         -29.0532     7.3169   -10.6308 H       
 256 H256         -30.0940     7.8071    -9.2726 H       
 257 H257         -28.2497     7.3273    -7.6861 H       
 258 H258         -27.2089     6.8371    -9.0443 H       
 259 H259         -27.4180     9.1057   -10.0233 H       
 260 H260         -28.4588     9.5959    -8.6651 H       
 261 H261         -26.0438     8.5774    -7.6132 H       
 262 H262         -26.0689    12.3332    -8.9880 H       
 263 H263         -24.3872    10.1348    -6.9058 H       
 264 H264         -24.4099    11.7094    -7.4915 H       
 265 H265         -32.0442     6.7804    -9.0725 H       
 266 H266         -33.1129     5.5605   -11.5009 H       
 267 H267         -34.1737     4.8649    -8.7261 H       
 268 H268         -35.0127     4.4924   -10.2512 H       
 269 H269         -33.0616     3.1569   -10.9984 H       
 270 H270         -32.2227     3.5294    -9.4733 H       
 271 H271         -34.0432     2.4254    -8.2022 H       
 272 H272         -34.8821     2.0530    -9.7273 H       
 273 H273         -32.9310     0.7175   -10.4745 H       
 274 H274         -32.0921     1.0899    -8.9495 H       
 275 H275         -34.6803    -0.3082    -9.1349 H       
 276 H276         -33.2124    -1.0371    -8.8524 H       
 277 H277         -35.7290     6.2059   -11.4547 H       
 278 H278         -36.1472     8.7092   -10.0104 H       
 279 H279         -35.9660     8.5955   -13.0539 H       
 280 H280         -36.6102     9.9745   -12.1310 H       
 281 H281         -34.4394    10.2009   -10.9541 H       
 282 H282         -33.7952     8.8220   -11.8771 H       
 283 H283         -32.7282    11.7566   -13.8005 H       
 284 H284         -38.4775     9.6428   -10.9905 H       
 285 H285         -40.1684     7.4422   -11.8993 H       
 286 H286         -40.5099     8.7330    -9.1559 H       
 287 H287         -41.7211     7.6906    -9.9399 H       
 288 H288         -40.0691     5.8440   -10.0371 H       
 289 H289         -38.8579     6.8863    -9.2531 H       
 290 H290         -40.3297     7.1047    -7.2695 H       
 291 H291         -41.5410     6.0623    -8.0535 H       
 292 H292         -39.0755     4.6853    -8.0112 H       
 293 H293         -39.7097     3.1216    -4.9522 H       
 294 H294         -41.5575     5.9202    -5.8184 H       
 295 H295         -41.3244     4.7556    -4.6301 H       
 296 H296         -42.6507     8.4327   -11.8597 H       
 297 H297         -42.5276    11.3650   -12.1617 H       
 298 H298         -43.8808    11.1780   -14.2770 H       
 299 H299         -43.7784     8.9442   -15.4507 H       
 300 H300         -43.1577     8.2342   -13.9411 H       
 301 H301         -45.7685     9.7955   -14.0969 H       
 302 H302         -45.6793     8.0275   -14.2825 H       
 303 H303         -45.1820     8.7879   -12.7519 H       
 304 H304         -41.1459     9.8233   -14.2807 H       
 305 H305         -41.9525    10.5071   -15.7124 H       
 306 H306         -41.4511    11.5741   -14.3789 H       
 307 H307         -45.1146    12.0190   -12.7151 H       
 308 H308         -46.8980    10.3165   -11.1503 H       
 309 H309         -46.0232    13.0770   -10.1894 H       
 310 H310         -47.3937    12.1610    -9.5179 H       
 311 H311         -45.8614    10.3042    -8.9237 H       
 312 H312         -44.4909    11.2202    -9.5951 H       
 313 H313         -44.4332    12.0265    -6.0179 H       
 314 H314         -49.1232    11.8073   -10.8525 H       
 315 H315         -50.0074    12.3211   -13.4852 H       
 316 H316         -49.5784    13.8723   -12.7248 H       
 317 H317         -52.2229    13.8362   -13.2425 H       
 318 H318         -53.6765    12.5055   -11.0875 H       
 319 H319         -53.4258    15.5419   -11.2505 H       
 320 H320         -54.6033    14.6786   -10.2324 H       
 321 H321         -51.5791    14.3041   -10.0802 H       
 322 H322         -53.4885    15.8412    -8.2613 H       
 323 H323         -51.7555    15.5723    -7.9568 H       
 324 H324         -52.2724    16.5667    -9.3396 H       
 325 H325         -52.9205    12.3379    -9.3848 H       
 326 H326         -52.1340    13.1028    -7.9831 H       
 327 H327         -53.8670    13.3717    -8.2877 H       
 328 H328         -56.1706    13.5101   -11.2697 H       
 329 H329         -56.7634    14.3041   -14.0166 H       
 330 H330         -57.6523    11.6205   -12.8690 H       
 331 H331         -58.3006    12.3466   -14.3592 H       
 332 H332         -56.0226    12.3711   -15.3384 H       
 333 H333         -55.3743    11.6449   -13.8482 H       
 334 H334         -56.8258     9.6625   -14.1827 H       
 335 H335         -57.4741    10.3887   -15.6729 H       
 336 H336         -54.6586    10.3015   -15.8772 H       
 337 H337         -56.7101     6.9489   -16.6183 H       
 338 H338         -53.6840     8.5456   -17.1569 H       
 339 H339         -54.5573     7.1428   -17.4604 H       
 340 H340         -59.4539    14.2237   -14.1495 H       
 341 H341         -60.6305    14.7262   -11.5244 H       
 342 H342         -60.3366    16.9199   -13.6245 H       
 343 H343         -61.3838    17.0289   -12.1893 H       
 344 H344         -59.4100    16.7017   -10.7244 H       
 345 H345         -58.3629    16.5926   -12.1596 H       
 346 H346         -59.0269    18.8890   -12.8186 H       
 347 H347         -60.0741    18.9981   -11.3833 H       
 348 H348         -58.1003    18.6709    -9.9184 H       
 349 H349         -57.0532    18.5618   -11.3537 H       
 350 H350         -58.7149    20.8986   -10.6708 H       
 351 H351         -57.0729    20.7846   -10.4331 H       
 352 H352         -63.1031    15.6396   -12.0853 H       
 353 H353         -64.0459    14.5639   -14.6312 H       
 354 H354         -64.8302    13.3323   -11.9523 H       
 355 H355         -65.6587    13.0089   -13.4941 H       
 356 H356         -63.5349    12.1678   -14.4589 H       
 357 H357         -62.7065    12.4911   -12.9170 H       
 358 H358         -64.2338    10.9132   -11.7654 H       
 359 H359         -65.0623    10.5899   -13.3073 H       
 360 H360         -62.3033    10.0994   -13.6595 H       
 361 H361         -64.5108     7.2774   -11.8816 H       
 362 H362         -61.5511     7.8412   -13.5901 H       
 363 H363         -62.4886     6.6661   -12.8399 H       
 364 H364         -66.7306    14.6989   -14.4388 H       
 365 H365         -67.5281    16.8738   -12.6608 H       
 366 H366         -67.4734    17.1877   -15.6952 H       
 367 H367         -68.3131    18.2922   -14.5802 H       
 368 H368         -66.1664    18.7664   -13.4332 H       
 369 H369         -65.3267    17.6618   -14.5482 H       
 370 H370         -66.0228    19.0697   -16.4671 H       
 371 H371         -66.8625    20.1743   -15.3521 H       
 372 H372         -64.1800    19.9240   -14.5047 H       
 373 H373         -64.9756    22.3926   -17.5494 H       
 374 H374         -62.6582    21.6625   -15.0809 H       
 375 H375         -63.0053    22.6922   -16.3623 H       
 376 H376         -70.0330    17.4746   -13.4527 H       
 377 H377         -71.3368    15.1326   -14.6115 H       
 378 H378         -71.7770    15.9739   -11.7120 H       
 379 H379         -72.8144    14.8335   -12.6017 H       
 380 H380         -70.8607    13.3552   -12.9847 H       
 381 H381         -69.8234    14.4957   -12.0950 H       
 382 H382         -71.2149    14.1792   -10.0671 H       
 383 H383         -72.2522    13.0388   -10.9568 H       
 384 H384         -69.5783    12.1517   -11.1568 H       
 385 H385         -71.5861    11.3522    -7.7912 H       
 386 H386         -68.8742    10.3893    -9.7187 H       
 387 H387         -69.7271    10.0645    -8.3081 H       
 388 H388         -73.9667    15.6384   -14.3110 H       
 389 H389         -74.2346    18.3237   -15.4268 H       
 390 H390         -76.2506    16.0877   -14.9331 H       
 391 H391         -76.6342    17.6329   -15.7290 H       
 392 H392         -74.4763    15.6984   -16.6807 H       
 393 H393         -77.2660    16.2037   -17.8082 H       
 394 H394         -76.0511    15.0711   -18.4481 H       
 395 H395         -76.8023    14.7685   -16.8630 H       
 396 H396         -74.1241    18.0759   -17.2907 H       
 397 H397         -74.5473    17.1052   -18.7214 H       
 398 H398         -75.7720    18.1484   -17.9596 H       
 399 H399         -76.4715    19.5968   -12.8143 H       
 400 H400           7.1224    -7.8446   -27.1831 H       
 401 H401           6.4826    -7.1021   -28.6689 H       
 402 H402           7.0460    -6.0724   -27.3308 H       
 403 H403           4.5695    -6.1838   -27.3862 H       
 404 H404           4.6459    -7.9559   -27.2385 H       
 405 H405           5.8092    -7.7244   -25.0610 H       
 406 H406           5.7328    -5.9522   -25.2086 H       
 407 H407           3.2563    -6.0635   -25.2640 H       
 408 H408           3.3327    -7.8357   -25.1164 H       
 409 H409           4.4960    -7.6042   -22.9388 H       
 410 H410           4.4197    -5.8320   -23.0865 H       
 411 H411           1.9431    -5.9433   -23.1419 H       
 412 H412           2.0195    -7.7155   -22.9942 H       
 413 H413           3.1829    -7.4839   -20.8167 H       
 414 H414           3.1065    -5.7118   -20.9643 H       
 415 H415           0.6300    -5.8231   -21.0197 H       
 416 H416           0.7063    -7.5953   -20.8721 H       
 417 H417           1.8697    -7.3637   -18.6945 H       
 418 H418           1.7933    -5.5915   -18.8422 H       
 419 H419          -0.6832    -5.7029   -18.8976 H       
 420 H420          -0.6068    -7.4751   -18.7499 H       
 421 H421           0.5565    -7.2435   -16.5724 H       
 422 H422           0.4801    -5.4713   -16.7200 H       
 423 H423          -1.9964    -5.5827   -16.7754 H       
 424 H424          -1.9200    -7.3548   -16.6278 H       
 425 H425          -0.7567    -7.1233   -14.4502 H       
 426 H426          -0.8330    -5.3511   -14.5979 H       
 427 H427          -3.3095    -5.4624   -14.6533 H       
 428 H428          -3.2332    -7.2346   -14.5056 H       
 429 H429          -2.1462    -5.2309   -12.4757 H       
 430 H430          -2.0698    -7.0031   -12.3281 H       
@<TRIPOS>BOND
   1    1    2 2
   2    1    4 1
   3    1   12 am
   4    3    4 1
   5    3  203 1
   6    3  204 1
   7    4    5 1
   8    4  205 1
   9    5    6 1
  10    5  206 1
  11    5  207 1
  12    6    7 1
  13    6  208 1
  14    6  209 1
  15    7    8 2
  16    7    9 am
  17    9  186 am
  18    9  210 1
  19   10   11 2
  20   10   13 1
  21   10   19 am
  22   12   13 1
  23   12  211 1
  24   13   14 1
  25   13  212 1
  26   14   15 1
  27   14   16 1
  28   14  213 1
  29   15  214 1
  30   15  215 1
  31   15  216 1
  32   16  217 1
  33   17   18 2
  34   17   20 1
  35   17   27 am
  36   19   20 1
  37   19  218 1
  38   20   21 1
  39   20  219 1
  40   21   22 1
  41   21   24 1
  42   21  220 1
  43   22   23 1
  44   22  221 1
  45   22  222 1
  46   23  223 1
  47   23  224 1
  48   23  225 1
  49   24  226 1
  50   24  227 1
  51   24  228 1
  52   25   26 2
  53   25   28 1
  54   25   32 am
  55   27   28 1
  56   27  229 1
  57   28   29 1
  58   28  230 1
  59   29  231 1
  60   29  232 1
  61   29  233 1
  62   30   31 2
  63   30   33 1
  64   30   36 am
  65   32   33 1
  66   32  234 1
  67   33  235 1
  68   33  236 1
  69   34   35 2
  70   34   37 1
  71   34   46 am
  72   36   37 1
  73   36  237 1
  74   37   38 1
  75   37  238 1
  76   38   39 1
  77   38  239 1
  78   38  240 1
  79   39   40 2
  80   39   43 1
  81   40   41 1
  82   40  241 1
  83   41   42 1
  84   41  242 1
  85   42   43 2
  86   42  243 1
  87   44   45 2
  88   44   47 1
  89   44   57 am
  90   46   47 1
  91   46  244 1
  92   47   48 1
  93   47  245 1
  94   48   49 1
  95   48  246 1
  96   48  247 1
  97   49   50 ar
  98   49   54 ar
  99   50   51 ar
 100   50  248 1
 101   51   52 ar
 102   51  249 1
 103   52   53 ar
 104   52  250 1
 105   53   54 ar
 106   53  251 1
 107   54  252 1
 108   55   56 2
 109   55   58 1
 110   55   68 am
 111   57   58 1
 112   57  253 1
 113   58   59 1
 114   58  254 1
 115   59   60 1
 116   59  255 1
 117   59  256 1
 118   60   61 1
 119   60  257 1
 120   60  258 1
 121   61   62 1
 122   61  259 1
 123   61  260 1
 124   62   63 1
 125   62  261 1
 126   63   64 2
 127   63   65 1
 128   64  262 1
 129   65  263 1
 130   65  264 1
 131   66   67 2
 132   66   69 1
 133   66   77 am
 134   68   69 1
 135   68  265 1
 136   69   70 1
 137   69  266 1
 138   70   71 1
 139   70  267 1
 140   70  268 1
 141   71   72 1
 142   71  269 1
 143   71  270 1
 144   72   73 1
 145   72  271 1
 146   72  272 1
 147   73   74 1
 148   73  273 1
 149   73  274 1
 150   74  275 1
 151   74  276 1
 152   75   76 2
 153   75   78 1
 154   75   86 am
 155   77   78 1
 156   77  277 1
 157   78   79 1
 158   78  278 1
 159   79   80 1
 160   79  279 1
 161   79  280 1
 162   80   81 1
 163   80  281 1
 164   80  282 1
 165   81   82 2
 166   81   83 1
 167   83  283 1
 168   84   85 2
 169   84   87 1
 170   84   97 am
 171   86   87 1
 172   86  284 1
 173   87   88 1
 174   87  285 1
 175   88   89 1
 176   88  286 1
 177   88  287 1
 178   89   90 1
 179   89  288 1
 180   89  289 1
 181   90   91 1
 182   90  290 1
 183   90  291 1
 184   91   92 1
 185   91  292 1
 186   92   93 2
 187   92   94 1
 188   93  293 1
 189   94  294 1
 190   94  295 1
 191   95   96 2
 192   95   98 1
 193   95  105 am
 194   97   98 1
 195   97  296 1
 196   98   99 1
 197   98  297 1
 198   99  100 1
 199   99  102 1
 200   99  298 1
 201  100  101 1
 202  100  299 1
 203  100  300 1
 204  101  301 1
 205  101  302 1
 206  101  303 1
 207  102  304 1
 208  102  305 1
 209  102  306 1
 210  103  104 2
 211  103  106 1
 212  103  114 am
 213  105  106 1
 214  105  307 1
 215  106  107 1
 216  106  308 1
 217  107  108 1
 218  107  309 1
 219  107  310 1
 220  108  109 1
 221  108  311 1
 222  108  312 1
 223  109  110 2
 224  109  111 1
 225  111  313 1
 226  112  113 2
 227  112  115 1
 228  112  118 am
 229  114  115 1
 230  114  314 1
 231  115  315 1
 232  115  316 1
 233  116  117 2
 234  116  119 1
 235  116  126 am
 236  118  119 1
 237  118  317 1
 238  119  120 1
 239  119  318 1
 240  120  121 1
 241  120  319 1
 242  120  320 1
 243  121  122 1
 244  121  123 1
 245  121  321 1
 246  122  322 1
 247  122  323 1
 248  122  324 1
 249  123  325 1
 250  123  326 1
 251  123  327 1
 252  124  125 2
 253  124  127 1
 254  124  137 am
 255  126  127 1
 256  126  328 1
 257  127  128 1
 258  127  329 1
 259  128  129 1
 260  128  330 1
 261  128  331 1
 262  129  130 1
 263  129  332 1
 264  129  333 1
 265  130  131 1
 266  130  334 1
 267  130  335 1
 268  131  132 1
 269  131  336 1
 270  132  133 2
 271  132  134 1
 272  133  337 1
 273  134  338 1
 274  134  339 1
 275  135  136 2
 276  135  138 1
 277  135  146 am
 278  137  138 1
 279  137  340 1
 280  138  139 1
 281  138  341 1
 282  139  140 1
 283  139  342 1
 284  139  343 1
 285  140  141 1
 286  140  344 1
 287  140  345 1
 288  141  142 1
 289  141  346 1
 290  141  347 1
 291  142  143 1
 292  142  348 1
 293  142  349 1
 294  143  350 1
 295  143  351 1
 296  144  145 2
 297  144  147 1
 298  144  157 am
 299  146  147 1
 300  146  352 1
 301  147  148 1
 302  147  353 1
 303  148  149 1
 304  148  354 1
 305  148  355 1
 306  149  150 1
 307  149  356 1
 308  149  357 1
 309  150  151 1
 310  150  358 1
 311  150  359 1
 312  151  152 1
 313  151  360 1
 314  152  153 2
 315  152  154 1
 316  153  361 1
 317  154  362 1
 318  154  363 1
 319  155  156 2
 320  155  158 1
 321  155  168 am
 322  157  158 1
 323  157  364 1
 324  158  159 1
 325  158  365 1
 326  159  160 1
 327  159  366 1
 328  159  367 1
 329  160  161 1
 330  160  368 1
 331  160  369 1
 332  161  162 1
 333  161  370 1
 334  161  371 1
 335  162  163 1
 336  162  372 1
 337  163  164 2
 338  163  165 1
 339  164  373 1
 340  165  374 1
 341  165  375 1
 342  166  167 2
 343  166  169 1
 344  166  179 am
 345  168  169 1
 346  168  376 1
 347  169  170 1
 348  169  377 1
 349  170  171 1
 350  170  378 1
 351  170  379 1
 352  171  172 1
 353  171  380 1
 354  171  381 1
 355  172  173 1
 356  172  382 1
 357  172  383 1
 358  173  174 1
 359  173  384 1
 360  174  175 2
 361  174  176 1
 362  175  385 1
 363  176  386 1
 364  176  387 1
 365  177  178 2
 366  177  180 1
 367  177  185 1
 368  179  180 1
 369  179  388 1
 370  180  181 1
 371  180  389 1
 372  181  182 1
 373  181  390 1
 374  181  391 1
 375  182  183 1
 376  182  184 1
 377  182  392 1
 378  183  393 1
 379  183  394 1
 380  183  395 1
 381  184  396 1
 382  184  397 1
 383  184  398 1
 384  185  399 1
 385  186  187 2
 386  186  202 1
 387  188  189 1
 388  188  400 1
 389  188  401 1
 390  188  402 1
 391  189  190 1
 392  189  403 1
 393  189  404 1
 394  190  191 1
 395  190  405 1
 396  190  406 1
 397  191  192 1
 398  191  407 1
 399  191  408 1
 400  192  193 1
 401  192  409 1
 402  192  410 1
 403  193  194 1
 404  193  411 1
 405  193  412 1
 406  194  195 1
 407  194  413 1
 408  194  414 1
 409  195  196 1
 410  195  415 1
 411  195  416 1
 412  196  197 1
 413  196  417 1
 414  196  418 1
 415  197  198 1
 416  197  419 1
 417  197  420 1
 418  198  199 1
 419  198  421 1
 420  198  422 1
 421  199  200 1
 422  199  423 1
 423  199  424 1
 424  200  201 1
 425  200  425 1
 426  200  426 1
 427  201  202 1
 428  201  427 1
 429  201  428 1
 430  202  429 1
 431  202  430 1

#	End of record

