#	Name: ASD01350046
#	Creating user name:	WinNT
#	Creation time:	15. 06. 2019 19:16

#	Modifying user name:	WinNT
#	Modification time:	15. 06. 2019 19:16

#	Program:	/corina/corina34_cracker 3.40 0067  02.08.2006

@<TRIPOS>MOLECULE
ASD01350046
  73   74    0    0    0
SMALL
NO_CHARGES


@<TRIPOS>ATOM
   1 C1             9.8718   -10.3829    -3.4451 C.3     
   2 C2             9.4206   -10.5888    -1.9977 C.3     
   3 C3             8.2561    -9.6462    -1.6874 C.3     
   4 C4             7.8050    -9.8521    -0.2400 C.3     
   5 C5             6.6405    -8.9095     0.0703 C.3     
   6 C6             6.1894    -9.1155     1.5177 C.3     
   7 C7             5.0249    -8.1728     1.8280 C.3     
   8 C8             4.5738    -8.3788     3.2754 C.3     
   9 C9             3.4093    -7.4361     3.5856 C.3     
  10 C10            2.9068    -7.7010     4.9815 C.2     
  11 C11            3.4578    -7.0834     6.0096 C.2     
  12 N12            1.8636    -8.5952     5.1861 N.pl3   
  13 C13            1.9820    -9.9783     4.7181 C.3     
  14 C14            2.5086   -10.8578     5.8539 C.3     
  15 C15            3.8817   -10.3440     6.2914 C.3     
  16 N16            1.5867   -10.7841     6.9841 N.am    
  17 C17            0.4757   -11.5465     7.0294 C.2     
  18 O18           -0.3087   -11.4381     7.9517 O.2     
  19 C19            0.2242   -12.5161     5.9416 C.ar    
  20 C20            1.2858   -12.8880     5.1130 C.ar    
  21 C21            2.6470   -12.2936     5.3531 C.3     
  22 C22            1.0756   -13.7889     4.0921 C.ar    
  23 C23           -0.1857   -14.3230     3.8909 C.ar    
  24 C24           -1.2404   -13.9579     4.7090 C.ar    
  25 C25           -1.0427   -13.0557     5.7356 C.ar    
  26 C26            0.6451    -8.1551     5.8700 C.3     
  27 C27           -0.3459    -7.6044     4.8425 C.3     
  28 N28           -1.5088    -7.0378     5.5386 N.3     
  29 C29           -2.3669    -6.2916     4.6086 C.3     
  30 C30           -2.2699    -8.0861     6.2312 C.3     
  31 H31           10.1936    -9.3505    -3.5819 H       
  32 H32           10.7014   -11.0544    -3.6661 H       
  33 H33            9.0417   -10.5970    -4.1183 H       
  34 H34            9.0988   -11.6212    -1.8608 H       
  35 H35           10.2507   -10.3748    -1.3244 H       
  36 H36            8.5780    -8.6138    -1.8242 H       
  37 H37            7.4261    -9.8603    -2.3606 H       
  38 H38            7.4832   -10.8845    -0.1031 H       
  39 H39            8.6351    -9.6381     0.4333 H       
  40 H40            6.9624    -7.8771    -0.0666 H       
  41 H41            5.8105    -9.1236    -0.6030 H       
  42 H42            5.8675   -10.1478     1.6545 H       
  43 H43            7.0194    -8.9014     2.1909 H       
  44 H44            5.3468    -7.1404     1.6911 H       
  45 H45            4.1948    -8.3869     1.1547 H       
  46 H46            4.2519    -9.4111     3.4122 H       
  47 H47            5.4038    -8.1647     3.9486 H       
  48 H48            3.7485    -6.4029     3.5116 H       
  49 H49            2.6039    -7.6062     2.8712 H       
  50 H50            3.0977    -7.2732     7.0099 H       
  51 H51            4.2689    -6.3882     5.8505 H       
  52 H52            1.0034   -10.3400     4.4023 H       
  53 H53            2.6734   -10.0192     3.8764 H       
  54 H54            3.7910    -9.3144     6.6375 H       
  55 H55            4.2619   -10.9672     7.1008 H       
  56 H56            4.5705   -10.3843     5.4476 H       
  57 H57            1.7770   -10.1755     7.7151 H       
  58 H58            3.2135   -12.2985     4.4219 H       
  59 H59            3.1747   -12.8875     6.0994 H       
  60 H60            1.8938   -14.0779     3.4492 H       
  61 H61           -0.3476   -15.0291     3.0899 H       
  62 H62           -2.2209   -14.3795     4.5440 H       
  63 H63           -1.8655   -12.7700     6.3741 H       
  64 H64            0.1957    -9.0002     6.3915 H       
  65 H65            0.8938    -7.3748     6.5894 H       
  66 H66            0.1381    -6.8269     4.2515 H       
  67 H67           -0.6729    -8.4100     4.1851 H       
  68 H68           -2.7208    -6.9606     3.8243 H       
  69 H69           -3.2201    -5.8828     5.1500 H       
  70 H70           -1.7963    -5.4774     4.1616 H       
  71 H71           -1.6290    -8.5767     6.9638 H       
  72 H72           -3.1253    -7.6394     6.7381 H       
  73 H73           -2.6204    -8.8202     5.5057 H       
@<TRIPOS>BOND
   1    1    2 1
   2    1   31 1
   3    1   32 1
   4    1   33 1
   5    2    3 1
   6    2   34 1
   7    2   35 1
   8    3    4 1
   9    3   36 1
  10    3   37 1
  11    4    5 1
  12    4   38 1
  13    4   39 1
  14    5    6 1
  15    5   40 1
  16    5   41 1
  17    6    7 1
  18    6   42 1
  19    6   43 1
  20    7    8 1
  21    7   44 1
  22    7   45 1
  23    8    9 1
  24    8   46 1
  25    8   47 1
  26    9   10 1
  27    9   48 1
  28    9   49 1
  29   10   11 2
  30   10   12 1
  31   11   50 1
  32   11   51 1
  33   12   13 1
  34   12   26 1
  35   13   14 1
  36   13   52 1
  37   13   53 1
  38   14   15 1
  39   14   16 1
  40   14   21 1
  41   15   54 1
  42   15   55 1
  43   15   56 1
  44   16   17 am
  45   16   57 1
  46   17   18 2
  47   17   19 1
  48   19   20 ar
  49   19   25 ar
  50   20   21 1
  51   20   22 ar
  52   21   58 1
  53   21   59 1
  54   22   23 ar
  55   22   60 1
  56   23   24 ar
  57   23   61 1
  58   24   25 ar
  59   24   62 1
  60   25   63 1
  61   26   27 1
  62   26   64 1
  63   26   65 1
  64   27   28 1
  65   27   66 1
  66   27   67 1
  67   28   29 1
  68   28   30 1
  69   29   68 1
  70   29   69 1
  71   29   70 1
  72   30   71 1
  73   30   72 1
  74   30   73 1

#	End of record

