#	Name: ASD03731545
#	Creating user name:	WinNT
#	Creation time:	15. 06. 2019 20:45

#	Modifying user name:	WinNT
#	Modification time:	15. 06. 2019 20:45

#	Program:	/corina/corina34_cracker 3.40 0067  02.08.2006

@<TRIPOS>MOLECULE
ASD03731545
  39   41    0    0    0
SMALL
NO_CHARGES


@<TRIPOS>ATOM
   1 C1             0.3597     1.1157     1.9241 C.2     
   2 C2             0.2801    -0.2663     1.4118 C.ar    
   3 C3             1.3672    -0.8261     0.7348 C.ar    
   4 C4             1.2890    -2.1165     0.2586 C.ar    
   5 C5             0.1298    -2.8615     0.4511 C.ar    
   6 C6            -0.9526    -2.3076     1.1238 C.ar    
   7 C7            -0.8799    -1.0199     1.6074 C.ar    
   8 O8             1.3718     1.7685     1.7574 O.2     
   9 N9            -0.6916     1.6559     2.5718 N.am    
  10 O10            0.0558    -4.1323    -0.0197 O.3     
  11 C11           -1.3738    -5.5554     1.1953 C.ar    
  12 C12           -1.1299    -4.7862     0.0927 C.ar    
  13 C13           -2.0848    -4.6627    -0.9213 C.ar    
  14 C14           -3.2811    -5.3042    -0.8368 C.ar    
  15 C15           -3.5657    -6.1040     0.2835 C.ar    
  16 C16           -4.7917    -6.7803     0.4032 C.ar    
  17 C17           -5.0343    -7.5461     1.5018 C.ar    
  18 C18           -4.0840    -7.6714     2.5137 C.ar    
  19 C19           -2.8857    -7.0314     2.4325 C.ar    
  20 C20           -2.5989    -6.2312     1.3127 C.ar    
  21 S21           -0.6023     3.2063     3.1466 S.o2    
  22 O22           -1.8572     3.4185     3.7787 O.2     
  23 O23            0.6074     3.2348     3.8916 O.2     
  24 C24           -0.4576     4.2332     1.6583 C.3     
  25 Cl25           2.6380    -2.8135    -0.5830 Cl      
  26 H26            2.2670    -0.2479     0.5849 H       
  27 H27           -1.8509    -2.8888     1.2709 H       
  28 H28           -1.7202    -0.5918     2.1336 H       
  29 H29           -1.5005     1.1364     2.7013 H       
  30 H30           -0.6267    -5.6467     1.9699 H       
  31 H31           -1.8695    -4.0490    -1.7835 H       
  32 H32           -4.0096    -5.1993    -1.6271 H       
  33 H33           -5.5379    -6.6925    -0.3726 H       
  34 H34           -5.9776    -8.0644     1.5911 H       
  35 H35           -4.3019    -8.2851     3.3752 H       
  36 H36           -2.1590    -7.1374     3.2244 H       
  37 H37           -1.3332     4.0832     1.0268 H       
  38 H38           -0.3925     5.2826     1.9458 H       
  39 H39            0.4400     3.9510     1.1080 H       
@<TRIPOS>BOND
   1    1    2 1
   2    1    8 2
   3    1    9 am
   4    2    3 ar
   5    2    7 ar
   6    3    4 ar
   7    3   26 1
   8    4    5 ar
   9    4   25 1
  10    5    6 ar
  11    5   10 1
  12    6    7 ar
  13    6   27 1
  14    7   28 1
  15    9   21 am
  16    9   29 1
  17   10   12 1
  18   11   12 ar
  19   11   20 ar
  20   11   30 1
  21   12   13 ar
  22   13   14 ar
  23   13   31 1
  24   14   15 ar
  25   14   32 1
  26   15   16 ar
  27   15   20 ar
  28   16   17 ar
  29   16   33 1
  30   17   18 ar
  31   17   34 1
  32   18   19 ar
  33   18   35 1
  34   19   20 ar
  35   19   36 1
  36   21   22 2
  37   21   23 2
  38   21   24 1
  39   24   37 1
  40   24   38 1
  41   24   39 1

#	End of record

