#	Name: ASD05490052
#	Creating user name:	WinNT
#	Creation time:	15. 06. 2019 21:01

#	Modifying user name:	WinNT
#	Modification time:	15. 06. 2019 21:01

#	Program:	/corina/corina34_cracker 3.40 0067  02.08.2006

@<TRIPOS>MOLECULE
ASD05490052
  30   31    0    0    0
SMALL
NO_CHARGES


@<TRIPOS>ATOM
   1 N1            -0.0166     1.3709     0.0096 N.pl3   
   2 O2            -1.5685    -3.1666    -0.0012 O.3     
   3 N3             0.6747    -2.6247    -0.0185 N.ar    
   4 C4             1.6700    -1.7440    -0.0233 C.ar    
   5 C5            -0.5897    -2.2292    -0.0050 C.ar    
   6 N6            -0.9295    -0.9520     0.0054 N.ar    
   7 C7             0.0021    -0.0041     0.0020 C.ar    
   8 C8             1.3557    -0.3756    -0.0129 C.ar    
   9 N9             2.9889    -2.1669    -0.0377 N.pl3   
  10 C10            1.2818     1.7983    -0.0005 C.2     
  11 N11            2.0871     0.7689    -0.0137 N.2     
  12 C12           -1.1564    -4.5349    -0.0120 C.3     
  13 C13           -2.3904    -5.4393    -0.0057 C.3     
  14 O14           -3.1222    -5.2552    -1.2192 O.3     
  15 C15           -4.3003    -6.0583    -1.3151 C.3     
  16 O16            1.6747     3.0937     0.0027 O.3     
  17 C17            3.0814     3.3450    -0.0089 C.3     
  18 H18           -0.8062     1.9342     0.0165 H       
  19 H19            3.1941    -3.1149    -0.0444 H       
  20 H20            3.7072    -1.5151    -0.0410 H       
  21 H21           -0.5676    -4.7299    -0.9084 H       
  22 H22           -0.5516    -4.7392     0.8715 H       
  23 H23           -2.0776    -6.4803     0.0756 H       
  24 H24           -3.0243    -5.1830     0.8432 H       
  25 H25           -4.9738    -5.8149    -0.4934 H       
  26 H26           -4.7986    -5.8604    -2.2641 H       
  27 H27           -4.0270    -7.1121    -1.2610 H       
  28 H28            3.2584     4.4205    -0.0048 H       
  29 H29            3.5375     2.8984     0.8747 H       
  30 H30            3.5213     2.9077    -0.9052 H       
@<TRIPOS>BOND
   1    1    7 1
   2    1   10 1
   3    1   18 1
   4    2   12 1
   5    2    5 1
   6    3    4 ar
   7    3    5 ar
   8    4    9 1
   9    4    8 ar
  10    5    6 ar
  11    6    7 ar
  12    7    8 ar
  13    8   11 1
  14    9   19 1
  15    9   20 1
  16   10   11 2
  17   10   16 1
  18   12   13 1
  19   12   21 1
  20   12   22 1
  21   13   14 1
  22   13   23 1
  23   13   24 1
  24   14   15 1
  25   15   25 1
  26   15   26 1
  27   15   27 1
  28   16   17 1
  29   17   28 1
  30   17   29 1
  31   17   30 1

#	End of record

