#	Name: ASD00310225
#	Creating user name:	WinNT
#	Creation time:	15. 06. 2019 18:34

#	Modifying user name:	WinNT
#	Modification time:	15. 06. 2019 18:34

#	Program:	/corina/corina34_cracker 3.40 0067  02.08.2006

@<TRIPOS>MOLECULE
ASD00310225
  44   47    0    0    0
SMALL
NO_CHARGES


@<TRIPOS>ATOM
   1 N1            -0.0171     1.3581     0.0648 N.pl3   
   2 C2            -0.0007     0.0279     0.3199 C.2     
   3 C3             1.2883    -0.4053     0.4293 C.2     
   4 C4             2.1454     0.7776     0.2205 C.ar    
   5 C5             3.5210     0.9809     0.2091 C.ar    
   6 C6             4.0246     2.2539    -0.0249 C.ar    
   7 C7             3.1489     3.3234    -0.2477 C.ar    
   8 C8             1.7863     3.1238    -0.2368 C.ar    
   9 C9             1.2691     1.8523    -0.0033 C.ar    
  10 C10            1.7343    -1.7765     0.7010 C.2     
  11 O11            2.9222    -2.0263     0.7738 O.2     
  12 O12            0.8270    -2.7596     0.8701 O.3     
  13 C13            5.4908     2.4807    -0.0384 C.ar    
  14 C14            6.0820     3.1649    -1.0979 C.ar    
  15 C15            7.4511     3.3738    -1.1045 C.ar    
  16 C16            8.2306     2.9013    -0.0572 C.ar    
  17 C17            7.6445     2.2220     0.9940 C.ar    
  18 C18            6.2796     2.0147     1.0117 C.ar    
  19 O19            8.0317     4.0409    -2.1364 O.3     
  20 C20            7.1695     4.4984    -3.1801 C.3     
  21 C21            9.7202     3.1295    -0.0670 C.3     
  22 C22           10.4098     2.6414    -1.3520 C.3     
  23 C23           11.2743     3.9109    -1.2766 C.3     
  24 C24           10.1225     4.5535    -0.4859 C.3     
  25 O25           10.3581     2.6815     1.1306 O.3     
  26 F26            3.6440     4.5598    -0.4745 F       
  27 H27           -0.8204     1.8880    -0.0569 H       
  28 H28           -0.8765    -0.5959     0.4216 H       
  29 H29            4.1938     0.1538     0.3817 H       
  30 H30            1.1181     3.9545    -0.4093 H       
  31 H31            1.1687    -3.6467     1.0470 H       
  32 H32            5.4745     3.5312    -1.9122 H       
  33 H33            8.2553     1.8561     1.8061 H       
  34 H34            5.8239     1.4877     1.8369 H       
  35 H35            6.6612     3.6462    -3.6313 H       
  36 H36            6.4306     5.1847    -2.7664 H       
  37 H37            7.7589     5.0133    -3.9388 H       
  38 H38           10.9758     1.7192    -1.2204 H       
  39 H39            9.7492     2.6137    -2.2186 H       
  40 H40           12.1866     3.7839    -0.6938 H       
  41 H41           11.4515     4.3766    -2.2461 H       
  42 H42            9.3834     5.0486    -1.1156 H       
  43 H43           10.4567     5.1750     0.3449 H       
  44 H44            9.9428     3.0044     1.9419 H       
@<TRIPOS>BOND
   1    1    2 1
   2    1    9 1
   3    1   27 1
   4    2    3 2
   5    2   28 1
   6    3    4 1
   7    3   10 1
   8    4    5 ar
   9    4    9 ar
  10    5    6 ar
  11    5   29 1
  12    6    7 ar
  13    6   13 1
  14    7    8 ar
  15    7   26 1
  16    8    9 ar
  17    8   30 1
  18   10   11 2
  19   10   12 1
  20   12   31 1
  21   13   14 ar
  22   13   18 ar
  23   14   15 ar
  24   14   32 1
  25   15   16 ar
  26   15   19 1
  27   16   17 ar
  28   16   21 1
  29   17   18 ar
  30   17   33 1
  31   18   34 1
  32   19   20 1
  33   20   35 1
  34   20   36 1
  35   20   37 1
  36   21   22 1
  37   21   24 1
  38   21   25 1
  39   22   23 1
  40   22   38 1
  41   22   39 1
  42   23   24 1
  43   23   40 1
  44   23   41 1
  45   24   42 1
  46   24   43 1
  47   25   44 1

#	End of record

