#	Name: ASD00071025
#	Creating user name:	WinNT
#	Creation time:	15. 06. 2019 18:30

#	Modifying user name:	WinNT
#	Modification time:	15. 06. 2019 18:30

#	Program:	/corina/corina34_cracker 3.40 0067  02.08.2006

@<TRIPOS>MOLECULE
ASD00071025
  39   42    0    0    0
SMALL
NO_CHARGES


@<TRIPOS>ATOM
   1 N1            -0.0539     1.2607    -0.3911 N.ar    
   2 C2            -0.0207    -0.0455    -0.2249 C.ar    
   3 C3             1.1911    -0.7485    -0.1823 C.ar    
   4 C4             2.3703    -0.0782    -0.3159 C.ar    
   5 C5             2.3285     1.3190    -0.4945 C.ar    
   6 C6             3.5060     2.0688    -0.6407 C.ar    
   7 C7             3.4329     3.4214    -0.8099 C.ar    
   8 C8             2.1885     4.0721    -0.8389 C.ar    
   9 C9             1.0280     3.3648    -0.7002 C.ar    
  10 C10            1.0719     1.9726    -0.5265 C.ar    
  11 O11            2.4052     5.4087    -1.0166 O.3     
  12 C12            3.7530     5.5187    -1.5095 C.3     
  13 O13            4.4139     4.3585    -0.9720 O.3     
  14 N14           -1.2133    -0.7418    -0.0882 N.pl3   
  15 C15            1.1902    -2.2430     0.0115 C.3     
  16 C16            2.5976    -2.7668    -0.1148 C.ar    
  17 C17            3.3893    -2.9043     1.0118 C.ar    
  18 C18            4.6826    -3.3851     0.8949 C.ar    
  19 C19            5.1847    -3.7284    -0.3467 C.ar    
  20 C20            4.3974    -3.5931    -1.4735 C.ar    
  21 C21            3.0989    -3.1169    -1.3594 C.ar    
  22 O22            2.3217    -2.9882    -2.4667 O.3     
  23 C23            2.9035    -3.3678    -3.7155 C.3     
  24 F24            2.9006    -2.5689     2.2258 F       
  25 H25            3.3128    -0.6046    -0.2855 H       
  26 H26            4.4673     1.5770    -0.6189 H       
  27 H27            0.0772     3.8766    -0.7243 H       
  28 H28            3.7647     5.4949    -2.5992 H       
  29 H29            4.2218     6.4310    -1.1408 H       
  30 H30           -2.0531    -0.2594    -0.0340 H       
  31 H31           -1.2072    -1.7109    -0.0470 H       
  32 H32            0.8015    -2.4808     1.0017 H       
  33 H33            0.5602    -2.7074    -0.7472 H       
  34 H34            5.3000    -3.4918     1.7746 H       
  35 H35            6.1939    -4.1026    -0.4356 H       
  36 H36            4.7910    -3.8613    -2.4428 H       
  37 H37            2.1786    -3.2160    -4.5152 H       
  38 H38            3.7868    -2.7579    -3.9051 H       
  39 H39            3.1890    -4.4191    -3.6786 H       
@<TRIPOS>BOND
   1    1    2 ar
   2    1   10 ar
   3    2    3 ar
   4    2   14 1
   5    3    4 ar
   6    3   15 1
   7    4    5 ar
   8    4   25 1
   9    5    6 ar
  10    5   10 ar
  11    6    7 ar
  12    6   26 1
  13    7    8 ar
  14    7   13 1
  15    8    9 ar
  16    8   11 1
  17    9   10 ar
  18    9   27 1
  19   11   12 1
  20   12   13 1
  21   12   28 1
  22   12   29 1
  23   14   30 1
  24   14   31 1
  25   15   16 1
  26   15   32 1
  27   15   33 1
  28   16   17 ar
  29   16   21 ar
  30   17   18 ar
  31   17   24 1
  32   18   19 ar
  33   18   34 1
  34   19   20 ar
  35   19   35 1
  36   20   21 ar
  37   20   36 1
  38   21   22 1
  39   22   23 1
  40   23   37 1
  41   23   38 1
  42   23   39 1

#	End of record

