#	Name: ASD00310166
#	Creating user name:	WinNT
#	Creation time:	15. 06. 2019 18:33

#	Modifying user name:	WinNT
#	Modification time:	15. 06. 2019 18:33

#	Program:	/corina/corina34_cracker 3.40 0067  02.08.2006

@<TRIPOS>MOLECULE
ASD00310166
  20   20    0    0    0
SMALL
NO_CHARGES


@<TRIPOS>ATOM
   1 C1             0.0021    -0.0041     0.0020 C.1     
   2 C2            -0.0179     1.4678     0.0101 C.3     
   3 N3             0.0175    -1.1399    -0.0042 N.1     
   4 C4             1.3959     1.9894    -0.0006 C.ar    
   5 C5             2.0720     2.1379    -1.2032 C.ar    
   6 C6             3.3731     2.6181    -1.2102 C.ar    
   7 C7             3.9932     2.9477    -0.0193 C.ar    
   8 C8             3.3169     2.7981     1.1781 C.ar    
   9 C9             2.0175     2.3253     1.1863 C.ar    
  10 O10            1.4603     1.8128    -2.3724 O.3     
  11 C11            2.2165     1.9912    -3.5717 C.3     
  12 Br12           5.7672     3.6025    -0.0272 Br      
  13 H13           -0.5451     1.8289    -0.8729 H       
  14 H14           -0.5281     1.8193     0.9069 H       
  15 H15            3.9014     2.7342    -2.1450 H       
  16 H16            3.8028     3.0557     2.1076 H       
  17 H17            1.4898     2.2140     2.1220 H       
  18 H18            1.6125     1.6953    -4.4295 H       
  19 H19            2.4991     3.0393    -3.6706 H       
  20 H20            3.1147     1.3751    -3.5299 H       
@<TRIPOS>BOND
   1    1    2 1
   2    1    3 3
   3    2    4 1
   4    2   13 1
   5    2   14 1
   6    4    5 ar
   7    4    9 ar
   8    5    6 ar
   9    5   10 1
  10    6    7 ar
  11    6   15 1
  12    7    8 ar
  13    7   12 1
  14    8    9 ar
  15    8   16 1
  16    9   17 1
  17   10   11 1
  18   11   18 1
  19   11   19 1
  20   11   20 1

#	End of record

