#	Name: ASD01148476
#	Creating user name:	WinNT
#	Creation time:	15. 06. 2019 19:02

#	Modifying user name:	WinNT
#	Modification time:	15. 06. 2019 19:02

#	Program:	/corina/corina34_cracker 3.40 0067  02.08.2006

@<TRIPOS>MOLECULE
ASD01148476
  59   61    0    0    0
SMALL
NO_CHARGES


@<TRIPOS>ATOM
   1 C1             0.3639     1.8405     0.0686 C.ar    
   2 C2             0.4622     0.4637    -0.0065 C.ar    
   3 C3            -0.6818    -0.3072    -0.0939 C.ar    
   4 C4            -1.9243     0.2986    -0.1059 C.ar    
   5 C5            -2.0227     1.6754    -0.0299 C.ar    
   6 C6            -0.8788     2.4460     0.0620 C.ar    
   7 C7            -3.3772     2.3359    -0.0433 C.3     
   8 O8            -4.3695     1.4912     0.5741 O.3     
   9 C9            -3.3982     3.5753     0.8828 C.3     
  10 C10           -3.9251     3.0045     2.1856 C.2     
  11 N11           -4.4451     1.8488     1.9400 N.2     
  12 C12           -3.8550     3.6580     3.5073 C.ar    
  13 C13           -4.3821     3.0181     4.6321 C.ar    
  14 C14           -3.2565     4.9139     3.6347 C.ar    
  15 C15           -3.1912     5.5233     4.8675 C.ar    
  16 C16           -3.7228     4.8859     5.9908 C.ar    
  17 C17           -4.3167     3.6276     5.8644 C.ar    
  18 C18           -3.6518     5.5399     7.3143 C.2     
  19 O19           -4.2107     5.0390     8.2705 O.2     
  20 N20           -2.9673     6.6916     7.4610 N.am    
  21 C21           -4.8907     2.9402     7.0764 C.3     
  22 C22           -3.7868     2.7097    -1.4693 C.3     
  23 F23           -3.8258     1.5567    -2.2607 F       
  24 F24           -5.0527     3.3050    -1.4499 F       
  25 F25           -2.8566     3.6092    -2.0011 F       
  26 C26           -2.8969     7.3398     8.7729 C.3     
  27 C27           -2.0790     8.6011     8.6667 C.2     
  28 N28           -1.8777     9.3675     9.7569 N.am    
  29 O29           -1.6019     8.9265     7.6002 O.2     
  30 C30           -1.0825    10.5936     9.6537 C.3     
  31 C31           -1.0090    11.2706    11.0239 C.3     
  32 F32           -0.4092    10.4017    11.9417 F       
  33 F33           -0.2497    12.4414    10.9253 F       
  34 F34           -2.3008    11.5876    11.4573 F       
  35 C35            1.6111     2.6809     0.1639 C.3     
  36 F36            2.7357     1.8487     0.1589 F       
  37 F37            1.6709     3.5523    -0.9289 F       
  38 F38            1.5847     3.4219     1.3503 F       
  39 C39           -0.5746    -1.8081    -0.1768 C.3     
  40 F40            0.7733    -2.1816    -0.1479 F       
  41 F41           -1.2414    -2.3840     0.9099 F       
  42 F42           -1.1561    -2.2521    -1.3693 F       
  43 H43            1.4329    -0.0097     0.0029 H       
  44 H44           -2.8181    -0.3036    -0.1749 H       
  45 H45           -0.9556     3.5217     0.1214 H       
  46 H46           -2.3934     3.9769     1.0146 H       
  47 H47           -4.0728     4.3379     0.4935 H       
  48 H48           -4.8412     2.0454     4.5345 H       
  49 H49           -2.8447     5.4065     2.7663 H       
  50 H50           -2.7285     6.4942     4.9661 H       
  51 H51           -2.5213     7.0913     6.6980 H       
  52 H52           -5.8980     3.3128     7.2624 H       
  53 H53           -4.9276     1.8651     6.9010 H       
  54 H54           -4.2617     3.1456     7.9426 H       
  55 H55           -3.9034     7.5868     9.1106 H       
  56 H56           -2.4296     6.6628     9.4880 H       
  57 H57           -2.2593     9.1072    10.6099 H       
  58 H58           -0.0760    10.3466     9.3160 H       
  59 H59           -1.5499    11.2706     8.9386 H       
@<TRIPOS>BOND
   1    1    2 ar
   2    1   35 1
   3    1    6 ar
   4    2    3 ar
   5    2   43 1
   6    3    4 ar
   7    3   39 1
   8    4    5 ar
   9    4   44 1
  10    5    6 ar
  11    5    7 1
  12    6   45 1
  13    7    8 1
  14    7    9 1
  15    7   22 1
  16    8   11 1
  17    9   10 1
  18    9   46 1
  19    9   47 1
  20   10   11 2
  21   10   12 1
  22   12   13 ar
  23   12   14 ar
  24   13   17 ar
  25   13   48 1
  26   14   15 ar
  27   14   49 1
  28   15   16 ar
  29   15   50 1
  30   16   17 ar
  31   16   18 1
  32   17   21 1
  33   18   19 2
  34   18   20 am
  35   20   26 1
  36   20   51 1
  37   21   52 1
  38   21   53 1
  39   21   54 1
  40   22   23 1
  41   22   24 1
  42   22   25 1
  43   26   27 1
  44   26   55 1
  45   26   56 1
  46   27   29 2
  47   27   28 am
  48   28   30 1
  49   28   57 1
  50   30   31 1
  51   30   58 1
  52   30   59 1
  53   31   32 1
  54   31   33 1
  55   31   34 1
  56   35   36 1
  57   35   37 1
  58   35   38 1
  59   39   40 1
  60   39   41 1
  61   39   42 1

#	End of record

