#	Name: ASD00311481
#	Creating user name:	WinNT
#	Creation time:	15. 06. 2019 18:34

#	Modifying user name:	WinNT
#	Modification time:	15. 06. 2019 18:34

#	Program:	/corina/corina34_cracker 3.40 0067  02.08.2006

@<TRIPOS>MOLECULE
ASD00311481
  48   52    0    0    0
SMALL
NO_CHARGES


@<TRIPOS>ATOM
   1 C1            -0.0167     1.3777     0.0096 C.2     
   2 C2             0.0021    -0.0041     0.0020 C.2     
   3 C3             1.2588    -0.6767    -0.0136 C.2     
   4 C4             2.4315     0.0672    -0.0208 C.2     
   5 C5             2.3574     1.4751    -0.0126 C.2     
   6 N6             1.1648     2.0902     0.0022 N.am    
   7 C7            -1.3433    -0.5752     0.0123 C.2     
   8 C8            -2.3228     0.3262     0.0268 C.2     
   9 S9            -1.6792     1.9562     0.0358 S.3     
  10 O10            3.3823     2.1372    -0.0184 O.2     
  11 C11            4.1347    -1.3829    -1.1328 C.ar    
  12 C12            3.7477    -0.6121    -0.0366 C.ar    
  13 C13            4.6232    -0.4910     1.0472 C.ar    
  14 C14            5.8414    -1.1451     0.9831 C.ar    
  15 C15            6.1511    -1.8905    -0.1398 C.ar    
  16 N16            5.3050    -1.9867    -1.1475 N.ar    
  17 C17           -2.0690    -4.7662    -0.0062 C.ar    
  18 C18           -2.7056    -3.9525     0.9309 C.ar    
  19 C19           -2.4705    -2.5956     0.9375 C.ar    
  20 C20           -1.5956    -2.0347     0.0062 C.ar    
  21 C21           -0.9589    -2.8492    -0.9312 C.ar    
  22 C22           -1.1942    -4.2060    -0.9369 C.ar    
  23 C23           -2.3177    -6.2282    -0.0090 C.ar    
  24 C24           -1.6830    -7.0441    -0.9443 C.ar    
  25 C25           -1.9179    -8.4038    -0.9419 C.ar    
  26 C26           -2.7813    -8.9577    -0.0136 C.ar    
  27 C27           -3.4139    -8.1531     0.9167 C.ar    
  28 C28           -3.1825    -6.7924     0.9271 C.ar    
  29 C29           -1.2329    -9.2871    -1.9527 C.3     
  30 O30            1.3087    -2.0292    -0.0209 O.3     
  31 H31            1.1326     3.0597     0.0077 H       
  32 H32           -3.3754     0.0847     0.0360 H       
  33 H33            3.4670    -1.4891    -1.9750 H       
  34 H34            4.3558     0.0982     1.9120 H       
  35 H35            6.5428    -1.0738     1.8013 H       
  36 H36            7.1008    -2.4020    -0.1928 H       
  37 H37           -3.3832    -4.3866     1.6512 H       
  38 H38           -2.9637    -1.9656     1.6629 H       
  39 H39           -0.2815    -2.4155    -1.6519 H       
  40 H40           -0.7015    -4.8365    -1.6623 H       
  41 H41           -1.0090    -6.6127    -1.6697 H       
  42 H42           -2.9625   -10.0224    -0.0157 H       
  43 H43           -4.0869    -8.5909     1.6390 H       
  44 H44           -3.6737    -6.1656     1.6566 H       
  45 H45           -0.2827    -9.6345    -1.5469 H       
  46 H46           -1.8680   -10.1444    -2.1756 H       
  47 H47           -1.0525    -8.7212    -2.8667 H       
  48 H48            2.2060    -2.3896    -0.0315 H       
@<TRIPOS>BOND
   1    1    2 2
   2    1    6 1
   3    1    9 1
   4    2    3 1
   5    2    7 1
   6    3    4 2
   7    3   30 1
   8    4    5 1
   9    4   12 1
  10    5    6 am
  11    5   10 2
  12    6   31 1
  13    7    8 2
  14    7   20 1
  15    8    9 1
  16    8   32 1
  17   11   12 ar
  18   11   16 ar
  19   11   33 1
  20   12   13 ar
  21   13   14 ar
  22   13   34 1
  23   14   15 ar
  24   14   35 1
  25   15   16 ar
  26   15   36 1
  27   17   18 ar
  28   17   22 ar
  29   17   23 1
  30   18   19 ar
  31   18   37 1
  32   19   20 ar
  33   19   38 1
  34   20   21 ar
  35   21   22 ar
  36   21   39 1
  37   22   40 1
  38   23   24 ar
  39   23   28 ar
  40   24   25 ar
  41   24   41 1
  42   25   26 ar
  43   25   29 1
  44   26   27 ar
  45   26   42 1
  46   27   28 ar
  47   27   43 1
  48   28   44 1
  49   29   45 1
  50   29   46 1
  51   29   47 1
  52   30   48 1

#	End of record

