#	Name: ASD01816737
#	Creating user name:	WinNT
#	Creation time:	15. 06. 2019 19:35

#	Modifying user name:	WinNT
#	Modification time:	15. 06. 2019 19:35

#	Program:	/corina/corina34_cracker 3.40 0067  02.08.2006

@<TRIPOS>MOLECULE
ASD01816737
  59   62    0    0    0
SMALL
NO_CHARGES


@<TRIPOS>ATOM
   1 C1            -0.0167     1.3960     0.0157 C.2     
   2 C2             0.0025    -0.0052    -0.0025 C.2     
   3 C3             1.1989    -0.6602    -0.0248 C.2     
   4 C4             2.3921     0.0815    -0.0292 C.2     
   5 N5             2.3439     1.4491    -0.0107 N.am    
   6 C6             1.1421     2.0927     0.0111 C.2     
   7 C7             3.6230    -0.5886    -0.0521 C.2     
   8 C8             4.7879     0.1231    -0.0565 C.2     
   9 C9             4.7340     1.5284    -0.0380 C.2     
  10 C10            3.4813     2.1731    -0.0149 C.2     
  11 C11            3.6604    -2.0950    -0.0712 C.3     
  12 O12            3.4256     3.3913     0.0013 O.2     
  13 C13            5.9710     2.3159    -0.0418 C.2     
  14 N14            7.1647     1.6963     0.0459 N.am    
  15 O15            5.9198     3.5292    -0.1241 O.2     
  16 N16            3.7770    -2.5644    -1.4583 N.3     
  17 C17            4.0539    -4.0068    -1.5047 C.3     
  18 C18            4.0889    -4.4702    -2.9630 C.3     
  19 N19            5.1194    -3.7154    -3.6896 N.3     
  20 C20            4.8424    -2.2729    -3.6432 C.3     
  21 C21            4.8075    -1.8095    -2.1849 C.3     
  22 C22            5.2298    -4.1601    -5.0039 C.ar    
  23 C23            6.1542    -3.5703    -5.8610 C.ar    
  24 C24            6.2660    -4.0076    -7.1614 C.ar    
  25 C25            5.4500    -5.0458    -7.6207 C.ar    
  26 C26            4.5228    -5.6363    -6.7568 C.ar    
  27 C27            4.4196    -5.1974    -5.4562 C.ar    
  28 C28            8.4025     2.4710    -0.0711 C.3     
  29 C29            8.7701     3.0545     1.2947 C.3     
  30 C30            9.5310     1.5590    -0.5565 C.3     
  31 C31            5.5633    -5.5030    -8.9730 C.1     
  32 N32            5.6531    -5.8657   -10.0458 N.1     
  33 H33           -0.9603     1.9212     0.0290 H       
  34 H34           -0.9228    -0.5622     0.0015 H       
  35 H35            1.2286    -1.7397    -0.0387 H       
  36 H36            1.1154     3.1723     0.0255 H       
  37 H37            5.7397    -0.3869    -0.0738 H       
  38 H38            4.5179    -2.4445     0.5038 H       
  39 H39            2.7436    -2.4869     0.3691 H       
  40 H40            7.2041     0.7373     0.1865 H       
  41 H41            5.0175    -4.2074    -1.0362 H       
  42 H42            3.2706    -4.5449    -0.9709 H       
  43 H43            4.3229    -5.5341    -3.0010 H       
  44 H44            3.1168    -4.2947    -3.4238 H       
  45 H45            5.6258    -1.7348    -4.1770 H       
  46 H46            3.8789    -2.0724    -4.1117 H       
  47 H47            4.5735    -0.7456    -2.1469 H       
  48 H48            5.7795    -1.9851    -1.7241 H       
  49 H49            6.7842    -2.7683    -5.5056 H       
  50 H50            6.9830    -3.5491    -7.8263 H       
  51 H51            3.8907    -6.4383    -7.1085 H       
  52 H52            3.7039    -5.6533    -4.7882 H       
  53 H53            8.2577     3.2815    -0.7854 H       
  54 H54            7.9661     3.7042     1.6405 H       
  55 H55            8.9149     2.2439     2.0090 H       
  56 H56            9.6911     3.6309     1.2076 H       
  57 H57            9.2692     1.1433    -1.5295 H       
  58 H58           10.4520     2.1354    -0.6436 H       
  59 H59            9.6758     0.7485     0.1578 H       
@<TRIPOS>BOND
   1    1    2 1
   2    1    6 2
   3    1   33 1
   4    2    3 2
   5    2   34 1
   6    3    4 1
   7    3   35 1
   8    4    5 1
   9    4    7 2
  10    5    6 1
  11    5   10 am
  12    6   36 1
  13    7    8 1
  14    7   11 1
  15    8    9 2
  16    8   37 1
  17    9   10 1
  18    9   13 1
  19   10   12 2
  20   11   16 1
  21   11   38 1
  22   11   39 1
  23   13   15 2
  24   13   14 am
  25   14   28 1
  26   14   40 1
  27   16   17 1
  28   16   21 1
  29   17   18 1
  30   17   41 1
  31   17   42 1
  32   18   19 1
  33   18   43 1
  34   18   44 1
  35   19   20 1
  36   19   22 1
  37   20   21 1
  38   20   45 1
  39   20   46 1
  40   21   47 1
  41   21   48 1
  42   22   23 ar
  43   22   27 ar
  44   23   24 ar
  45   23   49 1
  46   24   25 ar
  47   24   50 1
  48   25   26 ar
  49   25   31 1
  50   26   27 ar
  51   26   51 1
  52   27   52 1
  53   28   29 1
  54   28   30 1
  55   28   53 1
  56   29   54 1
  57   29   55 1
  58   29   56 1
  59   30   57 1
  60   30   58 1
  61   30   59 1
  62   31   32 3

#	End of record

