#	Name: ASD01948220
#	Creating user name:	WinNT
#	Creation time:	15. 06. 2019 20:14

#	Modifying user name:	WinNT
#	Modification time:	15. 06. 2019 20:14

#	Program:	/corina/corina34_cracker 3.40 0067  02.08.2006

@<TRIPOS>MOLECULE
ASD01948220
  44   47    0    0    0
SMALL
NO_CHARGES


@<TRIPOS>ATOM
   1 C1            -0.0123     1.3051    -0.4823 C.ar    
   2 C2             0.0502    -0.0641    -0.3272 C.ar    
   3 C3             1.2716    -0.6833    -0.0602 C.ar    
   4 N4             2.3804     0.0417     0.0461 N.ar    
   5 C5             2.3707     1.3550    -0.0946 C.ar    
   6 C6             1.1722     2.0409    -0.3643 C.ar    
   7 C7            -0.9817    -1.1585    -0.3818 C.3     
   8 N8            -0.2722    -2.4154    -0.1329 N.am    
   9 C9             1.0313    -2.1425     0.0536 C.2     
  10 C10            4.8245     0.0141    -0.0697 C.ar    
  11 C11            4.7682     1.3829     0.1528 C.ar    
  12 N12            3.5526     2.0646     0.0260 N.pl3   
  13 C13            6.0260    -0.6567     0.0566 C.ar    
  14 C14            7.1726     0.0337     0.4048 C.ar    
  15 C15            7.1216     1.3985     0.6271 C.ar    
  16 C16            5.9228     2.0757     0.5025 C.ar    
  17 F17            5.8728     3.4082     0.7195 F       
  18 I18            8.9909    -0.9892     0.5960 I       
  19 O19            1.8889    -2.9720     0.2824 O.2     
  20 C20            1.1646     3.5087    -0.5213 C.2     
  21 O21            2.1898     4.1425    -0.3619 O.2     
  22 N22            0.0211     4.1463    -0.8413 N.am    
  23 O23            0.0138     5.5543    -0.9919 O.3     
  24 C24           -1.2642     6.0959    -1.3315 C.3     
  25 C25           -1.1541     7.6158    -1.4680 C.3     
  26 O26           -0.3032     7.9346    -2.5709 O.3     
  27 C27           -2.3992    -0.9356     0.1420 C.3     
  28 C28           -2.1528    -1.0935    -1.3603 C.3     
  29 H29           -0.9507     1.7963    -0.6937 H       
  30 H30           -0.6753    -3.2973    -0.1066 H       
  31 H31            3.9290    -0.5272    -0.3369 H       
  32 H32            3.5385     3.0345     0.0226 H       
  33 H33            6.0696    -1.7218    -0.1165 H       
  34 H34            8.0186     1.9348     0.8993 H       
  35 H35           -0.7969     3.6407    -0.9685 H       
  36 H36           -1.5999     5.6696    -2.2768 H       
  37 H37           -1.9818     5.8525    -0.5480 H       
  38 H38           -2.1443     8.0380    -1.6392 H       
  39 H39           -0.7344     8.0333    -0.5528 H       
  40 H40           -0.1875     8.8835    -2.7170 H       
  41 H41           -2.8793    -1.7638     0.6632 H       
  42 H42           -2.6494     0.0597     0.5092 H       
  43 H43           -2.2410    -0.2021    -1.9813 H       
  44 H44           -2.4708    -2.0256    -1.8273 H       
@<TRIPOS>BOND
   1    1    2 ar
   2    1    6 ar
   3    1   29 1
   4    2    3 ar
   5    2    7 1
   6    3    4 ar
   7    3    9 1
   8    4    5 ar
   9    5    6 ar
  10    5   12 1
  11    6   20 1
  12    7    8 1
  13    7   27 1
  14    7   28 1
  15    8    9 am
  16    8   30 1
  17    9   19 2
  18   10   11 ar
  19   10   13 ar
  20   10   31 1
  21   11   12 1
  22   11   16 ar
  23   12   32 1
  24   13   14 ar
  25   13   33 1
  26   14   15 ar
  27   14   18 1
  28   15   16 ar
  29   15   34 1
  30   16   17 1
  31   20   21 2
  32   20   22 am
  33   22   23 1
  34   22   35 1
  35   23   24 1
  36   24   25 1
  37   24   36 1
  38   24   37 1
  39   25   26 1
  40   25   38 1
  41   25   39 1
  42   26   40 1
  43   27   28 1
  44   27   41 1
  45   27   42 1
  46   28   43 1
  47   28   44 1

#	End of record

