#	Name: ASD01917722
#	Creating user name:	WinNT
#	Creation time:	15. 06. 2019 20:09

#	Modifying user name:	WinNT
#	Modification time:	15. 06. 2019 20:09

#	Program:	/corina/corina34_cracker 3.40 0067  02.08.2006

@<TRIPOS>MOLECULE
ASD01917722
  47   50    0    0    0
SMALL
NO_CHARGES


@<TRIPOS>ATOM
   1 C1            -0.0190     1.5508     0.0106 C.3     
   2 C2             0.0021    -0.0041     0.0020 C.3     
   3 C3            -1.2214    -0.3830     0.8109 C.2     
   4 N4            -1.6406     0.6748     1.5353 N.am    
   5 C5            -0.7509     1.8169     1.3272 C.3     
   6 C6            -2.8192     0.6794     2.4055 C.3     
   7 O7            -1.7467    -1.4762     0.8074 O.2     
   8 C8             1.2545    -0.5206     0.6620 C.ar    
   9 N9             2.3015    -0.8242    -0.0815 N.ar    
  10 C10            3.4197    -1.2786     0.4442 C.ar    
  11 C11            3.5341    -1.4562     1.8256 C.ar    
  12 C12            2.4384    -1.1421     2.6406 C.ar    
  13 C13            1.2890    -0.6632     2.0375 C.ar    
  14 C14            4.7480    -1.9558     2.3977 C.1     
  15 C15            5.7432    -2.3655     2.8668 C.1     
  16 C16            6.9572    -2.8652     3.4389 C.ar    
  17 C17            8.0439    -3.1753     2.6180 C.ar    
  18 C18            9.2120    -3.6566     3.1776 C.ar    
  19 C19            9.3055    -3.8311     4.5491 C.ar    
  20 C20            8.2318    -3.5253     5.3665 C.ar    
  21 C21            7.0618    -3.0392     4.8217 C.ar    
  22 H22           -0.0026     1.7824     2.1190 H       
  23 H23            0.9835     1.9786     0.0033 H       
  24 H24           -0.0796    -0.3829    -1.0168 H       
  25 C25           -1.4381     3.1419     1.4436 C.3     
  26 C26           -2.1345     3.6225     0.1869 C.3     
  27 C27           -1.2265     3.4739    -1.0309 C.3     
  28 C28           -0.8423     1.9997    -1.1969 C.3     
  29 F29           10.2647    -3.9579     2.3862 F       
  30 H30           -3.2978    -0.2994     2.3742 H       
  31 H31           -2.5150     0.9026     3.4281 H       
  32 H32           -3.5218     1.4385     2.0615 H       
  33 H33            4.2553    -1.5165    -0.1974 H       
  34 H34            2.4897    -1.2710     3.7116 H       
  35 H35            0.4262    -0.4066     2.6343 H       
  36 H36            7.9713    -3.0397     1.5491 H       
  37 H37           10.2204    -4.2078     4.9820 H       
  38 H38            8.3116    -3.6638     6.4346 H       
  39 H39            6.2252    -2.8009     5.4617 H       
  40 H40           -2.1781     3.0751     2.2412 H       
  41 H41           -0.6973     3.8879     1.7314 H       
  42 H42           -3.0399     3.0355     0.0324 H       
  43 H43           -2.4049     4.6716     0.3062 H       
  44 H44           -1.7520     3.8157    -1.9226 H       
  45 H45           -0.3225     4.0656    -0.8873 H       
  46 H46           -0.2655     1.8759    -2.1134 H       
  47 H47           -1.7462     1.3931    -1.2525 H       
@<TRIPOS>BOND
   1    1    2 1
   2    1   23 1
   3    1    5 1
   4    1   28 1
   5    2    3 1
   6    2    8 1
   7    2   24 1
   8    3    4 am
   9    3    7 2
  10    4    5 1
  11    4    6 1
  12    5   22 1
  13    5   25 1
  14    6   30 1
  15    6   31 1
  16    6   32 1
  17    8    9 ar
  18    8   13 ar
  19    9   10 ar
  20   10   11 ar
  21   10   33 1
  22   11   12 ar
  23   11   14 1
  24   12   13 ar
  25   12   34 1
  26   13   35 1
  27   14   15 3
  28   15   16 1
  29   16   17 ar
  30   16   21 ar
  31   17   18 ar
  32   17   36 1
  33   18   19 ar
  34   18   29 1
  35   19   20 ar
  36   19   37 1
  37   20   21 ar
  38   20   38 1
  39   21   39 1
  40   25   26 1
  41   25   40 1
  42   25   41 1
  43   26   27 1
  44   26   42 1
  45   26   43 1
  46   27   28 1
  47   27   44 1
  48   27   45 1
  49   28   46 1
  50   28   47 1

#	End of record

