#	Name: ASD01910431
#	Creating user name:	WinNT
#	Creation time:	15. 06. 2019 19:55

#	Modifying user name:	WinNT
#	Modification time:	15. 06. 2019 19:55

#	Program:	/corina/corina34_cracker 3.40 0067  02.08.2006

@<TRIPOS>MOLECULE
ASD01910431
  51   55    0    0    0
SMALL
NO_CHARGES


@<TRIPOS>ATOM
   1 C1            -0.0232     1.3961     0.0277 C.ar    
   2 C2            -0.0073     0.0105     0.0197 C.ar    
   3 C3             1.1983    -0.6724     0.0011 C.ar    
   4 C4             2.3884     0.0252    -0.0090 C.ar    
   5 C5             2.3770     1.4187    -0.0010 C.ar    
   6 C6             1.1623     2.1015     0.0172 C.ar    
   7 F7            -1.1705    -0.6765     0.0304 F       
   8 C8             3.6546     2.1733    -0.0113 C.2     
   9 N9             3.7925     3.5185    -0.0053 N.2     
  10 C10            5.0833     3.7399    -0.0180 C.2     
  11 O11            5.6871     2.5474    -0.0312 O.3     
  12 N12            4.8582     1.6619    -0.0222 N.2     
  13 C13            5.7606     5.0861    -0.0182 C.3     
  14 C14            6.6480     5.2117     1.2224 C.3     
  15 C15            7.3107     6.5910     1.2401 C.3     
  16 C16            8.1928     6.7453    -0.0028 C.3     
  17 N17            7.3777     6.4828    -1.1967 N.am    
  18 C18            6.6252     5.2233    -1.2754 C.3     
  19 C19            7.3213     7.3802    -2.2006 C.2     
  20 O20            6.7215     7.1127    -3.2202 O.2     
  21 C21            8.0036     8.7162    -2.0562 C.3     
  22 C22            9.4911     8.6033    -2.4520 C.3     
  23 C23            9.4651     8.9795    -3.9487 C.3     
  24 C24            8.2504     9.8676    -4.1129 C.ar    
  25 C25            7.4105     9.7163    -3.0255 C.ar    
  26 C26            7.9079    10.7391    -5.1329 C.ar    
  27 C27            6.7282    11.4583    -5.0667 C.ar    
  28 C28            5.8875    11.3060    -3.9769 C.ar    
  29 C29            6.2291    10.4366    -2.9602 C.ar    
  30 F30            6.3969    12.3082    -6.0633 F       
  31 H31           -0.9650     1.9245     0.0377 H       
  32 H32            1.2062    -1.7523    -0.0051 H       
  33 H33            3.3276    -0.5078    -0.0228 H       
  34 H34            1.1490     3.1815     0.0231 H       
  35 H35            5.0063     5.8728    -0.0071 H       
  36 H36            6.0390     5.0898     2.1182 H       
  37 H37            7.4170     4.4395     1.1985 H       
  38 H38            6.5422     7.3639     1.2391 H       
  39 H39            7.9241     6.6884     2.1359 H       
  40 H40            8.5885     7.7600    -0.0464 H       
  41 H41            9.0155     6.0316     0.0421 H       
  42 H42            7.3200     4.3855    -1.3343 H       
  43 H43            5.9865     5.2338    -2.1586 H       
  44 H44            7.9110     9.0787    -1.0325 H       
  45 H45           10.0975     9.3100    -1.8854 H       
  46 H46            9.8523     7.5841    -2.3149 H       
  47 H47           10.3705     9.5235    -4.2177 H       
  48 H48            9.3647     8.0840    -4.5620 H       
  49 H49            8.5639    10.8579    -5.9825 H       
  50 H50            4.9661    11.8667    -3.9222 H       
  51 H51            5.5731    10.3182    -2.1105 H       
@<TRIPOS>BOND
   1    1    2 ar
   2    1    6 ar
   3    1   31 1
   4    2    3 ar
   5    2    7 1
   6    3    4 ar
   7    3   32 1
   8    4    5 ar
   9    4   33 1
  10    5    6 ar
  11    5    8 1
  12    6   34 1
  13    8    9 1
  14    8   12 2
  15    9   10 2
  16   10   11 1
  17   10   13 1
  18   11   12 1
  19   13   14 1
  20   13   18 1
  21   13   35 1
  22   14   15 1
  23   14   36 1
  24   14   37 1
  25   15   16 1
  26   15   38 1
  27   15   39 1
  28   16   17 1
  29   16   40 1
  30   16   41 1
  31   17   18 1
  32   17   19 am
  33   18   42 1
  34   18   43 1
  35   19   20 2
  36   19   21 1
  37   21   22 1
  38   21   25 1
  39   21   44 1
  40   22   23 1
  41   22   45 1
  42   22   46 1
  43   23   24 1
  44   23   47 1
  45   23   48 1
  46   24   25 ar
  47   24   26 ar
  48   25   29 ar
  49   26   27 ar
  50   26   49 1
  51   27   28 ar
  52   27   30 1
  53   28   29 ar
  54   28   50 1
  55   29   51 1

#	End of record

