#	Name: ASD05503006
#	Creating user name:	WinNT
#	Creation time:	15. 06. 2019 21:01

#	Modifying user name:	WinNT
#	Modification time:	15. 06. 2019 21:01

#	Program:	/corina/corina34_cracker 3.40 0067  02.08.2006

@<TRIPOS>MOLECULE
ASD05503006
  45   46    0    0    0
SMALL
NO_CHARGES


@<TRIPOS>ATOM
   1 C1            -0.1503     1.3617     0.4404 C.ar    
   2 C2            -0.0933    -0.0173     0.2839 C.ar    
   3 C3             1.1366    -0.6547     0.2031 C.ar    
   4 C4             2.3060     0.0883     0.2790 C.ar    
   5 C5             2.2420     1.4675     0.4356 C.ar    
   6 C6             1.0160     2.0989     0.5157 C.ar    
   7 N7            -1.2748    -0.7631     0.2083 N.am    
   8 C8            -1.3353    -1.8513    -0.5845 C.2     
   9 C9            -2.5645    -2.7231    -0.5751 C.3     
  10 O10           -0.4003    -2.1291    -1.3054 O.2     
  11 C11           -2.3759    -3.8813    -1.5568 C.3     
  12 C12           -3.6238    -4.7664    -1.5473 C.3     
  13 N13            3.5475    -0.5503     0.1984 N.am    
  14 C14            4.5807     0.0601    -0.4151 C.2     
  15 C15            5.8624    -0.6547    -0.5915 C.ar    
  16 O16            4.4585     1.1986    -0.8233 O.2     
  17 C17            6.0060    -1.9619    -0.1239 C.ar    
  18 C18            7.2050    -2.6237    -0.2923 C.ar    
  19 C19            8.2633    -1.9943    -0.9228 C.ar    
  20 C20            8.1278    -0.6982    -1.3883 C.ar    
  21 C21            6.9328    -0.0273    -1.2316 C.ar    
  22 S22            6.7620     1.6227    -1.8256 S.o2    
  23 O23            6.2450     2.3431    -0.7153 O.2     
  24 O24            8.0373     1.9327    -2.3706 O.2     
  25 C25            5.5193     1.5037    -3.1417 C.3     
  26 H26           -1.1073     1.8588     0.4989 H       
  27 H27            1.1836    -1.7268     0.0817 H       
  28 H28            3.1518     2.0465     0.4951 H       
  29 H29            0.9690     3.1710     0.6371 H       
  30 H30           -2.0504    -0.4968     0.7264 H       
  31 H31           -2.7214    -3.1191     0.4282 H       
  32 H32           -3.4311    -2.1324    -0.8722 H       
  33 H33           -2.2190    -3.4853    -2.5601 H       
  34 H34           -1.5093    -4.4720    -1.2597 H       
  35 H35           -3.4895    -5.5915    -2.2467 H       
  36 H36           -3.7807    -5.1624    -0.5439 H       
  37 H37           -4.4904    -4.1757    -1.8444 H       
  38 H38            3.6651    -1.4326     0.5840 H       
  39 H39            5.1807    -2.4542     0.3688 H       
  40 H40            7.3176    -3.6351     0.0693 H       
  41 H41            9.1997    -2.5168    -1.0521 H       
  42 H42            8.9580    -0.2125    -1.8794 H       
  43 H43            4.5863     1.1219    -2.7270 H       
  44 H44            5.3489     2.4910    -3.5709 H       
  45 H45            5.8758     0.8266    -3.9179 H       
@<TRIPOS>BOND
   1    1    2 ar
   2    1    6 ar
   3    1   26 1
   4    2    3 ar
   5    2    7 1
   6    3    4 ar
   7    3   27 1
   8    4    5 ar
   9    4   13 1
  10    5    6 ar
  11    5   28 1
  12    6   29 1
  13    7    8 am
  14    7   30 1
  15    8    9 1
  16    8   10 2
  17    9   11 1
  18    9   31 1
  19    9   32 1
  20   11   12 1
  21   11   33 1
  22   11   34 1
  23   12   35 1
  24   12   36 1
  25   12   37 1
  26   13   14 am
  27   13   38 1
  28   14   15 1
  29   14   16 2
  30   15   17 ar
  31   15   21 ar
  32   17   18 ar
  33   17   39 1
  34   18   19 ar
  35   18   40 1
  36   19   20 ar
  37   19   41 1
  38   20   21 ar
  39   20   42 1
  40   21   22 1
  41   22   23 2
  42   22   24 2
  43   22   25 1
  44   25   43 1
  45   25   44 1
  46   25   45 1

#	End of record

