#	Name: ASD01913231
#	Creating user name:	WinNT
#	Creation time:	15. 06. 2019 20:01

#	Modifying user name:	WinNT
#	Modification time:	15. 06. 2019 20:01

#	Program:	/corina/corina34_cracker 3.40 0067  02.08.2006

@<TRIPOS>MOLECULE
ASD01913231
  44   47    0    0    0
SMALL
NO_CHARGES


@<TRIPOS>ATOM
   1 C1             0.7301     1.1799    -1.0048 C.3     
   2 N2             0.3534    -0.1342    -0.4727 N.am    
   3 C3             1.3090    -0.7960     0.4310 C.3     
   4 C4             2.5769    -1.0979    -0.3664 C.3     
   5 C5             3.0151     0.1086    -1.1539 C.ar    
   6 C6             4.3357     0.1501    -1.5886 C.ar    
   7 C7             4.7996     1.2230    -2.3225 C.ar    
   8 C8             3.9458     2.2659    -2.6299 C.ar    
   9 C9             2.6365     2.2287    -2.1967 C.ar    
  10 C10            2.1691     1.1519    -1.4550 C.ar    
  11 C11           -0.8200    -0.7121    -0.7976 C.2     
  12 O12           -1.0611    -1.8458    -0.4314 O.2     
  13 C13           -1.8138     0.0327    -1.5992 C.ar    
  14 C14           -2.6095    -0.6399    -2.5244 C.ar    
  15 C15           -3.5449     0.0699    -3.2763 C.ar    
  16 C16           -3.6779     1.4519    -3.0965 C.ar    
  17 C17           -2.8842     2.1107    -2.1769 C.ar    
  18 C18           -1.9608     1.4113    -1.4262 C.ar    
  19 C19           -4.3668    -0.6126    -4.2299 C.1     
  20 C20           -5.0406    -1.1722    -5.0116 C.1     
  21 C21           -5.8624    -1.8547    -5.9652 C.ar    
  22 C22           -6.7977    -1.1365    -6.7151 C.ar    
  23 C23           -7.5832    -1.8106    -7.6320 C.ar    
  24 C24           -7.4111    -3.1814    -7.7724 C.ar    
  25 C25           -6.4668    -3.8306    -6.9983 C.ar    
  26 N26           -5.7264    -3.1664    -6.1348 N.ar    
  27 Cl27          -4.8413     2.3395    -4.0306 Cl      
  28 Cl28           5.4098    -1.1585    -1.2042 Cl      
  29 H29            0.0896     1.4253    -1.8520 H       
  30 H30            0.6077     1.9345    -0.2278 H       
  31 H31            1.5463    -0.1354     1.2649 H       
  32 H32            0.8793    -1.7248     0.8061 H       
  33 H33            3.3725    -1.3858     0.3208 H       
  34 H34            2.3812    -1.9221    -1.0524 H       
  35 H35            5.8267     1.2479    -2.6554 H       
  36 H36            4.3024     3.1066    -3.2065 H       
  37 H37            1.9696     3.0437    -2.4364 H       
  38 H38           -2.5019    -1.7061    -2.6587 H       
  39 H39           -2.9897     3.1770    -2.0421 H       
  40 H40           -1.3469     1.9320    -0.7062 H       
  41 H41           -6.9058    -0.0704    -6.5802 H       
  42 H42           -8.3148    -1.2827    -8.2257 H       
  43 H43           -8.0098    -3.7358    -8.4799 H       
  44 H44           -6.3319    -4.8967    -7.1060 H       
@<TRIPOS>BOND
   1    1    2 1
   2    1   10 1
   3    1   29 1
   4    1   30 1
   5    2    3 1
   6    2   11 am
   7    3    4 1
   8    3   31 1
   9    3   32 1
  10    4    5 1
  11    4   33 1
  12    4   34 1
  13    5    6 ar
  14    5   10 ar
  15    6    7 ar
  16    6   28 1
  17    7    8 ar
  18    7   35 1
  19    8    9 ar
  20    8   36 1
  21    9   10 ar
  22    9   37 1
  23   11   12 2
  24   11   13 1
  25   13   14 ar
  26   13   18 ar
  27   14   15 ar
  28   14   38 1
  29   15   16 ar
  30   15   19 1
  31   16   17 ar
  32   16   27 1
  33   17   18 ar
  34   17   39 1
  35   18   40 1
  36   19   20 3
  37   20   21 1
  38   21   22 ar
  39   21   26 ar
  40   22   23 ar
  41   22   41 1
  42   23   24 ar
  43   23   42 1
  44   24   25 ar
  45   24   43 1
  46   25   26 ar
  47   25   44 1

#	End of record

