#	Name: ASD01810712
#	Creating user name:	WinNT
#	Creation time:	15. 06. 2019 19:25

#	Modifying user name:	WinNT
#	Modification time:	15. 06. 2019 19:25

#	Program:	/corina/corina34_cracker 3.40 0067  02.08.2006

@<TRIPOS>MOLECULE
ASD01810712
  16   16    0    0    0
SMALL
NO_CHARGES


@<TRIPOS>ATOM
   1 C1            -0.0185     1.5118     0.0104 C.3     
   2 C2             0.0021    -0.0041     0.0020 C.2     
   3 C3             1.0190    -0.6641     0.8331 C.2     
   4 C4             1.9972     0.0675     1.3653 C.2     
   5 C5             2.0887     1.5510     1.1501 C.3     
   6 O6             1.3469     1.9526    -0.0003 O.3     
   7 O7            -0.7866    -0.6444    -0.6614 O.2     
   8 C8            -0.7435     2.0303    -1.2332 C.3     
   9 H9            -0.5180     1.8716     0.9099 H       
  10 H10            0.9736    -1.7285     1.0105 H       
  11 H11            2.7469    -0.4210     1.9700 H       
  12 H12            1.6938     2.0642     2.0268 H       
  13 H13            3.1342     1.8286     1.0157 H       
  14 H14           -1.7677     1.6572    -1.2386 H       
  15 H15           -0.7540     3.1202    -1.2197 H       
  16 H16           -0.2255     1.6830    -2.1271 H       
@<TRIPOS>BOND
   1    1    2 1
   2    1    6 1
   3    1    8 1
   4    1    9 1
   5    2    3 1
   6    2    7 2
   7    3    4 2
   8    3   10 1
   9    4    5 1
  10    4   11 1
  11    5    6 1
  12    5   12 1
  13    5   13 1
  14    8   14 1
  15    8   15 1
  16    8   16 1

#	End of record

