#	Name: ASD04840043
#	Creating user name:	WinNT
#	Creation time:	15. 06. 2019 20:52

#	Modifying user name:	WinNT
#	Modification time:	15. 06. 2019 20:52

#	Program:	/corina/corina34_cracker 3.40 0067  02.08.2006

@<TRIPOS>MOLECULE
ASD04840043
  45   48    0    0    0
SMALL
NO_CHARGES


@<TRIPOS>ATOM
   1 C1            -0.0166     1.3754     0.0096 C.ar    
   2 C2             0.0021    -0.0041     0.0020 C.ar    
   3 C3             1.2218    -0.6823    -0.0132 C.ar    
   4 C4             2.4154     0.0410    -0.0207 C.ar    
   5 C5             2.3828     1.4202    -0.0130 C.ar    
   6 C6             1.1702     2.0864     0.0021 C.ar    
   7 C7             1.2493    -2.1604    -0.0210 C.2     
   8 S8            -0.1789    -3.1776    -0.0128 S.3     
   9 C9             0.7835    -4.6479    -0.0303 C.ar    
  10 C10            2.1439    -4.3233    -0.0417 C.ar    
  11 C11            2.3632    -2.8927    -0.0408 C.2     
  12 N12            0.4225    -5.9375    -0.0336 N.ar    
  13 C13            1.3225    -6.8932    -0.0472 C.ar    
  14 N14            2.6190    -6.6397    -0.0579 N.ar    
  15 C15            3.0747    -5.3961    -0.0566 C.ar    
  16 N16            4.4347    -5.1462    -0.0683 N.pl3   
  17 C17            5.3843    -6.2617    -0.0823 C.3     
  18 C18            1.1422     3.5931     0.0110 C.3     
  19 C19            0.4396     4.2935    -1.1539 C.3     
  20 C20           -0.2106     4.2732     0.2309 C.3     
  21 P21            7.0380    -5.6462    -0.5400 P.3     
  22 O22            7.4788    -4.6354     0.4471 O.2     
  23 O23            8.0816    -6.8720    -0.5554 O.3     
  24 O24            6.9755    -4.9762    -2.0027 O.3     
  25 P25            5.4551    -7.0203     1.5738 P.3     
  26 O26            5.8959    -6.0095     2.5610 O.2     
  27 O27            3.9946    -7.5639     1.9781 O.3     
  28 O28            6.4987    -8.2461     1.5584 O.3     
  29 H29           -0.9598     1.9014     0.0169 H       
  30 H30           -0.9251    -0.5579     0.0082 H       
  31 H31            3.3625    -0.4779    -0.0322 H       
  32 H32            3.3057     1.9811    -0.0188 H       
  33 H33            3.3499    -2.4537    -0.0489 H       
  34 H34            0.9918    -7.9213    -0.0495 H       
  35 H35            4.7599    -4.2324    -0.0673 H       
  36 H36            5.0596    -7.0061    -0.8093 H       
  37 H37            2.0236     4.0773     0.4315 H       
  38 H38            0.8586     5.2386    -1.4994 H       
  39 H39           -0.0023     3.6644    -1.9266 H       
  40 H40           -1.0803     3.6309     0.3692 H       
  41 H41           -0.2194     5.2050     0.7965 H       
  42 H42            8.9841    -6.6173    -0.7915 H       
  43 H43            6.6932    -5.5825    -2.7012 H       
  44 H44            3.3138    -6.8778     2.0073 H       
  45 H45            7.4012    -7.9914     1.3224 H       
@<TRIPOS>BOND
   1    1    2 ar
   2    1    6 ar
   3    1   29 1
   4    2    3 ar
   5    2   30 1
   6    3    4 ar
   7    3    7 1
   8    4    5 ar
   9    4   31 1
  10    5    6 ar
  11    5   32 1
  12    6   18 1
  13    7    8 1
  14    7   11 2
  15    8    9 1
  16    9   10 ar
  17    9   12 ar
  18   10   11 1
  19   10   15 ar
  20   11   33 1
  21   12   13 ar
  22   13   14 ar
  23   13   34 1
  24   14   15 ar
  25   15   16 1
  26   16   17 1
  27   16   35 1
  28   17   21 1
  29   17   25 1
  30   17   36 1
  31   18   19 1
  32   18   20 1
  33   18   37 1
  34   19   20 1
  35   19   38 1
  36   19   39 1
  37   20   40 1
  38   20   41 1
  39   21   22 2
  40   21   23 1
  41   21   24 1
  42   23   42 1
  43   24   43 1
  44   25   26 2
  45   25   27 1
  46   25   28 1
  47   27   44 1
  48   28   45 1

#	End of record

