#	Name: ASD06170190
#	Creating user name:	WinNT
#	Creation time:	15. 06. 2019 21:05

#	Modifying user name:	WinNT
#	Modification time:	15. 06. 2019 21:05

#	Program:	/corina/corina34_cracker 3.40 0067  02.08.2006

@<TRIPOS>MOLECULE
ASD06170190
  63   67    0    0    0
SMALL
NO_CHARGES


@<TRIPOS>ATOM
   1 C1             0.0282     0.9696    -0.3342 C.2     
   2 C2             0.3979    -0.3943    -0.2118 C.2     
   3 C3             1.7379    -0.7448    -0.3678 C.2     
   4 C4             2.6711     0.2564    -0.6391 C.2     
   5 C5             2.2709     1.5497    -0.7478 C.2     
   6 N6             0.9683     1.8971    -0.5970 N.am    
   7 C7            -0.6151    -1.4209     0.0754 C.2     
   8 O8            -0.3250    -2.6000    -0.0011 O.2     
   9 N9            -1.8649    -1.0556     0.4233 N.am    
  10 O10           -1.1380     1.3005    -0.2070 O.2     
  11 C11            0.5955     3.2414    -0.7164 C.ar    
  12 C12            0.9226     4.1460     0.2856 C.ar    
  13 C13            0.5539     5.4712     0.1645 C.ar    
  14 C14           -0.1404     5.8981    -0.9529 C.ar    
  15 C15           -0.4674     5.0001    -1.9521 C.ar    
  16 C16           -0.0969     3.6742    -1.8395 C.ar    
  17 C17            0.9079     6.4533     1.2514 C.3     
  18 Br18           4.4964    -0.1881    -0.8554 Br      
  19 C19           -2.8612    -2.0273     0.5764 C.ar    
  20 C20           -4.1801    -1.7253     0.2624 C.ar    
  21 C21           -5.1629    -2.6854     0.4134 C.ar    
  22 C22           -4.8305    -3.9520     0.8793 C.ar    
  23 C23           -3.5136    -4.2522     1.1924 C.ar    
  24 C24           -2.5302    -3.2947     1.0366 C.ar    
  25 F25           -6.4461    -2.3927     0.1087 F       
  26 O26           -5.7972    -4.8968     1.0284 O.3     
  27 N27           -7.5253    -6.4251    -2.3905 N.ar    
  28 C28           -6.6897    -5.4160    -2.4676 C.ar    
  29 C29           -6.0879    -4.8753    -1.3385 C.ar    
  30 C30           -6.3693    -5.4044    -0.0911 C.ar    
  31 C31           -7.2707    -6.4903    -0.0200 C.ar    
  32 C32           -7.6052    -7.0792     1.2085 C.ar    
  33 C33           -8.4800    -8.1265     1.2397 C.ar    
  34 C34           -9.0476    -8.6194     0.0561 C.ar    
  35 C35           -8.7390    -8.0651    -1.1527 C.ar    
  36 C36           -7.8422    -6.9859    -1.2173 C.ar    
  37 O37           -9.9161    -9.6630     0.1130 O.3     
  38 C38          -10.4617   -10.1212    -1.1258 C.3     
  39 O39           -8.8040    -8.6977     2.4304 O.3     
  40 C40           -8.1922    -8.1507     3.6002 C.3     
  41 H41            2.0490    -1.7752    -0.2797 H       
  42 H42            3.0030     2.3155    -0.9577 H       
  43 H43           -2.0742    -0.1195     0.5677 H       
  44 H44            1.4644     3.8132     1.1586 H       
  45 H45           -0.4279     6.9351    -1.0451 H       
  46 H46           -1.0096     5.3366    -2.8235 H       
  47 H47           -0.3487     2.9742    -2.6224 H       
  48 H48            1.8820     6.8941     1.0397 H       
  49 H49            0.1540     7.2396     1.2903 H       
  50 H50            0.9436     5.9365     2.2105 H       
  51 H51           -4.4376    -0.7408    -0.0992 H       
  52 H52           -3.2560    -5.2365     1.5547 H       
  53 H53           -1.5040    -3.5308     1.2766 H       
  54 H54           -6.4628    -4.9951    -3.4360 H       
  55 H55           -5.4040    -4.0448    -1.4335 H       
  56 H56           -7.1724    -6.7061     2.1250 H       
  57 H57           -9.1830    -8.4552    -2.0566 H       
  58 H58          -11.1377   -10.9555    -0.9386 H       
  59 H59          -11.0102    -9.3094    -1.6036 H       
  60 H60           -9.6535   -10.4480    -1.7800 H       
  61 H61           -7.1088    -8.2384     3.5184 H       
  62 H62           -8.4655    -7.0998     3.6955 H       
  63 H63           -8.5356    -8.6966     4.4789 H       
@<TRIPOS>BOND
   1    1    2 1
   2    1    6 am
   3    1   10 2
   4    2    3 2
   5    2    7 1
   6    3    4 1
   7    3   41 1
   8    4    5 2
   9    4   18 1
  10    5    6 1
  11    5   42 1
  12    6   11 1
  13    7    8 2
  14    7    9 am
  15    9   19 1
  16    9   43 1
  17   11   12 ar
  18   11   16 ar
  19   12   13 ar
  20   12   44 1
  21   13   14 ar
  22   13   17 1
  23   14   15 ar
  24   14   45 1
  25   15   16 ar
  26   15   46 1
  27   16   47 1
  28   17   48 1
  29   17   49 1
  30   17   50 1
  31   19   20 ar
  32   19   24 ar
  33   20   21 ar
  34   20   51 1
  35   21   22 ar
  36   21   25 1
  37   22   23 ar
  38   22   26 1
  39   23   24 ar
  40   23   52 1
  41   24   53 1
  42   26   30 1
  43   27   28 ar
  44   27   36 ar
  45   28   29 ar
  46   28   54 1
  47   29   30 ar
  48   29   55 1
  49   30   31 ar
  50   31   32 ar
  51   31   36 ar
  52   32   33 ar
  53   32   56 1
  54   33   34 ar
  55   33   39 1
  56   34   35 ar
  57   34   37 1
  58   35   36 ar
  59   35   57 1
  60   37   38 1
  61   38   58 1
  62   38   59 1
  63   38   60 1
  64   39   40 1
  65   40   61 1
  66   40   62 1
  67   40   63 1

#	End of record

