#	Name: ASD00069083
#	Creating user name:	WinNT
#	Creation time:	15. 06. 2019 18:29

#	Modifying user name:	WinNT
#	Modification time:	15. 06. 2019 18:29

#	Program:	/corina/corina34_cracker 3.40 0067  02.08.2006

@<TRIPOS>MOLECULE
ASD00069083
  67   72    0    0    0
SMALL
NO_CHARGES


@<TRIPOS>ATOM
   1 C1            -0.0088     1.3719     0.2510 C.ar    
   2 C2             0.0005    -0.0014     0.0088 C.ar    
   3 C3             1.1921    -0.6585    -0.2317 C.ar    
   4 C4             2.3873     0.0629    -0.2309 C.ar    
   5 C5             2.3680     1.4478     0.0139 C.ar    
   6 C6             1.1541     2.0873     0.2542 C.ar    
   7 C7             3.7941    -0.2992    -0.4428 C.2     
   8 N8             4.5066     0.7978    -0.3256 N.2     
   9 N9             3.6692     1.8826    -0.0471 N.pl3   
  10 C10            4.3132    -1.6500    -0.7337 C.2     
  11 N11            3.5805    -2.7322    -0.8458 N.2     
  12 N12            5.6321    -1.9614    -0.9330 N.pl3   
  13 N13           -1.2032    -0.7179     0.0097 N.am    
  14 C14            4.1107     3.2658     0.1479 C.3     
  15 O15            5.2559     3.2846     1.0023 O.3     
  16 C16            5.7552     4.5945     1.2802 C.3     
  17 C17            6.1861     5.2629    -0.0279 C.3     
  18 C18            4.9929     5.3060    -0.9874 C.3     
  19 C19            4.4755     3.8809    -1.2058 C.3     
  20 C20            4.3766    -3.7953    -1.1155 C.ar    
  21 C21            5.6988    -3.3201    -1.1753 C.ar    
  22 C22            4.1249    -5.1549    -1.3267 C.ar    
  23 C23            5.1609    -6.0070    -1.5848 C.ar    
  24 C24            6.4659    -5.5385    -1.6402 C.ar    
  25 C25            6.7377    -4.2013    -1.4401 C.ar    
  26 C26           -2.3267    -0.1485    -0.4698 C.2     
  27 C27           -3.5973    -0.9532    -0.5660 C.3     
  28 O28           -2.3152     1.0115    -0.8238 O.2     
  29 C29           -4.7154    -0.0775    -1.1384 C.3     
  30 C30           -4.3366     0.3648    -2.5536 C.3     
  31 N31           -4.1351    -0.8182    -3.4000 N.3     
  32 C32           -3.0346    -1.6501    -2.8966 C.3     
  33 C33           -3.3746    -2.1524    -1.4916 C.3     
  34 C34           -3.9964    -1.4471     0.8259 C.3     
  35 C35           -3.9059    -0.4320    -4.7987 C.3     
  36 H36           -0.9464     1.8758     0.4337 H       
  37 H37            1.1987    -1.7222    -0.4186 H       
  38 H38            1.1327     3.1505     0.4426 H       
  39 H39            6.3795    -1.3436    -0.9089 H       
  40 H40           -1.2281    -1.6239     0.3555 H       
  41 H41            3.3068     3.8430     0.6047 H       
  42 H42            4.9728     5.1892     1.7518 H       
  43 H43            6.6114     4.5224     1.9509 H       
  44 H44            6.5260     6.2782     0.1766 H       
  45 H45            6.9963     4.6906    -0.4797 H       
  46 H46            4.2011     5.9195    -0.5574 H       
  47 H47            5.3070     5.7300    -1.9412 H       
  48 H48            5.2512     3.2807    -1.6814 H       
  49 H49            3.5921     3.9078    -1.8436 H       
  50 H50            3.1131    -5.5304    -1.2855 H       
  51 H51            4.9623    -7.0561    -1.7470 H       
  52 H52            7.2739    -6.2251    -1.8453 H       
  53 H53            7.7554    -3.8422    -1.4844 H       
  54 H54           -5.6436    -0.6480    -1.1716 H       
  55 H55           -4.8496     0.8005    -0.5064 H       
  56 H56           -5.1371     0.9767    -2.9694 H       
  57 H57           -3.4157     0.9469    -2.5180 H       
  58 H58           -2.8895    -2.5015    -3.5615 H       
  59 H59           -2.1199    -1.0585    -2.8594 H       
  60 H60           -2.5508    -2.7570    -1.1121 H       
  61 H61           -4.2816    -2.7556    -1.5304 H       
  62 H62           -4.1573    -0.5921     1.4826 H       
  63 H63           -4.9154    -2.0289     0.7553 H       
  64 H64           -3.2009    -2.0722     1.2316 H       
  65 H65           -3.0183     0.1976    -4.8609 H       
  66 H66           -3.7597    -1.3270    -5.4034 H       
  67 H67           -4.7696     0.1200    -5.1694 H       
@<TRIPOS>BOND
   1    1    2 ar
   2    1    6 ar
   3    1   36 1
   4    2    3 ar
   5    2   13 1
   6    3    4 ar
   7    3   37 1
   8    4    5 ar
   9    4    7 1
  10    5    6 ar
  11    5    9 1
  12    6   38 1
  13    7    8 2
  14    7   10 1
  15    8    9 1
  16    9   14 1
  17   10   11 2
  18   10   12 1
  19   11   20 1
  20   12   21 1
  21   12   39 1
  22   13   26 am
  23   13   40 1
  24   14   15 1
  25   14   19 1
  26   14   41 1
  27   15   16 1
  28   16   17 1
  29   16   42 1
  30   16   43 1
  31   17   18 1
  32   17   44 1
  33   17   45 1
  34   18   19 1
  35   18   46 1
  36   18   47 1
  37   19   48 1
  38   19   49 1
  39   20   21 ar
  40   20   22 ar
  41   21   25 ar
  42   22   23 ar
  43   22   50 1
  44   23   24 ar
  45   23   51 1
  46   24   25 ar
  47   24   52 1
  48   25   53 1
  49   26   27 1
  50   26   28 2
  51   27   29 1
  52   27   34 1
  53   27   33 1
  54   29   30 1
  55   29   54 1
  56   29   55 1
  57   30   31 1
  58   30   56 1
  59   30   57 1
  60   31   32 1
  61   31   35 1
  62   32   33 1
  63   32   58 1
  64   32   59 1
  65   33   60 1
  66   33   61 1
  67   34   62 1
  68   34   63 1
  69   34   64 1
  70   35   65 1
  71   35   66 1
  72   35   67 1

#	End of record

