#	Name: ASD01412022
#	Creating user name:	WinNT
#	Creation time:	15. 06. 2019 19:19

#	Modifying user name:	WinNT
#	Modification time:	15. 06. 2019 19:19

#	Program:	/corina/corina34_cracker 3.40 0067  02.08.2006

@<TRIPOS>MOLECULE
ASD01412022
  84   89    0    0    0
SMALL
NO_CHARGES


@<TRIPOS>ATOM
   1 C1            -1.1720     3.2500    -0.6272 C.ar    
   2 C2            -0.9743     1.9112    -1.0230 C.ar    
   3 C3            -2.0428     1.0034    -0.9793 C.ar    
   4 C4            -3.2691     1.4148    -0.5558 C.ar    
   5 C5            -3.4749     2.7447    -0.1602 C.ar    
   6 C6            -2.4231     3.6584    -0.1925 C.ar    
   7 N7             0.0353     3.9027    -0.7720 N.pl3   
   8 C8             0.9681     3.0086    -1.2438 C.2     
   9 C9             0.3829     1.7926    -1.4051 C.2     
  10 C10            1.0590     0.5409    -1.9025 C.3     
  11 C11            0.9717    -0.5465    -0.8298 C.3     
  12 C12            1.6581    -1.8173    -1.3347 C.3     
  13 C13            0.9627    -2.3007    -2.6089 C.3     
  14 C14            1.0501    -1.2132    -3.6815 C.3     
  15 C15            0.3636     0.0575    -3.1766 C.3     
  16 C16           -4.8096     3.1770     0.2963 C.2     
  17 O17           -4.9909     4.3292     0.6399 O.2     
  18 N18           -5.8278     2.2948     0.3325 N.am    
  19 C19           -7.1532     2.7240     0.7858 C.3     
  20 C20           -8.1050     1.5570     0.7315 C.2     
  21 C21           -7.0585     3.2385     2.2236 C.3     
  22 C22           -7.6655     3.8428    -0.1235 C.3     
  23 C23           -8.8164    -0.4850    -0.2512 C.ar    
  24 O24           -8.9751     1.4446     1.5689 O.2     
  25 C25           -9.1919    -1.0738     0.9527 C.ar    
  26 C26          -10.0119    -2.1789     0.9542 C.ar    
  27 C27          -10.4689    -2.7106    -0.2578 C.ar    
  28 C28          -10.0889    -2.1146    -1.4664 C.ar    
  29 C29           -9.2681    -1.0101    -1.4583 C.ar    
  30 C30          -11.3443    -3.8908    -0.2613 C.2     
  31 C31          -12.3919    -3.9573     0.5892 C.2     
  32 N32           -7.9894     0.6381    -0.2476 N.am    
  33 C33            0.2828     5.3153    -0.4726 C.3     
  34 C34            2.7695     3.7683    -2.8181 C.ar    
  35 C35            2.3815     3.3205    -1.5297 C.ar    
  36 C36            3.3432     3.1792    -0.5415 C.ar    
  37 C37            4.6766     3.4714    -0.8013 C.ar    
  38 C38            5.0750     3.9033    -2.0309 C.ar    
  39 C39            4.1322     4.0652    -3.0597 C.ar    
  40 N40            1.8726     3.9168    -3.7939 N.ar    
  41 C41            2.2249     4.3311    -4.9877 C.ar    
  42 C42            3.5486     4.6353    -5.2955 C.ar    
  43 C43            4.5161     4.5104    -4.3392 C.ar    
  44 C44          -12.7901    -2.8062     1.3149 C.2     
  45 O45          -12.2160    -1.7481     1.1398 O.2     
  46 O46          -13.8058    -2.8844     2.1997 O.3     
  47 H47           -1.8924    -0.0223    -1.2823 H       
  48 H48           -4.0891     0.7127    -0.5245 H       
  49 H49           -2.5840     4.6818     0.1126 H       
  50 H50            2.1058     0.7548    -2.1186 H       
  51 H51            1.4671    -0.2021     0.0780 H       
  52 H52           -0.0751    -0.7604    -0.6136 H       
  53 H53            2.7048    -1.6034    -1.5508 H       
  54 H54            1.5958    -2.5920    -0.5705 H       
  55 H55            1.4517    -3.2060    -2.9686 H       
  56 H56           -0.0841    -2.5146    -2.3927 H       
  57 H57            2.0968    -0.9994    -3.8977 H       
  58 H58            0.5546    -1.5577    -4.5893 H       
  59 H59           -0.6831    -0.1564    -2.9605 H       
  60 H60            0.4259     0.8322    -3.9408 H       
  61 H61           -5.6832     1.3756     0.0585 H       
  62 H62           -6.3700     4.0826     2.2629 H       
  63 H63           -8.0446     3.5579     2.5609 H       
  64 H64           -6.6935     2.4415     2.8714 H       
  65 H65           -7.7330     3.4763    -1.1478 H       
  66 H66           -8.6516     4.1622     0.2138 H       
  67 H67           -6.9771     4.6869    -0.0842 H       
  68 H68           -8.8389    -0.6630     1.8870 H       
  69 H69          -10.3022    -2.6356     1.8889 H       
  70 H70          -10.4387    -2.5215    -2.4036 H       
  71 H71           -8.9748    -0.5495    -2.3900 H       
  72 H72          -11.1502    -4.7050    -0.9438 H       
  73 H73          -12.9260    -4.8873     0.7164 H       
  74 H74           -7.3311     0.7578    -0.9499 H       
  75 H75            0.5947     5.4171     0.5669 H       
  76 H76            1.0688     5.6930    -1.1264 H       
  77 H77           -0.6310     5.8867    -0.6353 H       
  78 H78            3.0529     2.8385     0.4413 H       
  79 H79            5.4089     3.3548    -0.0160 H       
  80 H80            6.1160     4.1254    -2.2134 H       
  81 H81            1.4691     4.4387    -5.7516 H       
  82 H82            3.8091     4.9736    -6.2875 H       
  83 H83            5.5476     4.7428    -4.5596 H       
  84 H84          -14.0044    -2.0495     2.6453 H       
@<TRIPOS>BOND
   1    1    2 ar
   2    1    7 1
   3    1    6 ar
   4    2    3 ar
   5    2    9 1
   6    3    4 ar
   7    3   47 1
   8    4    5 ar
   9    4   48 1
  10    5    6 ar
  11    5   16 1
  12    6   49 1
  13    7    8 1
  14    7   33 1
  15    8    9 2
  16    8   35 1
  17    9   10 1
  18   10   11 1
  19   10   15 1
  20   10   50 1
  21   11   12 1
  22   11   51 1
  23   11   52 1
  24   12   13 1
  25   12   53 1
  26   12   54 1
  27   13   14 1
  28   13   55 1
  29   13   56 1
  30   14   15 1
  31   14   57 1
  32   14   58 1
  33   15   59 1
  34   15   60 1
  35   16   17 2
  36   16   18 am
  37   18   19 1
  38   18   61 1
  39   19   20 1
  40   19   21 1
  41   19   22 1
  42   20   24 2
  43   20   32 am
  44   21   62 1
  45   21   63 1
  46   21   64 1
  47   22   65 1
  48   22   66 1
  49   22   67 1
  50   23   25 ar
  51   23   29 ar
  52   23   32 1
  53   25   26 ar
  54   25   68 1
  55   26   27 ar
  56   26   69 1
  57   27   28 ar
  58   27   30 1
  59   28   29 ar
  60   28   70 1
  61   29   71 1
  62   30   31 2
  63   30   72 1
  64   31   44 1
  65   31   73 1
  66   32   74 1
  67   33   75 1
  68   33   76 1
  69   33   77 1
  70   34   35 ar
  71   34   40 ar
  72   34   39 ar
  73   35   36 ar
  74   36   37 ar
  75   36   78 1
  76   37   38 ar
  77   37   79 1
  78   38   39 ar
  79   38   80 1
  80   39   43 ar
  81   40   41 ar
  82   41   42 ar
  83   41   81 1
  84   42   43 ar
  85   42   82 1
  86   43   83 1
  87   44   45 2
  88   44   46 1
  89   46   84 1

#	End of record

