#	Name: ASD01882277
#	Creating user name:	WinNT
#	Creation time:	15. 06. 2019 19:44

#	Modifying user name:	WinNT
#	Modification time:	15. 06. 2019 19:44

#	Program:	/corina/corina34_cracker 3.40 0067  02.08.2006

@<TRIPOS>MOLECULE
ASD01882277
  48   50    0    0    0
SMALL
NO_CHARGES


@<TRIPOS>ATOM
   1 N1            -0.0178     1.4608     0.0101 N.pl3   
   2 C2            -1.2983    -2.0661     0.5374 C.3     
   3 C3            -1.2933    -0.5375     0.6216 C.3     
   4 C4             0.0021    -0.0041     0.0020 C.3     
   5 C5             0.1099    -0.5071    -1.4408 C.3     
   6 C6             0.0507    -2.0369    -1.4453 C.3     
   7 O7            -1.1640    -2.4671    -0.8276 O.3     
   8 C8             1.1772     2.1726     0.0025 C.ar    
   9 C9             1.1574     3.5671     0.0102 C.ar    
  10 C10            2.3401     4.2729     0.0022 C.ar    
  11 C11            3.5589     3.5904    -0.0131 C.ar    
  12 C12            3.5753     2.1947    -0.0203 C.ar    
  13 C13            2.3911     1.4925    -0.0070 C.ar    
  14 O14            6.2413     3.8611    -0.0384 O.3     
  15 B15            4.9086     4.3923    -0.0227 Du      
  16 O16            5.0796     5.8168    -0.0182 O.3     
  17 C17            6.1824     6.0552    -0.9181 C.3     
  18 C18            6.9700     4.7292    -0.9318 C.3     
  19 C19            8.3939     4.9497    -0.4172 C.3     
  20 C20            6.9973     4.1399    -2.3434 C.3     
  21 C21            5.6651     6.3825    -2.3203 C.3     
  22 C22            7.0618     7.1922    -0.3940 C.3     
  23 F23           -0.0221     4.2257     0.0250 F       
  24 H24           -0.8643     1.9343     0.0167 H       
  25 H25           -0.4657    -2.4648     1.1170 H       
  26 H26           -2.2368    -2.4491     0.9381 H       
  27 H27           -2.1488    -0.1398     0.0758 H       
  28 H28           -1.3512    -0.2300     1.6657 H       
  29 H29            0.8558    -0.3603     0.5786 H       
  30 H30           -0.7173    -0.1088    -2.0282 H       
  31 H31            1.0555    -0.1780    -1.8716 H       
  32 H32            0.0840    -2.3989    -2.4729 H       
  33 H33            0.9009    -2.4353    -0.8917 H       
  34 H34            2.3253     5.3528     0.0074 H       
  35 H35            4.5168     1.6657    -0.0321 H       
  36 H36            2.4044     0.4126    -0.0081 H       
  37 H37            8.9181     3.9948    -0.3784 H       
  38 H38            8.9220     5.6270    -1.0883 H       
  39 H39            8.3561     5.3842     0.5817 H       
  40 H40            5.9763     4.0045    -2.7004 H       
  41 H41            7.5283     4.8190    -3.0105 H       
  42 H42            7.5066     3.1764    -2.3252 H       
  43 H43            5.0629     7.2902    -2.2827 H       
  44 H44            6.5094     6.5342    -2.9927 H       
  45 H45            5.0546     5.5562    -2.6844 H       
  46 H46            7.4343     6.9359     0.5978 H       
  47 H47            7.9031     7.3422    -1.0706 H       
  48 H48            6.4744     8.1086    -0.3359 H       
@<TRIPOS>BOND
   1    1    4 1
   2    1    8 1
   3    1   24 1
   4    2    3 1
   5    2    7 1
   6    2   25 1
   7    2   26 1
   8    3    4 1
   9    3   27 1
  10    3   28 1
  11    4    5 1
  12    4   29 1
  13    5    6 1
  14    5   30 1
  15    5   31 1
  16    6    7 1
  17    6   32 1
  18    6   33 1
  19    8    9 ar
  20    8   13 ar
  21    9   10 ar
  22    9   23 1
  23   10   11 ar
  24   10   34 1
  25   11   12 ar
  26   11   15 1
  27   12   13 ar
  28   12   35 1
  29   13   36 1
  30   14   15 1
  31   14   18 1
  32   15   16 1
  33   16   17 1
  34   17   18 1
  35   17   21 1
  36   17   22 1
  37   18   19 1
  38   18   20 1
  39   19   37 1
  40   19   38 1
  41   19   39 1
  42   20   40 1
  43   20   41 1
  44   20   42 1
  45   21   43 1
  46   21   44 1
  47   21   45 1
  48   22   46 1
  49   22   47 1
  50   22   48 1

#	End of record

