#	Name: ASD01884541
#	Creating user name:	WinNT
#	Creation time:	15. 06. 2019 19:48

#	Modifying user name:	WinNT
#	Modification time:	15. 06. 2019 19:48

#	Program:	/corina/corina34_cracker 3.40 0067  02.08.2006

@<TRIPOS>MOLECULE
ASD01884541
  62   65    0    0    0
SMALL
NO_CHARGES


@<TRIPOS>ATOM
   1 C1             0.4219     1.7432     0.1408 C.2     
   2 C2             0.2538     0.3608     0.1276 C.2     
   3 C3            -1.0383    -0.1635     0.1849 C.2     
   4 C4            -2.1085     0.6679     0.2517 C.2     
   5 N5            -1.9526     2.0140     0.2650 N.am    
   6 C6            -0.7279     2.5718     0.2176 C.2     
   7 O7            -0.6076     3.7849     0.2307 O.2     
   8 C8            -3.1350     2.8760     0.3374 C.3     
   9 C9            -3.4696     3.1493     1.7812 C.ar    
  10 C10           -2.9185     4.2428     2.4228 C.ar    
  11 C11           -3.2249     4.4948     3.7466 C.ar    
  12 C12           -4.0844     3.6515     4.4303 C.ar    
  13 C13           -4.6358     2.5567     3.7866 C.ar    
  14 C14           -4.3320     2.3097     2.4612 C.ar    
  15 F15           -4.3844     3.8966     5.7246 F       
  16 C16            1.7321     2.3184     0.0839 C.1     
  17 N17            2.7714     2.7747     0.0388 N.1     
  18 C18            1.4485    -0.5546     0.0522 C.3     
  19 N19            1.8337    -0.9697     1.4076 N.3     
  20 C20            2.8374    -2.0422     1.3647 C.3     
  21 C21            3.2696    -2.3901     2.7911 C.3     
  22 N22            2.0937    -2.8040     3.5693 N.3     
  23 C23            1.0900    -1.7315     3.6122 C.3     
  24 C24            0.6578    -1.3836     2.1859 C.3     
  25 C25            2.4789    -3.2191     4.9248 C.3     
  26 C26            1.2251    -3.5842     5.7220 C.3     
  27 C27            3.4031    -4.4356     4.8424 C.3     
  28 C28            1.6145    -3.9485     7.1316 C.ar    
  29 C29            1.7855    -2.9570     8.0795 C.ar    
  30 C30            2.1427    -3.2911     9.3725 C.ar    
  31 C31            2.3284    -4.6168     9.7175 C.ar    
  32 C32            2.1565    -5.6083     8.7698 C.ar    
  33 C33            1.7951    -5.2745     7.4780 C.ar    
  34 H34           -1.1866    -1.2332     0.1756 H       
  35 H35           -3.1030     0.2491     0.2948 H       
  36 H36           -2.9303     3.8173    -0.1726 H       
  37 H37           -3.9775     2.3782    -0.1428 H       
  38 H38           -2.2478     4.9002     1.8894 H       
  39 H39           -2.7940     5.3489     4.2478 H       
  40 H40           -5.3063     1.8983     4.3189 H       
  41 H41           -4.7620     1.4558     1.9590 H       
  42 H42            1.1951    -1.4346    -0.5390 H       
  43 H43            2.2801    -0.0288    -0.4169 H       
  44 H44            2.4073    -2.9240     0.8898 H       
  45 H45            3.7034    -1.7072     0.7938 H       
  46 H46            3.9926    -3.2053     2.7634 H       
  47 H47            3.7245    -1.5158     3.2567 H       
  48 H48            0.2240    -2.0665     4.1831 H       
  49 H49            1.5201    -0.8497     4.0872 H       
  50 H50           -0.0653    -0.5684     2.2136 H       
  51 H51            0.2029    -2.2579     1.7202 H       
  52 H52            2.9996    -2.4002     5.4213 H       
  53 H53            0.5459    -2.7319     5.7415 H       
  54 H54            0.7295    -4.4331     5.2511 H       
  55 H55            2.8825    -5.2544     4.3458 H       
  56 H56            4.2964    -4.1754     4.2744 H       
  57 H57            3.6890    -4.7435     5.8481 H       
  58 H58            1.6404    -1.9213     7.8099 H       
  59 H59            2.2770    -2.5165    10.1129 H       
  60 H60            2.6082    -4.8778    10.7275 H       
  61 H61            2.3020    -6.6440     9.0393 H       
  62 H62            1.6608    -6.0491     6.7375 H       
@<TRIPOS>BOND
   1    1    2 2
   2    1   16 1
   3    1    6 1
   4    2    3 1
   5    2   18 1
   6    3    4 2
   7    3   34 1
   8    4    5 1
   9    4   35 1
  10    5    8 1
  11    5    6 am
  12    6    7 2
  13    8    9 1
  14    8   36 1
  15    8   37 1
  16    9   10 ar
  17    9   14 ar
  18   10   11 ar
  19   10   38 1
  20   11   12 ar
  21   11   39 1
  22   12   13 ar
  23   12   15 1
  24   13   14 ar
  25   13   40 1
  26   14   41 1
  27   16   17 3
  28   18   19 1
  29   18   42 1
  30   18   43 1
  31   19   20 1
  32   19   24 1
  33   20   21 1
  34   20   44 1
  35   20   45 1
  36   21   22 1
  37   21   46 1
  38   21   47 1
  39   22   23 1
  40   22   25 1
  41   23   24 1
  42   23   48 1
  43   23   49 1
  44   24   50 1
  45   24   51 1
  46   25   26 1
  47   25   27 1
  48   25   52 1
  49   26   28 1
  50   26   53 1
  51   26   54 1
  52   27   55 1
  53   27   56 1
  54   27   57 1
  55   28   29 ar
  56   28   33 ar
  57   29   30 ar
  58   29   58 1
  59   30   31 ar
  60   30   59 1
  61   31   32 ar
  62   31   60 1
  63   32   33 ar
  64   32   61 1
  65   33   62 1

#	End of record

