#	Name: ASD05790107
#	Creating user name:	WinNT
#	Creation time:	15. 06. 2019 21:03

#	Modifying user name:	WinNT
#	Modification time:	15. 06. 2019 21:03

#	Program:	/corina/corina34_cracker 3.40 0067  02.08.2006

@<TRIPOS>MOLECULE
ASD05790107
  93   99    0    0    0
SMALL
NO_CHARGES


@<TRIPOS>ATOM
   1 C1             2.1571    -0.2426    -0.3496 C.3     
   2 C2             2.5518    -1.6991    -0.6040 C.3     
   3 C3             3.2476    -1.8067    -1.9609 C.3     
   4 C4             4.5107    -0.9408    -1.9640 C.3     
   5 C5             4.1193     0.5225    -1.6975 C.3     
   6 C6             3.4152     0.6277    -0.3458 C.3     
   7 C7             5.1987    -1.0804    -3.3228 C.3     
   8 C8             4.3066    -0.5374    -4.4517 C.3     
   9 C9             4.0106     0.9166    -4.1383 C.3     
  10 C10            3.1982     0.9506    -2.8173 C.3     
  11 C11            3.0536     1.6289    -5.1016 C.3     
  12 C12            2.4374     2.7462    -4.2639 C.2     
  13 C13            2.6760     2.3804    -2.7935 C.3     
  14 C14            5.3751     1.3966    -1.6911 C.3     
  15 N15            1.3476    -2.5404    -0.6028 N.3     
  16 C16            3.8371     2.1925    -6.2706 C.3     
  17 C17            2.9949     2.8775    -7.2932 C.3     
  18 C18            2.5805     4.2896    -6.9517 C.3     
  19 C19            1.4153     4.3277    -5.9781 C.3     
  20 C20            1.7860     3.7604    -4.6557 C.2     
  21 C21            1.2632     4.5862    -3.5087 C.3     
  22 C22            2.1501     5.0113    -8.2641 C.3     
  23 C23            2.7451     6.4109    -8.0435 C.3     
  24 C24            4.0748     6.0032    -7.3490 C.3     
  25 O25            3.7002     5.0228    -6.4076 O.3     
  26 N26            3.1413     7.1248    -9.2536 N.am    
  27 C27            3.9496     8.3435    -9.0404 C.3     
  28 C28            5.1690     8.0438    -8.1705 C.3     
  29 C29            4.7766     7.2615    -6.9046 C.3     
  30 C30            2.7684     4.3376    -9.4908 C.3     
  31 C31            5.8273     9.3625    -7.7600 C.3     
  32 C32            2.7931     6.7002   -10.4844 C.2     
  33 O33            1.9098     5.8761   -10.6155 O.2     
  34 O34            3.4240     7.1891   -11.5687 O.3     
  35 C35            3.8093     7.3423   -13.9490 C.ar    
  36 C36            4.9911     6.7638   -14.3731 C.ar    
  37 C37            5.7334     7.3623   -15.3739 C.ar    
  38 C38            5.2937     8.5389   -15.9510 C.ar    
  39 C39            4.1115     9.1169   -15.5276 C.ar    
  40 C40            3.3699     8.5192   -14.5258 C.ar    
  41 C41            2.9969     6.6865   -12.8623 C.3     
  42 H42            1.4834     0.0948    -1.1372 H       
  43 H43            1.6574    -0.1643     0.6160 H       
  44 H44            3.2305    -2.0342     0.1803 H       
  45 H45            3.5197    -2.8455    -2.1475 H       
  46 H46            2.5710    -1.4637    -2.7436 H       
  47 H47            5.1871    -1.2836    -1.1810 H       
  48 H48            3.1376     1.6655    -0.1615 H       
  49 H49            4.0886     0.2881     0.4412 H       
  50 H50            6.1359    -0.5239    -3.3082 H       
  51 H51            5.4115    -2.1330    -3.5097 H       
  52 H52            4.8296    -0.6117    -5.4052 H       
  53 H53            3.3764    -1.1040    -4.4935 H       
  54 H54            4.9395     1.4762    -4.0280 H       
  55 H55            2.3581     0.2596    -2.8857 H       
  56 H56            2.2805     0.9421    -5.4459 H       
  57 H57            1.7416     2.4323    -2.2346 H       
  58 H58            3.4181     3.0467    -2.3537 H       
  59 H59            5.9481     1.2160    -2.6005 H       
  60 H60            5.0866     2.4467    -1.6459 H       
  61 H61            5.9852     1.1497    -0.8222 H       
  62 H62            0.8688    -2.4852     0.2837 H       
  63 H63            0.7318    -2.2916    -1.3624 H       
  64 H64            4.5669     2.9058    -5.8876 H       
  65 H65            4.3747     1.3766    -6.7537 H       
  66 H66            3.5481     2.9009    -8.2321 H       
  67 H67            2.0936     2.2842    -7.4472 H       
  68 H68            1.0970     5.3617    -5.8447 H       
  69 H69            0.5870     3.7527    -6.3921 H       
  70 H70            0.7127     5.4423    -3.8986 H       
  71 H71            0.6001     3.9768    -2.8947 H       
  72 H72            2.0988     4.9369    -2.9030 H       
  73 H73            1.0643     5.0558    -8.3490 H       
  74 H74            2.1150     7.0175    -7.3930 H       
  75 H75            4.7063     5.5264    -8.0986 H       
  76 H76            4.2831     8.7255   -10.0052 H       
  77 H77            3.3362     9.0989    -8.5494 H       
  78 H78            5.8822     7.4547    -8.7470 H       
  79 H79            4.1056     7.8626    -6.2910 H       
  80 H80            5.6704     7.0056    -6.3355 H       
  81 H81            3.0916     3.3303    -9.2278 H       
  82 H82            2.0275     4.2849   -10.2884 H       
  83 H83            3.6267     4.9176    -9.8299 H       
  84 H84            5.1143     9.9648    -7.1970 H       
  85 H85            6.6987     9.1557    -7.1387 H       
  86 H86            6.1380     9.9066    -8.6520 H       
  87 H87            5.3345     5.8445   -13.9222 H       
  88 H88            6.6570     6.9107   -15.7047 H       
  89 H89            5.8741     9.0069   -16.7325 H       
  90 H90            3.7684    10.0366   -15.9780 H       
  91 H91            2.4467     8.9711   -14.1945 H       
  92 H92            3.1443     5.6072   -12.8995 H       
  93 H93            1.9413     6.9144   -13.0101 H       
@<TRIPOS>BOND
   1    1    2 1
   2    1    6 1
   3    1   42 1
   4    1   43 1
   5    2    3 1
   6    2   15 1
   7    2   44 1
   8    3    4 1
   9    3   45 1
  10    3   46 1
  11    4    5 1
  12    4    7 1
  13    4   47 1
  14    5    6 1
  15    5   14 1
  16    5   10 1
  17    6   48 1
  18    6   49 1
  19    7    8 1
  20    7   50 1
  21    7   51 1
  22    8    9 1
  23    8   52 1
  24    8   53 1
  25    9   10 1
  26    9   11 1
  27    9   54 1
  28   10   13 1
  29   10   55 1
  30   11   12 1
  31   11   16 1
  32   11   56 1
  33   12   13 1
  34   12   20 2
  35   13   57 1
  36   13   58 1
  37   14   59 1
  38   14   60 1
  39   14   61 1
  40   15   62 1
  41   15   63 1
  42   16   17 1
  43   16   64 1
  44   16   65 1
  45   17   18 1
  46   17   66 1
  47   17   67 1
  48   18   19 1
  49   18   25 1
  50   18   22 1
  51   19   20 1
  52   19   68 1
  53   19   69 1
  54   20   21 1
  55   21   70 1
  56   21   71 1
  57   21   72 1
  58   22   23 1
  59   22   30 1
  60   22   73 1
  61   23   24 1
  62   23   26 1
  63   23   74 1
  64   24   25 1
  65   24   29 1
  66   24   75 1
  67   26   27 1
  68   26   32 am
  69   27   28 1
  70   27   76 1
  71   27   77 1
  72   28   29 1
  73   28   31 1
  74   28   78 1
  75   29   79 1
  76   29   80 1
  77   30   81 1
  78   30   82 1
  79   30   83 1
  80   31   84 1
  81   31   85 1
  82   31   86 1
  83   32   33 2
  84   32   34 1
  85   34   41 1
  86   35   36 ar
  87   35   40 ar
  88   35   41 1
  89   36   37 ar
  90   36   87 1
  91   37   38 ar
  92   37   88 1
  93   38   39 ar
  94   38   89 1
  95   39   40 ar
  96   39   90 1
  97   40   91 1
  98   41   92 1
  99   41   93 1

#	End of record

