#	Name: ASD05313160
#	Creating user name:	WinNT
#	Creation time:	15. 06. 2019 20:58

#	Modifying user name:	WinNT
#	Modification time:	15. 06. 2019 20:58

#	Program:	/corina/corina34_cracker 3.40 0067  02.08.2006

@<TRIPOS>MOLECULE
ASD05313160
  41   44    0    0    0
SMALL
NO_CHARGES


@<TRIPOS>ATOM
   1 C1            -0.0432     0.8362     0.9980 C.2     
   2 C2             0.1291    -0.6053     0.5821 C.3     
   3 N3             0.9691     1.7392     1.0207 N.pl3   
   4 N4             1.4731    -0.7234    -0.0142 N.am    
   5 C5             2.5924    -0.0486     0.6604 C.3     
   6 C6             2.3543     1.4660     0.6414 C.3     
   7 N7            -0.8577     2.6732     1.6650 N.2     
   8 N8            -1.1228     1.4417     1.3923 N.2     
   9 C9             0.4215     2.9081     1.4542 C.2     
  10 C10            1.1272     4.1927     1.6531 C.ar    
  11 C11            0.4203     5.3071     2.1055 C.ar    
  12 C12            1.0932     6.5018     2.2875 C.ar    
  13 C13            2.4548     6.5451     2.0107 C.ar    
  14 C14            3.0936     5.3996     1.5641 C.ar    
  15 N15            2.4290     4.2739     1.4046 N.ar    
  16 F16            3.1482     7.6929     2.1750 F       
  17 C17            1.6700    -1.4301    -1.1449 C.2     
  18 O18            2.7638    -1.4360    -1.6753 O.2     
  19 C19            0.5566    -2.1975    -1.7396 C.ar    
  20 C20            0.3198    -2.1371    -3.1147 C.ar    
  21 C21           -0.7216    -2.8566    -3.6648 C.ar    
  22 C22           -1.5326    -3.6385    -2.8527 C.ar    
  23 C23           -1.3005    -3.7006    -1.4881 C.ar    
  24 C24           -0.2590    -2.9900    -0.9297 C.ar    
  25 C25            1.1993    -1.2878    -3.9958 C.3     
  26 F26           -2.5516    -4.3406    -3.3950 F       
  27 F27           -0.9526    -2.7998    -4.9947 F       
  28 H28            0.0501    -1.2557     1.4532 H       
  29 H29           -0.6292    -0.8734    -0.1536 H       
  30 H30            2.6571    -0.3939     1.6923 H       
  31 H31            3.5224    -0.2775     0.1402 H       
  32 H32            2.5400     1.8511    -0.3613 H       
  33 H33            3.0278     1.9498     1.3488 H       
  34 H34           -0.6378     5.2380     2.3106 H       
  35 H35            0.5725     7.3813     2.6363 H       
  36 H36            4.1512     5.4292     1.3477 H       
  37 H37           -1.9341    -4.3102    -0.8610 H       
  38 H38           -0.0769    -3.0433     0.1335 H       
  39 H39            2.0897    -1.8523    -4.2727 H       
  40 H40            0.6512    -1.0093    -4.8959 H       
  41 H41            1.4931    -0.3875    -3.4562 H       
@<TRIPOS>BOND
   1    1    2 1
   2    1    3 1
   3    1    8 2
   4    2    4 1
   5    2   28 1
   6    2   29 1
   7    3    6 1
   8    3    9 1
   9    4    5 1
  10    4   17 am
  11    5    6 1
  12    5   30 1
  13    5   31 1
  14    6   32 1
  15    6   33 1
  16    7    8 1
  17    7    9 2
  18    9   10 1
  19   10   11 ar
  20   10   15 ar
  21   11   12 ar
  22   11   34 1
  23   12   13 ar
  24   12   35 1
  25   13   14 ar
  26   13   16 1
  27   14   15 ar
  28   14   36 1
  29   17   18 2
  30   17   19 1
  31   19   20 ar
  32   19   24 ar
  33   20   21 ar
  34   20   25 1
  35   21   22 ar
  36   21   27 1
  37   22   23 ar
  38   22   26 1
  39   23   24 ar
  40   23   37 1
  41   24   38 1
  42   25   39 1
  43   25   40 1
  44   25   41 1

#	End of record

