#	Name: ASD01150976
#	Creating user name:	WinNT
#	Creation time:	15. 06. 2019 19:05

#	Modifying user name:	WinNT
#	Modification time:	15. 06. 2019 19:05

#	Program:	/corina/corina34_cracker 3.40 0067  02.08.2006

@<TRIPOS>MOLECULE
ASD01150976
  29   30    0    0    0
SMALL
NO_CHARGES


@<TRIPOS>ATOM
   1 C1            -0.0156     1.3025     0.0092 C.2     
   2 N2             0.0021    -0.0041     0.0020 N.2     
   3 C3            -1.2814    -0.4556     0.0118 C.2     
   4 C4            -2.1020     0.6644     0.0257 C.2     
   5 O5            -1.2906     1.7370     0.0296 O.3     
   6 C6             1.1804     2.1709     0.0024 C.ar    
   7 N7            -3.4767     0.6748     0.0388 N.pl3   
   8 C8            -1.7141    -1.8543     0.0080 C.2     
   9 O9            -2.9004    -2.1240     0.0175 O.2     
  10 O10           -0.7975    -2.8440    -0.0060 O.3     
  11 C11           -1.2907    -4.1852    -0.0089 C.3     
  12 C12           -0.1130    -5.1617    -0.0253 C.3     
  13 C13            1.0385     3.5595     0.0113 C.ar    
  14 C14            2.1590     4.3642     0.0048 C.ar    
  15 C15            3.4212     3.7978    -0.0103 C.ar    
  16 C16            3.5689     2.4222    -0.0196 C.ar    
  17 C17            2.4568     1.6059    -0.0070 C.ar    
  18 H18           -3.9681    -0.1615     0.0390 H       
  19 H19           -3.9553     1.5185     0.0479 H       
  20 H20           -1.8901    -4.3538     0.8857 H       
  21 H21           -1.9066    -4.3439    -0.8941 H       
  22 H22            0.5029    -5.0031     0.8600 H       
  23 H23           -0.4893    -6.1847    -0.0275 H       
  24 H24            0.4864    -4.9931    -0.9199 H       
  25 H25            0.0538     4.0028     0.0227 H       
  26 H26            2.0506     5.4388     0.0113 H       
  27 H27            4.2952     4.4324    -0.0153 H       
  28 H28            4.5570     1.9864    -0.0321 H       
  29 H29            2.5733     0.5323    -0.0143 H       
@<TRIPOS>BOND
   1    1    2 2
   2    1    6 1
   3    1    5 1
   4    2    3 1
   5    3    4 2
   6    3    8 1
   7    4    5 1
   8    4    7 1
   9    6   13 ar
  10    6   17 ar
  11    7   18 1
  12    7   19 1
  13    8    9 2
  14    8   10 1
  15   10   11 1
  16   11   12 1
  17   11   20 1
  18   11   21 1
  19   12   22 1
  20   12   23 1
  21   12   24 1
  22   13   14 ar
  23   13   25 1
  24   14   15 ar
  25   14   26 1
  26   15   16 ar
  27   15   27 1
  28   16   17 ar
  29   16   28 1
  30   17   29 1

#	End of record

