#	Name: ASD09740374
#	Creating user name:	WinNT
#	Creation time:	15. 06. 2019 21:23

#	Modifying user name:	WinNT
#	Modification time:	15. 06. 2019 21:23

#	Program:	/corina/corina34_cracker 3.40 0067  02.08.2006

@<TRIPOS>MOLECULE
ASD09740374
  61   65    0    0    0
SMALL
NO_CHARGES


@<TRIPOS>ATOM
   1 C1            -0.5949     2.9198     0.5315 C.ar    
   2 C2             0.7917     3.4138     0.4109 C.2     
   3 C3            -0.8359     1.5767     0.8264 C.ar    
   4 C4            -2.1311     1.1170     0.9386 C.ar    
   5 C5            -3.1971     1.9866     0.7591 C.ar    
   6 C6            -2.9635     3.3288     0.4645 C.ar    
   7 C7            -1.6682     3.7969     0.3564 C.ar    
   8 N8             1.8953     2.7033     0.5553 N.2     
   9 C9             2.9105     3.5696     0.3563 C.2     
  10 N10            2.3820     4.7400     0.1058 N.2     
  11 O11            1.1716     4.6697     0.1277 O.3     
  12 C12            4.3598     3.2532     0.4120 C.ar    
  13 C13            5.3023     4.2561     0.1837 C.ar    
  14 C14            6.6488     3.9563     0.2366 C.ar    
  15 C15            7.0584     2.6624     0.5162 C.ar    
  16 C16            6.1274     1.6662     0.7432 C.ar    
  17 C17            4.7791     1.9566     0.6978 C.ar    
  18 O18           -4.0106     4.1788     0.2891 O.3     
  19 C19           -3.6977     5.5405    -0.0105 C.3     
  20 C20           -4.9934     6.3379    -0.1721 C.3     
  21 O21           -4.4715     1.5288     0.8703 O.3     
  22 C22           -4.6387     0.1424     1.1734 C.3     
  23 C23           -6.1309    -0.1848     1.2581 C.3     
  24 C24            7.4619     5.2021    -0.0441 C.3     
  25 C25            6.4826     6.3778     0.1585 C.3     
  26 C26            5.1157     5.7238    -0.1356 C.3     
  27 N27            8.5822     5.3033     0.9007 N.3     
  28 C28            9.6138     4.2916     0.6074 C.3     
  29 C29           10.9415     5.0448     0.3805 C.3     
  30 C30           10.7096     6.3910     1.1159 C.3     
  31 C31            9.2059     6.6424     0.8416 C.3     
  32 O32           11.5136     7.4283     0.5505 O.3     
  33 H33           -0.0079     0.8975     0.9662 H       
  34 H34           -2.3161     0.0776     1.1664 H       
  35 H35           -1.4857     4.8367     0.1282 H       
  36 H36            8.1124     2.4306     0.5568 H       
  37 H37            6.4557     0.6605     0.9604 H       
  38 H38            4.0513     1.1787     0.8754 H       
  39 H39           -3.1086     5.9653     0.8024 H       
  40 H40           -3.1249     5.5864    -0.9367 H       
  41 H41           -4.7547     7.3766    -0.4006 H       
  42 H42           -5.5824     5.9132    -0.9849 H       
  43 H43           -5.5662     6.2921     0.7541 H       
  44 H44           -4.1788    -0.4590     0.3892 H       
  45 H45           -4.1630    -0.0807     2.1284 H       
  46 H46           -6.5908     0.4166     2.0423 H       
  47 H47           -6.6066     0.0382     0.3031 H       
  48 H48           -6.2584    -1.2424     1.4893 H       
  49 H49            7.8310     5.1898    -1.0697 H       
  50 H50            6.5241     6.7444     1.1842 H       
  51 H51            6.6886     7.1803    -0.5497 H       
  52 H52            4.8532     5.8520    -1.1857 H       
  53 H53            4.3449     6.1548     0.5032 H       
  54 H54            9.7143     3.6089     1.4512 H       
  55 H55            9.3441     3.7367    -0.2912 H       
  56 H56           11.7743     4.5007     0.8261 H       
  57 H57           11.1133     5.2112    -0.6829 H       
  58 H58           10.9000     6.2900     2.1844 H       
  59 H59            9.0687     7.0816    -0.1466 H       
  60 H60            8.7837     7.2919     1.6084 H       
  61 H61           12.4649     7.2665     0.6124 H       
@<TRIPOS>BOND
   1    1    3 ar
   2    1    2 1
   3    1    7 ar
   4    2    8 2
   5    2   11 1
   6    3    4 ar
   7    3   33 1
   8    4    5 ar
   9    4   34 1
  10    5    6 ar
  11    5   21 1
  12    6    7 ar
  13    6   18 1
  14    7   35 1
  15    8    9 1
  16    9   10 2
  17    9   12 1
  18   10   11 1
  19   12   13 ar
  20   12   17 ar
  21   13   14 ar
  22   13   26 1
  23   14   15 ar
  24   14   24 1
  25   15   16 ar
  26   15   36 1
  27   16   17 ar
  28   16   37 1
  29   17   38 1
  30   18   19 1
  31   19   20 1
  32   19   39 1
  33   19   40 1
  34   20   41 1
  35   20   42 1
  36   20   43 1
  37   21   22 1
  38   22   23 1
  39   22   44 1
  40   22   45 1
  41   23   46 1
  42   23   47 1
  43   23   48 1
  44   24   25 1
  45   24   27 1
  46   24   49 1
  47   25   26 1
  48   25   50 1
  49   25   51 1
  50   26   52 1
  51   26   53 1
  52   27   28 1
  53   27   31 1
  54   28   29 1
  55   28   54 1
  56   28   55 1
  57   29   30 1
  58   29   56 1
  59   29   57 1
  60   30   31 1
  61   30   32 1
  62   30   58 1
  63   31   59 1
  64   31   60 1
  65   32   61 1

#	End of record

