#	Name: ASD02038850
#	Creating user name:	WinNT
#	Creation time:	15. 06. 2019 20:17

#	Modifying user name:	WinNT
#	Modification time:	15. 06. 2019 20:17

#	Program:	/corina/corina34_cracker 3.40 0067  02.08.2006

@<TRIPOS>MOLECULE
ASD02038850
  49   51    0    0    0
SMALL
NO_CHARGES


@<TRIPOS>ATOM
   1 C1            -1.2779    -0.8510     0.4633 C.2     
   2 C2            -0.0616    -0.0356     0.3014 C.2     
   3 N3             1.1367    -0.6346     0.1544 N.am    
   4 C4             1.2436    -2.0925     0.2510 C.3     
   5 C5             1.2178    -2.6908    -1.1320 C.ar    
   6 C6             2.4026    -3.0109    -1.7679 C.ar    
   7 C7             2.3807    -3.5598    -3.0365 C.ar    
   8 C8             1.1718    -3.7889    -3.6703 C.ar    
   9 C9            -0.0155    -3.4677    -3.0322 C.ar    
  10 C10            0.0090    -2.9241    -1.7612 C.ar    
  11 C11            2.3324     0.1721    -0.1019 C.3     
  12 C12            2.1200     1.0171    -1.3618 C.3     
  13 C13            3.3418     1.9140    -1.5773 C.3     
  14 O14            3.5401     2.7321    -0.4225 O.3     
  15 C15            3.7906     1.9971     0.7772 C.3     
  16 C16            2.5868     1.1035     1.0872 C.3     
  17 O17           -0.1389     1.1782     0.3005 O.2     
  18 N18           -1.3369    -2.2070     0.4930 N.2     
  19 C19           -2.5767    -2.5711     0.6502 C.2     
  20 N20           -3.3571    -1.4618     0.7270 N.pl3   
  21 C21           -2.5494    -0.3810     0.6166 C.2     
  22 C22           -4.8112    -1.4391     0.9039 C.3     
  23 Br23          -1.6684    -3.7797    -3.8960 Br      
  24 F24            1.1494    -4.3248    -4.9103 F       
  25 C25            5.0366     1.1286     0.5928 C.3     
  26 C26            4.0144     2.9716     1.9353 C.3     
  27 H27            2.1794    -2.3564     0.7436 H       
  28 H28            0.4059    -2.4806     0.8304 H       
  29 H29            3.3459    -2.8319    -1.2736 H       
  30 H30            3.3068    -3.8094    -3.5330 H       
  31 H31           -0.9160    -2.6735    -1.2632 H       
  32 H32            3.1914    -0.4838    -0.2433 H       
  33 H33            1.9931     0.3613    -2.2231 H       
  34 H34            1.2309     1.6358    -1.2399 H       
  35 H35            4.2236     1.2942    -1.7395 H       
  36 H36            3.1779     2.5484    -2.4484 H       
  37 H37            1.7071     1.7240     1.2587 H       
  38 H38            2.7937     0.5095     1.9774 H       
  39 H39           -2.9282    -3.5905     0.7097 H       
  40 H40           -2.8542     0.6549     0.6382 H       
  41 H41           -5.0475    -1.4161     1.9678 H       
  42 H42           -5.2222    -0.5524     0.4213 H       
  43 H43           -5.2459    -2.3319     0.4544 H       
  44 H44            5.8934     1.7649     0.3710 H       
  45 H45            5.2275     0.5681     1.5079 H       
  46 H46            4.8766     0.4342    -0.2320 H       
  47 H47            3.1263     3.5898     2.0667 H       
  48 H48            4.2054     2.4108     2.8503 H       
  49 H49            4.8708     3.6084     1.7139 H       
@<TRIPOS>BOND
   1    1    2 1
   2    1   18 1
   3    1   21 2
   4    2    3 am
   5    2   17 2
   6    3    4 1
   7    3   11 1
   8    4    5 1
   9    4   27 1
  10    4   28 1
  11    5    6 ar
  12    5   10 ar
  13    6    7 ar
  14    6   29 1
  15    7    8 ar
  16    7   30 1
  17    8    9 ar
  18    8   24 1
  19    9   10 ar
  20    9   23 1
  21   10   31 1
  22   11   12 1
  23   11   16 1
  24   11   32 1
  25   12   13 1
  26   12   33 1
  27   12   34 1
  28   13   14 1
  29   13   35 1
  30   13   36 1
  31   14   15 1
  32   15   16 1
  33   15   25 1
  34   15   26 1
  35   16   37 1
  36   16   38 1
  37   18   19 2
  38   19   20 1
  39   19   39 1
  40   20   21 1
  41   20   22 1
  42   21   40 1
  43   22   41 1
  44   22   42 1
  45   22   43 1
  46   25   44 1
  47   25   45 1
  48   25   46 1
  49   26   47 1
  50   26   48 1
  51   26   49 1

#	End of record

