#	Name: ASD01911090
#	Creating user name:	WinNT
#	Creation time:	15. 06. 2019 19:57

#	Modifying user name:	WinNT
#	Modification time:	15. 06. 2019 19:57

#	Program:	/corina/corina34_cracker 3.40 0067  02.08.2006

@<TRIPOS>MOLECULE
ASD01911090
  45   48    0    0    0
SMALL
NO_CHARGES


@<TRIPOS>ATOM
   1 O1            -0.5247     1.5819     0.4617 O.3     
   2 C2            -0.4286     0.2447     0.2575 C.2     
   3 N3            -1.4061    -0.6656     0.4464 N.2     
   4 C4            -0.8769    -1.8220     0.1291 C.2     
   5 O5             0.3866    -1.5868    -0.2377 O.3     
   6 N6             0.6249    -0.3998    -0.1634 N.2     
   7 C7            -1.5631    -3.1630     0.1706 C.3     
   8 C8            -1.5629    -3.7804    -1.2297 C.3     
   9 C9            -2.2884    -5.1275    -1.1952 C.3     
  10 C10           -1.5486    -6.0773    -0.2480 C.3     
  11 N11           -1.4169    -5.4291     1.0640 N.am    
  12 C12           -0.8150    -4.0906     1.1333 C.3     
  13 C13           -1.8402    -6.0505     2.1825 C.2     
  14 O14           -1.6574    -5.5372     3.2692 O.2     
  15 C15           -2.5264    -7.3553     2.0879 C.ar    
  16 C16           -2.0034    -8.3649     1.2771 C.ar    
  17 C17           -2.6477    -9.5804     1.1925 C.ar    
  18 C18           -3.8130    -9.8018     1.9106 C.ar    
  19 C19           -4.3368    -8.8026     2.7168 C.ar    
  20 C20           -3.6972    -7.5855     2.8135 C.ar    
  21 F21           -4.4405   -10.9950     1.8241 F       
  22 C22            0.6048     2.3283     0.3428 C.ar    
  23 C23            1.8337     1.7070     0.1734 C.ar    
  24 C24            2.9803     2.4680     0.0529 C.ar    
  25 C25            2.9040     3.8477     0.1015 C.ar    
  26 C26            1.6806     4.4694     0.2707 C.ar    
  27 C27            0.5302     3.7131     0.3851 C.ar    
  28 H28           -2.5904    -3.0356     0.5120 H       
  29 H29           -2.0733    -3.1107    -1.9219 H       
  30 H30           -0.5352    -3.9299    -1.5606 H       
  31 H31           -3.3089    -4.9821    -0.8408 H       
  32 H32           -2.3084    -5.5557    -2.1974 H       
  33 H33           -2.1146    -7.0029    -0.1431 H       
  34 H34           -0.5587    -6.2953    -0.6488 H       
  35 H35            0.2347    -4.1466     0.8452 H       
  36 H36           -0.8970    -3.7053     2.1497 H       
  37 H37           -1.0960    -8.1934     0.7171 H       
  38 H38           -2.2443   -10.3618     0.5655 H       
  39 H39           -5.2450    -8.9801     3.2737 H       
  40 H40           -4.1059    -6.8081     3.4420 H       
  41 H41            1.8938     0.6293     0.1361 H       
  42 H42            3.9371     1.9848    -0.0790 H       
  43 H43            3.8016     4.4409     0.0074 H       
  44 H44            1.6237     5.5472     0.3087 H       
  45 H45           -0.4252     4.1991     0.5173 H       
@<TRIPOS>BOND
   1    1    2 1
   2    1   22 1
   3    2    3 1
   4    2    6 2
   5    3    4 2
   6    4    5 1
   7    4    7 1
   8    5    6 1
   9    7    8 1
  10    7   12 1
  11    7   28 1
  12    8    9 1
  13    8   29 1
  14    8   30 1
  15    9   10 1
  16    9   31 1
  17    9   32 1
  18   10   11 1
  19   10   33 1
  20   10   34 1
  21   11   12 1
  22   11   13 am
  23   12   35 1
  24   12   36 1
  25   13   14 2
  26   13   15 1
  27   15   16 ar
  28   15   20 ar
  29   16   17 ar
  30   16   37 1
  31   17   18 ar
  32   17   38 1
  33   18   19 ar
  34   18   21 1
  35   19   20 ar
  36   19   39 1
  37   20   40 1
  38   22   23 ar
  39   22   27 ar
  40   23   24 ar
  41   23   41 1
  42   24   25 ar
  43   24   42 1
  44   25   26 ar
  45   25   43 1
  46   26   27 ar
  47   26   44 1
  48   27   45 1

#	End of record

