#	Name: ASD00990057
#	Creating user name:	WinNT
#	Creation time:	15. 06. 2019 18:54

#	Modifying user name:	WinNT
#	Modification time:	15. 06. 2019 18:54

#	Program:	/corina/corina34_cracker 3.40 0067  02.08.2006

@<TRIPOS>MOLECULE
ASD00990057
  21   21    0    0    0
SMALL
NO_CHARGES


@<TRIPOS>ATOM
   1 C1            -0.3900     0.7360    -1.0979 C.ar    
   2 C2             0.0022    -0.0038     0.0031 C.ar    
   3 C3            -0.8101    -0.0717     1.1202 C.ar    
   4 C4            -2.0204     0.6022     1.1401 C.ar    
   5 C5            -2.4176     1.3480     0.0335 C.ar    
   6 C6            -1.5961     1.4169    -1.0838 C.ar    
   7 F7            -1.9772     2.1396    -2.1597 F       
   8 O8            -2.8194     0.5350     2.2386 O.3     
   9 N9            -3.6425     2.0322     0.0491 N.am    
  10 Cl10           0.6345     0.8170    -2.4970 Cl      
  11 C11           -3.6921     3.3161     0.4562 C.2     
  12 O12           -2.6943     3.8533     0.8950 O.2     
  13 O13           -4.8473     4.0035     0.3766 O.3     
  14 C14           -4.8270     5.3817     0.8329 C.3     
  15 H15            0.9452    -0.5301    -0.0098 H       
  16 H16           -0.5008    -0.6508     1.9777 H       
  17 H17           -2.6487     1.2272     2.8920 H       
  18 H18           -4.4536     1.5811    -0.2330 H       
  19 H19           -4.1073     5.9492     0.2430 H       
  20 H20           -5.8187     5.8183     0.7144 H       
  21 H21           -4.5398     5.4123     1.8840 H       
@<TRIPOS>BOND
   1    1    2 ar
   2    1   10 1
   3    1    6 ar
   4    2    3 ar
   5    2   15 1
   6    3    4 ar
   7    3   16 1
   8    4    5 ar
   9    4    8 1
  10    5    6 ar
  11    5    9 1
  12    6    7 1
  13    8   17 1
  14    9   11 am
  15    9   18 1
  16   11   12 2
  17   11   13 1
  18   13   14 1
  19   14   19 1
  20   14   20 1
  21   14   21 1

#	End of record

