#	Name: ASD00311025
#	Creating user name:	WinNT
#	Creation time:	15. 06. 2019 18:34

#	Modifying user name:	WinNT
#	Modification time:	15. 06. 2019 18:34

#	Program:	/corina/corina34_cracker 3.40 0067  02.08.2006

@<TRIPOS>MOLECULE
ASD00311025
  32   34    0    0    0
SMALL
NO_CHARGES


@<TRIPOS>ATOM
   1 C1            -0.0167     1.3824     0.0096 C.ar    
   2 C2             0.0021    -0.0041     0.0020 C.ar    
   3 C3             1.2188    -0.6670    -0.0132 C.ar    
   4 N4             2.3520     0.0007    -0.0204 N.ar    
   5 C5             2.3781     1.3279    -0.0135 C.ar    
   6 C6             1.1918     2.0598     0.0017 C.ar    
   7 C7             4.9288     1.2741    -0.0382 C.2     
   8 C8             3.6788     2.0371    -0.0221 C.2     
   9 C9             8.5974     1.8416    -0.0701 C.ar    
  10 C10            7.3708     1.1527    -0.0621 C.ar    
  11 C11            6.1136     1.9201    -0.0460 C.2     
  12 C12            9.7672     1.1420    -0.0850 C.ar    
  13 C13            9.7039    -0.2656    -0.0920 C.ar    
  14 C14            8.4350    -0.9016    -0.0838 C.ar    
  15 N15            7.3219    -0.1683    -0.0692 N.ar    
  16 O16            3.7085     3.2532    -0.0159 O.2     
  17 C17            8.3752    -2.3082    -0.0908 C.ar    
  18 C18            9.5269    -3.0325    -0.1053 C.ar    
  19 C19           10.7711    -2.4049    -0.1132 C.ar    
  20 C20           10.8696    -1.0463    -0.1077 C.ar    
  21 H21           -0.9523     1.9219     0.0170 H       
  22 H22           -0.9227    -0.5619     0.0082 H       
  23 H23            1.2369    -1.7469    -0.0188 H       
  24 H24            1.2144     3.1396     0.0077 H       
  25 H25            4.9024     0.1944    -0.0437 H       
  26 H26            8.6122     2.9215    -0.0690 H       
  27 H27            6.1400     2.9997    -0.0405 H       
  28 H28           10.7183     1.6536    -0.0917 H       
  29 H29            7.4190    -2.8102    -0.0844 H       
  30 H30            9.4759    -4.1113    -0.1102 H       
  31 H31           11.6697    -3.0039    -0.1243 H       
  32 H32           11.8401    -0.5724    -0.1147 H       
@<TRIPOS>BOND
   1    1    2 ar
   2    1    6 ar
   3    1   21 1
   4    2    3 ar
   5    2   22 1
   6    3    4 ar
   7    3   23 1
   8    4    5 ar
   9    5    6 ar
  10    5    8 1
  11    6   24 1
  12    7    8 1
  13    7   11 2
  14    7   25 1
  15    8   16 2
  16    9   10 ar
  17    9   12 ar
  18    9   26 1
  19   10   11 1
  20   10   15 ar
  21   11   27 1
  22   12   13 ar
  23   12   28 1
  24   13   14 ar
  25   13   20 ar
  26   14   15 ar
  27   14   17 ar
  28   17   18 ar
  29   17   29 1
  30   18   19 ar
  31   18   30 1
  32   19   20 ar
  33   19   31 1
  34   20   32 1

#	End of record

