#	Name: ASD01816839
#	Creating user name:	WinNT
#	Creation time:	15. 06. 2019 19:36

#	Modifying user name:	WinNT
#	Modification time:	15. 06. 2019 19:36

#	Program:	/corina/corina34_cracker 3.40 0067  02.08.2006

@<TRIPOS>MOLECULE
ASD01816839
  51   54    0    0    0
SMALL
NO_CHARGES


@<TRIPOS>ATOM
   1 C1            -0.0168     1.3897     0.0097 C.ar    
   2 C2             0.0021    -0.0041     0.0020 C.ar    
   3 C3             1.1796    -0.6877    -0.0129 C.ar    
   4 C4             2.3927     0.0187    -0.0207 C.ar    
   5 C5             2.3768     1.4381    -0.0130 C.ar    
   6 C6             1.1385     2.1078     0.0025 C.ar    
   7 C7             3.6297    -0.6529    -0.0357 C.ar    
   8 C8             4.7711     0.0956    -0.0422 C.ar    
   9 C9             4.6871     1.4959    -0.0340 C.ar    
  10 N10            3.5238     2.1168    -0.0199 N.ar    
  11 C11            5.9353     2.2963    -0.0412 C.2     
  12 N12            5.8725     3.6426    -0.0335 N.am    
  13 O13            7.0146     1.7386    -0.0541 O.2     
  14 C14            7.1057     4.4335    -0.0406 C.3     
  15 C15            7.5916     4.6119    -1.4823 C.3     
  16 C16            6.8338     5.8121     0.5692 C.3     
  17 C17            8.1068     6.6584     0.4857 C.3     
  18 O18            8.5218     6.7590    -0.8780 O.3     
  19 C19            8.8354     5.5045    -1.4865 C.3     
  20 O20            6.4492     5.6617     1.9372 O.3     
  21 C21            3.6922    -2.1586    -0.0438 C.3     
  22 C22            3.5760    -2.6586    -1.4607 C.ar    
  23 C23            4.7074    -2.8410    -2.2335 C.ar    
  24 C24            2.3335    -2.9468    -2.0037 C.ar    
  25 C25            2.2747    -3.4043    -3.3114 C.ar    
  26 C26            3.4482    -3.5566    -4.0249 C.ar    
  27 N27            4.6137    -3.2780    -3.4740 N.ar    
  28 C28            3.3963    -4.0536    -5.4467 C.3     
  29 F29            3.2797    -2.9647    -6.3173 F       
  30 F30            4.5688    -4.7594    -5.7371 F       
  31 F31            2.2922    -4.8980    -5.6055 F       
  32 H32           -0.9643     1.9080     0.0170 H       
  33 H33           -0.9302    -0.5493     0.0084 H       
  34 H34            1.1803    -1.7677    -0.0184 H       
  35 H35            1.1059     3.1873     0.0090 H       
  36 H36            5.7363    -0.3889    -0.0533 H       
  37 H37            5.0108     4.0879    -0.0231 H       
  38 H38            7.8712     3.9204     0.5414 H       
  39 H39            7.8402     3.6388    -1.9059 H       
  40 H40            6.8061     5.0788    -2.0763 H       
  41 H41            6.0329     6.3033     0.0166 H       
  42 H42            7.9072     7.6551     0.8793 H       
  43 H43            8.8957     6.1872     1.0719 H       
  44 H44            9.6338     5.0182    -0.9261 H       
  45 H45            9.1606     5.6699    -2.5136 H       
  46 H46            6.2613     6.4969     2.3870 H       
  47 H47            4.6418    -2.4851     0.3800 H       
  48 H48            2.8717    -2.5595     0.5513 H       
  49 H49            5.6795    -2.6226    -1.8166 H       
  50 H50            1.4327    -2.8184    -1.4219 H       
  51 H51            1.3237    -3.6389    -3.7665 H       
@<TRIPOS>BOND
   1    1    2 ar
   2    1    6 ar
   3    1   32 1
   4    2    3 ar
   5    2   33 1
   6    3    4 ar
   7    3   34 1
   8    4    5 ar
   9    4    7 ar
  10    5    6 ar
  11    5   10 ar
  12    6   35 1
  13    7    8 ar
  14    7   21 1
  15    8    9 ar
  16    8   36 1
  17    9   10 ar
  18    9   11 1
  19   11   12 am
  20   11   13 2
  21   12   14 1
  22   12   37 1
  23   14   15 1
  24   14   16 1
  25   14   38 1
  26   15   19 1
  27   15   39 1
  28   15   40 1
  29   16   17 1
  30   16   20 1
  31   16   41 1
  32   17   18 1
  33   17   42 1
  34   17   43 1
  35   18   19 1
  36   19   44 1
  37   19   45 1
  38   20   46 1
  39   21   22 1
  40   21   47 1
  41   21   48 1
  42   22   23 ar
  43   22   24 ar
  44   23   27 ar
  45   23   49 1
  46   24   25 ar
  47   24   50 1
  48   25   26 ar
  49   25   51 1
  50   26   27 ar
  51   26   28 1
  52   28   29 1
  53   28   30 1
  54   28   31 1

#	End of record

