#	Name: ASD01883951
#	Creating user name:	WinNT
#	Creation time:	15. 06. 2019 19:47

#	Modifying user name:	WinNT
#	Modification time:	15. 06. 2019 19:47

#	Program:	/corina/corina34_cracker 3.40 0067  02.08.2006

@<TRIPOS>MOLECULE
ASD01883951
  56   60    0    0    0
SMALL
NO_CHARGES


@<TRIPOS>ATOM
   1 C1            -1.7806     1.6425     1.2970 C.3     
   2 C2            -1.9549     0.1513     1.0020 C.3     
   3 C3            -1.9245    -0.0773    -0.5115 C.3     
   4 O4            -0.6433     0.3031    -1.0204 O.3     
   5 C5             0.4457    -0.4136    -0.4324 C.3     
   6 C6             0.4394    -0.1883     1.0819 C.3     
   7 N7            -0.8604    -0.6042     1.6286 N.3     
   8 C8            -0.8884    -0.4571     3.0899 C.3     
   9 C9            -0.0030    -1.5030     3.7171 C.2     
  10 C10           -0.2384    -2.8665     3.4706 C.2     
  11 C11            0.5514    -3.8072     4.0298 C.2     
  12 N12            1.5876    -3.4485     4.8406 N.pl3   
  13 C13            2.5291    -4.1503     5.5280 C.2     
  14 C14            2.6722    -5.6500     5.5645 C.3     
  15 C15            3.5976    -6.1017     4.4329 C.3     
  16 C16            4.9151    -6.7743     4.8236 C.3     
  17 C17            3.7788    -7.6068     4.2266 C.3     
  18 N18            3.2875    -3.2856     6.1510 N.2     
  19 N19            2.8913    -2.0862     5.9055 N.2     
  20 C20            1.8424    -2.1241     5.1000 C.2     
  21 C21            1.0305    -1.1308     4.5193 C.2     
  22 C22            1.2998     0.3273     4.7883 C.3     
  23 F23            0.3477     0.8193     5.6876 F       
  24 F24            2.5783     0.4719     5.3375 F       
  25 F25            1.2233     1.0446     3.5896 F       
  26 C26           -3.2742    -0.3205     1.5567 C.ar    
  27 C27           -4.1009     0.5657     2.2206 C.ar    
  28 C28           -5.3116     0.1343     2.7296 C.ar    
  29 C29           -5.6972    -1.1864     2.5747 C.ar    
  30 F30           -6.8807    -1.6075     3.0719 F       
  31 C31           -4.8698    -2.0751     1.9098 C.ar    
  32 C32           -3.6602    -1.6408     1.3960 C.ar    
  33 F33           -2.8541    -2.5058     0.7424 F       
  34 H34           -0.8269     1.9835     0.8942 H       
  35 H35           -2.5923     2.2021     0.8322 H       
  36 H36           -1.7984     1.8041     2.3748 H       
  37 H37           -2.1022    -1.1315    -0.7240 H       
  38 H38           -2.6984     0.5258    -0.9863 H       
  39 H39            0.3370    -1.4776    -0.6426 H       
  40 H40            1.3861    -0.0537    -0.8499 H       
  41 H41            1.2328    -0.7782     1.5410 H       
  42 H42            0.6018     0.8685     1.2934 H       
  43 H43           -0.5279     0.5348     3.3622 H       
  44 H44           -1.9099    -0.5835     3.4484 H       
  45 H45           -1.0561    -3.1632     2.8305 H       
  46 H46            0.3612    -4.8521     3.8339 H       
  47 H47            3.0960    -5.9514     6.5225 H       
  48 H48            1.6928    -6.1117     5.4391 H       
  49 H49            3.5992    -5.4683     3.5457 H       
  50 H50            5.7839    -6.5834     4.1935 H       
  51 H51            5.1227    -6.8950     5.8868 H       
  52 H52            3.2387    -8.2753     4.8971 H       
  53 H53            3.8999    -7.9637     3.2038 H       
  54 H54           -3.8008     1.5960     2.3422 H       
  55 H55           -5.9567     0.8277     3.2486 H       
  56 H56           -5.1697    -3.1054     1.7885 H       
@<TRIPOS>BOND
   1    1    2 1
   2    1   34 1
   3    1   35 1
   4    1   36 1
   5    2    7 1
   6    2    3 1
   7    2   26 1
   8    3    4 1
   9    3   37 1
  10    3   38 1
  11    4    5 1
  12    5    6 1
  13    5   39 1
  14    5   40 1
  15    6    7 1
  16    6   41 1
  17    6   42 1
  18    7    8 1
  19    8    9 1
  20    8   43 1
  21    8   44 1
  22    9   21 2
  23    9   10 1
  24   10   11 2
  25   10   45 1
  26   11   12 1
  27   11   46 1
  28   12   20 1
  29   12   13 1
  30   13   14 1
  31   13   18 2
  32   14   15 1
  33   14   47 1
  34   14   48 1
  35   15   17 1
  36   15   16 1
  37   15   49 1
  38   16   17 1
  39   16   50 1
  40   16   51 1
  41   17   52 1
  42   17   53 1
  43   18   19 1
  44   19   20 2
  45   20   21 1
  46   21   22 1
  47   22   23 1
  48   22   24 1
  49   22   25 1
  50   26   32 ar
  51   26   27 ar
  52   27   28 ar
  53   27   54 1
  54   28   29 ar
  55   28   55 1
  56   29   30 1
  57   29   31 ar
  58   31   32 ar
  59   31   56 1
  60   32   33 1

#	End of record

