#	Name: ASD01870245
#	Creating user name:	WinNT
#	Creation time:	15. 06. 2019 19:38

#	Modifying user name:	WinNT
#	Modification time:	15. 06. 2019 19:38

#	Program:	/corina/corina34_cracker 3.40 0067  02.08.2006

@<TRIPOS>MOLECULE
ASD01870245
  49   52    0    0    0
SMALL
NO_CHARGES


@<TRIPOS>ATOM
   1 C1             0.3042     1.4175     0.9669 C.ar    
   2 N2             0.2322     0.0844     1.0364 N.ar    
   3 C3             1.2934    -0.6662     0.8671 C.ar    
   4 C4             2.5469    -0.1165     0.6067 C.ar    
   5 C5             2.6918     1.2389     0.5224 C.ar    
   6 C6             1.5493     2.0422     0.7050 C.ar    
   7 C7             1.6243     3.4408     0.6316 C.ar    
   8 C8             0.4794     4.1929     0.8164 C.ar    
   9 C9            -0.7498     3.5659     1.0759 C.ar    
  10 C10           -0.8427     2.2129     1.1448 C.ar    
  11 C11            1.1540    -2.1641     0.9568 C.3     
  12 C12            0.5661    -2.5409     2.3181 C.3     
  13 C13            0.5483    -4.0640     2.4620 C.3     
  14 C14            1.4240    -1.9336     3.4299 C.3     
  15 O15           -0.7677    -2.0375     2.4168 O.3     
  16 C16            0.5499     5.6732     0.7404 C.2     
  17 C17           -0.4218     6.4902     0.2479 C.2     
  18 N18            1.5787     6.4290     1.1505 N.2     
  19 N19            1.3176     7.6723     0.9423 N.2     
  20 N20            0.0434     7.7641     0.3633 N.pl3   
  21 C21           -1.7535     6.0662    -0.3160 C.3     
  22 C22           -0.6222     8.9384    -0.0184 C.ar    
  23 C23           -2.6343    10.2363    -0.1461 C.ar    
  24 C24           -1.9807     9.0793     0.2300 C.ar    
  25 C25            0.0780     9.9635    -0.6398 C.ar    
  26 C26           -0.5789    11.1191    -1.0145 C.ar    
  27 C27           -1.9352    11.2558    -0.7702 C.ar    
  28 F28           -2.5763    12.3866    -1.1382 F       
  29 H29            3.4028    -0.7612     0.4721 H       
  30 H30            3.6558     1.6825     0.3217 H       
  31 H31            2.5685     3.9259     0.4328 H       
  32 H32           -1.6349     4.1681     1.2183 H       
  33 H33           -1.7972     1.7470     1.3404 H       
  34 H34            0.4920    -2.5154     0.1653 H       
  35 H35            2.1339    -2.6277     0.8433 H       
  36 H36            1.5540    -4.4552     2.3086 H       
  37 H37            0.2032    -4.3306     3.4610 H       
  38 H38           -0.1251    -4.4913     1.7190 H       
  39 H39            1.4366    -0.8485     3.3274 H       
  40 H40            1.0051    -2.2020     4.3998 H       
  41 H41            2.4413    -2.3176     3.3546 H       
  42 H42           -0.8324    -1.0762     2.3343 H       
  43 H43           -2.4986     6.0571     0.4795 H       
  44 H44           -2.0593     6.7676    -1.0922 H       
  45 H45           -1.6657     5.0672    -0.7431 H       
  46 H46           -3.6912    10.3462     0.0470 H       
  47 H47           -2.5263     8.2843     0.7167 H       
  48 H48            1.1358     9.8575    -0.8298 H       
  49 H49           -0.0345    11.9168    -1.4979 H       
@<TRIPOS>BOND
   1    1    2 ar
   2    1    6 ar
   3    1   10 ar
   4    2    3 ar
   5    3    4 ar
   6    3   11 1
   7    4    5 ar
   8    4   29 1
   9    5    6 ar
  10    5   30 1
  11    6    7 ar
  12    7    8 ar
  13    7   31 1
  14    8    9 ar
  15    8   16 1
  16    9   10 ar
  17    9   32 1
  18   10   33 1
  19   11   12 1
  20   11   34 1
  21   11   35 1
  22   12   13 1
  23   12   14 1
  24   12   15 1
  25   13   36 1
  26   13   37 1
  27   13   38 1
  28   14   39 1
  29   14   40 1
  30   14   41 1
  31   15   42 1
  32   16   18 1
  33   16   17 2
  34   17   20 1
  35   17   21 1
  36   18   19 2
  37   19   20 1
  38   20   22 1
  39   21   43 1
  40   21   44 1
  41   21   45 1
  42   22   25 ar
  43   22   24 ar
  44   23   24 ar
  45   23   27 ar
  46   23   46 1
  47   24   47 1
  48   25   26 ar
  49   25   48 1
  50   26   27 ar
  51   26   49 1
  52   27   28 1

#	End of record

