#	Name: ASD08070260
#	Creating user name:	WinNT
#	Creation time:	15. 06. 2019 21:14

#	Modifying user name:	WinNT
#	Modification time:	15. 06. 2019 21:14

#	Program:	/corina/corina34_cracker 3.40 0067  02.08.2006

@<TRIPOS>MOLECULE
ASD08070260
  40   41    0    0    0
SMALL
NO_CHARGES


@<TRIPOS>ATOM
   1 C1            -0.0179     1.4718     0.0101 C.2     
   2 C2             0.0021    -0.0041     0.0020 C.ar    
   3 C3             1.2206    -0.6881    -0.0133 C.ar    
   4 C4             1.2351    -2.0649    -0.0209 C.ar    
   5 C5             0.0396    -2.7744    -0.0138 C.ar    
   6 C6            -1.1742    -2.0979     0.0014 C.ar    
   7 C7            -1.1971    -0.7209     0.0154 C.ar    
   8 O8             1.0266     2.0940     0.0035 O.2     
   9 N9            -1.1942     2.1298     0.0193 N.am    
  10 C10            2.5485    -2.8035    -0.0374 C.3     
  11 O11            0.0580    -4.1314    -0.0222 O.3     
  12 C12           -1.2062    -4.7974    -0.0142 C.3     
  13 C13           -1.2140     3.5946     0.0273 C.3     
  14 C14           -2.6633     4.0849     0.0369 C.3     
  15 S15           -2.6879     5.8987     0.0469 S.3     
  16 C16           -4.4608     6.2827     0.0574 C.3     
  17 O17           -4.7444     8.5509     1.1605 O.3     
  18 C18           -4.6509     7.7777     0.0664 C.2     
  19 C19           -4.7553     8.5639    -1.0200 C.2     
  20 C20           -4.9214     9.8880    -0.5529 C.2     
  21 C21           -4.9085     9.8317     0.7910 C.2     
  22 H22            2.1498    -0.1376    -0.0195 H       
  23 H23           -2.1008    -2.6527     0.0069 H       
  24 H24           -2.1407    -0.1959     0.0317 H       
  25 H25           -2.0275     1.6334     0.0205 H       
  26 H26            2.8750    -2.9872     0.9862 H       
  27 H27            2.4240    -3.7546    -0.5552 H       
  28 H28            3.2965    -2.2031    -0.5551 H       
  29 H29           -1.7587    -4.5175     0.8828 H       
  30 H30           -1.7756    -4.5067    -0.8970 H       
  31 H31           -1.0488    -5.8759    -0.0222 H       
  32 H32           -0.7010     3.9600     0.9169 H       
  33 H33           -0.7094     3.9697    -0.8630 H       
  34 H34           -3.1764     3.7195    -0.8527 H       
  35 H35           -3.1679     3.7098     0.9272 H       
  36 H36           -4.9289     5.8623    -0.8327 H       
  37 H37           -4.9204     5.8526     0.9472 H       
  38 H38           -4.7187     8.2451    -2.0512 H       
  39 H39           -5.0362    10.7746    -1.1588 H       
  40 H40           -5.0125    10.6735     1.4595 H       
@<TRIPOS>BOND
   1    1    2 1
   2    1    8 2
   3    1    9 am
   4    2    3 ar
   5    2    7 ar
   6    3    4 ar
   7    3   22 1
   8    4    5 ar
   9    4   10 1
  10    5    6 ar
  11    5   11 1
  12    6    7 ar
  13    6   23 1
  14    7   24 1
  15    9   13 1
  16    9   25 1
  17   10   26 1
  18   10   27 1
  19   10   28 1
  20   11   12 1
  21   12   29 1
  22   12   30 1
  23   12   31 1
  24   13   14 1
  25   13   32 1
  26   13   33 1
  27   14   15 1
  28   14   34 1
  29   14   35 1
  30   15   16 1
  31   16   18 1
  32   16   36 1
  33   16   37 1
  34   17   18 1
  35   17   21 1
  36   18   19 2
  37   19   20 1
  38   19   38 1
  39   20   21 2
  40   20   39 1
  41   21   40 1

#	End of record

