#	Name: ASD01410382
#	Creating user name:	WinNT
#	Creation time:	15. 06. 2019 19:17

#	Modifying user name:	WinNT
#	Modification time:	15. 06. 2019 19:17

#	Program:	/corina/corina34_cracker 3.40 0067  02.08.2006

@<TRIPOS>MOLECULE
ASD01410382
  24   25    0    0    0
SMALL
NO_CHARGES


@<TRIPOS>ATOM
   1 S1             0.1254     1.7761     0.8530 S.3     
   2 C2             0.1981     0.0125     1.0115 C.2     
   3 N3             1.4363    -0.3593     0.6679 N.am    
   4 C4             2.3155     0.5589     0.3027 C.2     
   5 C5             1.8095     1.9400     0.3171 C.2     
   6 O6             3.4555     0.2824    -0.0199 O.2     
   7 S7            -1.0740    -1.0190     1.5103 S.2     
   8 C8             2.4763     3.0768    -0.0051 C.2     
   9 C9             1.7543     4.3532    -0.0880 C.ar    
  10 C10            2.4531     5.5622     0.0220 C.ar    
  11 C11            1.7808     6.7483    -0.0557 C.ar    
  12 C12            0.3952     6.7562    -0.2446 C.ar    
  13 C13           -0.3037     5.5498    -0.3541 C.ar    
  14 C14            0.3672     4.3625    -0.2829 C.ar    
  15 N15            1.7905    -1.6783     0.6945 N.3     
  16 C16           -0.3087     8.0006    -0.3254 C.1     
  17 N17           -0.8671     8.9878    -0.3896 N.1     
  18 H18            3.5379     3.0433    -0.2005 H       
  19 H19            3.5231     5.5564     0.1686 H       
  20 H20            2.3193     7.6806     0.0290 H       
  21 H21           -1.3739     5.5572    -0.4992 H       
  22 H22           -0.1721     3.4311    -0.3723 H       
  23 H23            1.0173    -2.2544     0.9918 H       
  24 H24            2.1396    -1.9772    -0.2038 H       
@<TRIPOS>BOND
   1    1    2 1
   2    1    5 1
   3    2    3 am
   4    2    7 2
   5    3    4 am
   6    3   15 1
   7    4    5 1
   8    4    6 2
   9    5    8 2
  10    8    9 1
  11    8   18 1
  12    9   10 ar
  13    9   14 ar
  14   10   11 ar
  15   10   19 1
  16   11   12 ar
  17   11   20 1
  18   12   13 ar
  19   12   16 1
  20   13   14 ar
  21   13   21 1
  22   14   22 1
  23   15   23 1
  24   15   24 1
  25   16   17 3

#	End of record

