#	Name: ASD01880171
#	Creating user name:	WinNT
#	Creation time:	15. 06. 2019 19:40

#	Modifying user name:	WinNT
#	Modification time:	15. 06. 2019 19:40

#	Program:	/corina/corina34_cracker 3.40 0067  02.08.2006

@<TRIPOS>MOLECULE
ASD01880171
  70   74    0    0    0
SMALL
NO_CHARGES


@<TRIPOS>ATOM
   1 C1             0.2748     1.4461    -0.4290 C.ar    
   2 C2             0.1886     0.0788    -0.2574 C.ar    
   3 C3            -1.0534    -0.5332    -0.1110 C.ar    
   4 C4            -2.2104     0.2134    -0.1346 C.ar    
   5 C5            -2.1449     1.5919    -0.3059 C.ar    
   6 C6            -0.8915     2.2138    -0.4487 C.ar    
   7 O7             1.3213    -0.6733    -0.2317 O.3     
   8 C8             1.1610    -2.0817    -0.0508 C.3     
   9 C9             4.5066    -3.3165     3.4588 C.ar    
  10 C10            3.7276    -4.2423     4.1412 C.ar    
  11 C11            3.1000    -3.8852     5.3151 C.ar    
  12 C12            3.2477    -2.5919     5.8181 C.ar    
  13 C13            4.0311    -1.6643     5.1299 C.ar    
  14 C14            4.6558    -2.0282     3.9565 C.ar    
  15 C15            2.5752    -2.2048     7.0775 C.2     
  16 N16            1.8114    -2.9736     7.8254 N.2     
  17 N17            1.3869    -2.3253     8.8495 N.2     
  18 N18            1.8372    -1.1177     8.8353 N.2     
  19 N19            2.6336    -0.9928     7.6834 N.pl3   
  20 C20            1.6199     2.1068    -0.5879 C.3     
  21 C21            1.9918     2.1562    -2.0712 C.3     
  22 C22            3.3574     2.8270    -2.2325 C.3     
  23 N23           -3.1002     2.5845    -0.3704 N.pl3   
  24 C24           -2.4968     3.7987    -0.5525 C.2     
  25 C25           -1.1644     3.6443    -0.6075 C.2     
  26 C26           -4.5453     2.3705    -0.2603 C.3     
  27 C27           -4.9460     2.3450     1.2161 C.3     
  28 C28           -4.5768     3.6791     1.8679 C.3     
  29 C29           -6.4553     2.1216     1.3311 C.3     
  30 C30           -4.2068     1.2088     1.9256 C.3     
  31 C31            2.5141    -2.7451    -0.0487 C.ar    
  32 C32            3.2027    -2.9044     1.1379 C.ar    
  33 C33            4.4485    -3.5158     1.1392 C.ar    
  34 C34            4.9990    -3.9656    -0.0523 C.ar    
  35 C35            4.3060    -3.8038    -1.2365 C.ar    
  36 C36            3.0628    -3.1990    -1.2342 C.ar    
  37 O37            5.1282    -3.6733     2.3052 O.3     
  38 H38           -1.1100    -1.6035     0.0220 H       
  39 H39           -3.1686    -0.2717    -0.0204 H       
  40 H40            0.6619    -2.2714     0.8995 H       
  41 H41            0.5592    -2.4864    -0.8645 H       
  42 H42            3.6134    -5.2429     3.7512 H       
  43 H43            2.4942    -4.6054     5.8450 H       
  44 H44            4.1473    -0.6625     5.5161 H       
  45 H45            5.2625    -1.3110     3.4235 H       
  46 H46            3.1165    -0.2068     7.3835 H       
  47 H47            1.5759     3.1208    -0.1904 H       
  48 H48            2.3719     1.5355    -0.0436 H       
  49 H49            2.0358     1.1422    -2.4687 H       
  50 H50            1.2398     2.7275    -2.6155 H       
  51 H51            3.6224     2.8622    -3.2892 H       
  52 H52            3.3134     3.8409    -1.8350 H       
  53 H53            4.1094     2.2557    -1.6882 H       
  54 H54           -3.0155     4.7422    -0.6364 H       
  55 H55           -0.4323     4.4266    -0.7434 H       
  56 H56           -5.0719     3.1800    -0.7658 H       
  57 H57           -4.8083     1.4201    -0.7246 H       
  58 H58           -5.1035     4.4885     1.3624 H       
  59 H59           -4.8623     3.6609     2.9197 H       
  60 H60           -3.5016     3.8382     1.7860 H       
  61 H61           -6.7183     1.1712     0.8667 H       
  62 H62           -6.7408     2.1034     2.3829 H       
  63 H63           -6.9819     2.9310     0.8256 H       
  64 H64           -3.1316     1.3680     1.8437 H       
  65 H65           -4.4923     1.1906     2.9774 H       
  66 H66           -4.4698     0.2584     1.4613 H       
  67 H67            2.7721    -2.5530     2.0640 H       
  68 H68            5.9685    -4.4414    -0.0541 H       
  69 H69            4.7342    -4.1534    -2.1643 H       
  70 H70            2.5225    -3.0738    -2.1610 H       
@<TRIPOS>BOND
   1    1    2 ar
   2    1   20 1
   3    1    6 ar
   4    2    3 ar
   5    2    7 1
   6    3    4 ar
   7    3   38 1
   8    4    5 ar
   9    4   39 1
  10    5    6 ar
  11    5   23 1
  12    6   25 1
  13    7    8 1
  14    8   31 1
  15    8   40 1
  16    8   41 1
  17    9   10 ar
  18    9   14 ar
  19    9   37 1
  20   10   11 ar
  21   10   42 1
  22   11   12 ar
  23   11   43 1
  24   12   13 ar
  25   12   15 1
  26   13   14 ar
  27   13   44 1
  28   14   45 1
  29   15   16 2
  30   15   19 1
  31   16   17 1
  32   17   18 2
  33   18   19 1
  34   19   46 1
  35   20   21 1
  36   20   47 1
  37   20   48 1
  38   21   22 1
  39   21   49 1
  40   21   50 1
  41   22   51 1
  42   22   52 1
  43   22   53 1
  44   23   24 1
  45   23   26 1
  46   24   25 2
  47   24   54 1
  48   25   55 1
  49   26   27 1
  50   26   56 1
  51   26   57 1
  52   27   28 1
  53   27   29 1
  54   27   30 1
  55   28   58 1
  56   28   59 1
  57   28   60 1
  58   29   61 1
  59   29   62 1
  60   29   63 1
  61   30   64 1
  62   30   65 1
  63   30   66 1
  64   31   32 ar
  65   31   36 ar
  66   32   33 ar
  67   32   67 1
  68   33   34 ar
  69   33   37 1
  70   34   35 ar
  71   34   68 1
  72   35   36 ar
  73   35   69 1
  74   36   70 1

#	End of record

