#	Name: ASD01890266
#	Creating user name:	WinNT
#	Creation time:	15. 06. 2019 19:50

#	Modifying user name:	WinNT
#	Modification time:	15. 06. 2019 19:50

#	Program:	/corina/corina34_cracker 3.40 0067  02.08.2006

@<TRIPOS>MOLECULE
ASD01890266
  38   40    0    0    0
SMALL
NO_CHARGES


@<TRIPOS>ATOM
   1 C1            -0.0177     1.4571     0.0101 C.2     
   2 C2             0.0021    -0.0041     0.0020 C.2     
   3 C3             1.1820    -0.6641    -0.0128 C.2     
   4 O4             1.0282     2.0801     0.0034 O.2     
   5 C5            -1.3086     2.1792     0.0201 C.ar    
   6 C6            -1.3311     3.5751     0.0278 C.ar    
   7 C7            -2.5384     4.2423     0.0367 C.ar    
   8 C8            -3.7255     3.5311     0.0380 C.ar    
   9 C9            -3.7103     2.1474     0.0304 C.ar    
  10 C10           -2.5099     1.4679     0.0161 C.ar    
  11 C11            1.2394    -4.8971    -0.0352 C.ar    
  12 C12            2.4394    -4.1839    -0.0433 C.ar    
  13 C13            2.4235    -2.8181    -0.0362 C.ar    
  14 C14            1.2020    -2.1332    -0.0209 C.ar    
  15 C15           -0.0006    -2.8511    -0.0128 C.ar    
  16 C16            0.0206    -4.2169    -0.0199 C.ar    
  17 C17            1.2595    -6.3791    -0.0485 C.ar    
  18 C18            0.0632    -7.0954    -0.0405 C.ar    
  19 C19            0.0882    -8.4750    -0.0530 C.ar    
  20 C20            1.2970    -9.1475    -0.0729 C.ar    
  21 C21            2.4871    -8.4423    -0.0810 C.ar    
  22 C22            2.4747    -7.0625    -0.0750 C.ar    
  23 H23           -0.9258    -0.5567     0.0079 H       
  24 H24            2.1099    -0.1114    -0.0187 H       
  25 H25           -0.4054     4.1313     0.0272 H       
  26 H26           -2.5572     5.3221     0.0430 H       
  27 H27           -4.6680     4.0583     0.0453 H       
  28 H28           -4.6403     1.5984     0.0318 H       
  29 H29           -2.4994     0.3880     0.0060 H       
  30 H30            3.3811    -4.7125    -0.0551 H       
  31 H31            3.3522    -2.2667    -0.0418 H       
  32 H32           -0.9438    -2.3252    -0.0013 H       
  33 H33           -0.9064    -4.7709    -0.0136 H       
  34 H34           -0.8811    -6.5714    -0.0242 H       
  35 H35           -0.8378    -9.0309    -0.0467 H       
  36 H36            1.3116   -10.2274    -0.0819 H       
  37 H37            3.4278    -8.9727    -0.0966 H       
  38 H38            3.4043    -6.5129    -0.0861 H       
@<TRIPOS>BOND
   1    1    2 1
   2    1    4 2
   3    1    5 1
   4    2    3 2
   5    2   23 1
   6    3   14 1
   7    3   24 1
   8    5    6 ar
   9    5   10 ar
  10    6    7 ar
  11    6   25 1
  12    7    8 ar
  13    7   26 1
  14    8    9 ar
  15    8   27 1
  16    9   10 ar
  17    9   28 1
  18   10   29 1
  19   11   12 ar
  20   11   16 ar
  21   11   17 1
  22   12   13 ar
  23   12   30 1
  24   13   14 ar
  25   13   31 1
  26   14   15 ar
  27   15   16 ar
  28   15   32 1
  29   16   33 1
  30   17   18 ar
  31   17   22 ar
  32   18   19 ar
  33   18   34 1
  34   19   20 ar
  35   19   35 1
  36   20   21 ar
  37   20   36 1
  38   21   22 ar
  39   21   37 1
  40   22   38 1

#	End of record

