#	Name: ASD03091403
#	Creating user name:	WinNT
#	Creation time:	15. 06. 2019 20:30

#	Modifying user name:	WinNT
#	Modification time:	15. 06. 2019 20:30

#	Program:	/corina/corina34_cracker 3.40 0067  02.08.2006

@<TRIPOS>MOLECULE
ASD03091403
  32   33    0    0    0
SMALL
NO_CHARGES


@<TRIPOS>ATOM
   1 C1            -0.0167     1.3823     0.0096 C.ar    
   2 C2             0.0021    -0.0041     0.0020 C.ar    
   3 C3             1.2052    -0.6811    -0.0131 C.ar    
   4 C4             2.4051     0.0202    -0.0203 C.ar    
   5 C5             2.4023     1.4025    -0.0124 C.ar    
   6 C6             1.1894     2.0954     0.0020 C.ar    
   7 C7             1.1784     3.5721     0.0095 C.2     
   8 O8             0.1190     4.1732     0.0224 O.2     
   9 C9             2.3997     4.2894     0.0017 C.2     
  10 C10            2.3896     5.6434     0.0086 C.2     
  11 C11            3.6539     6.3859     0.0005 C.ar    
  12 C12            3.6475     7.7925     0.0136 C.ar    
  13 C13            4.8741     5.6982    -0.0143 C.ar    
  14 C14            6.0501     6.3919    -0.0209 C.ar    
  15 C15            6.0468     7.7836    -0.0134 C.ar    
  16 C16            4.8471     8.4816     0.0062 C.ar    
  17 O17            7.2225     8.4617    -0.0200 O.3     
  18 O18           -1.2004     2.0469     0.0189 O.3     
  19 O19            3.5851    -0.6555    -0.0348 O.3     
  20 O20            2.4718     8.4694     0.0328 O.3     
  21 H21           -0.9265    -0.5556     0.0083 H       
  22 H22            1.2140    -1.7610    -0.0190 H       
  23 H23            3.3358     1.9456    -0.0173 H       
  24 H24            3.3390     3.7564    -0.0098 H       
  25 H25            1.4504     6.1763     0.0201 H       
  26 H26            4.8846     4.6182    -0.0203 H       
  27 H27            6.9885     5.8574    -0.0317 H       
  28 H28            4.8502     9.5616     0.0158 H       
  29 H29            7.5555     8.6630    -0.9053 H       
  30 H30           -1.5391     2.2347     0.9049 H       
  31 H31            3.9184    -0.8461    -0.9223 H       
  32 H32            2.1407     8.6575     0.9216 H       
@<TRIPOS>BOND
   1    1    2 ar
   2    1    6 ar
   3    1   18 1
   4    2    3 ar
   5    2   21 1
   6    3    4 ar
   7    3   22 1
   8    4    5 ar
   9    4   19 1
  10    5    6 ar
  11    5   23 1
  12    6    7 1
  13    7    8 2
  14    7    9 1
  15    9   10 2
  16    9   24 1
  17   10   11 1
  18   10   25 1
  19   11   13 ar
  20   11   12 ar
  21   12   16 ar
  22   12   20 1
  23   13   14 ar
  24   13   26 1
  25   14   15 ar
  26   14   27 1
  27   15   16 ar
  28   15   17 1
  29   16   28 1
  30   17   29 1
  31   18   30 1
  32   19   31 1
  33   20   32 1

#	End of record

