#	Name: ASD08150614
#	Creating user name:	WinNT
#	Creation time:	15. 06. 2019 21:16

#	Modifying user name:	WinNT
#	Modification time:	15. 06. 2019 21:16

#	Program:	/corina/corina34_cracker 3.40 0067  02.08.2006

@<TRIPOS>MOLECULE
ASD08150614
  44   47    0    0    0
SMALL
NO_CHARGES


@<TRIPOS>ATOM
   1 N1             0.1261     1.5104     0.1025 N.ar    
   2 C2             0.6370     1.0520     1.2147 C.ar    
   3 C3             1.7453     0.1843     1.2149 C.ar    
   4 C4             2.3169    -0.1993    -0.0116 C.ar    
   5 C5             1.7385     0.3153    -1.1973 C.ar    
   6 C6             2.2499    -0.0200    -2.4580 C.ar    
   7 C7             1.6680     0.4934    -3.5808 C.ar    
   8 C8             0.5721     1.3470    -3.4870 C.ar    
   9 C9             0.0522     1.6915    -2.2752 C.ar    
  10 C10            0.6248     1.1827    -1.0992 C.ar    
  11 C11            2.2967    -0.3125     2.4766 C.2     
  12 O12            1.7433    -0.0526     3.5248 O.2     
  13 Cl13           2.3016     0.0781    -5.1428 Cl      
  14 N14            3.4011    -1.0452    -0.0577 N.pl3   
  15 C15            3.2074    -2.4231    -0.1856 C.ar    
  16 C16            4.3003    -3.2707    -0.3159 C.ar    
  17 C17            4.1051    -4.6320    -0.4421 C.ar    
  18 C18            2.8236    -5.1517    -0.4388 C.ar    
  19 C19            1.7334    -4.3108    -0.3092 C.ar    
  20 C20            1.9216    -2.9491    -0.1769 C.ar    
  21 C21            2.6146    -6.6377    -0.5773 C.3     
  22 C22            2.6054    -7.2731     0.7892 C.ar    
  23 C23            1.4167    -7.4041     1.4825 C.ar    
  24 C24            1.4082    -7.9870     2.7360 C.ar    
  25 C25            2.5884    -8.4392     3.2959 C.ar    
  26 C26            3.7770    -8.3090     2.6022 C.ar    
  27 C27            3.7848    -7.7301     1.3469 C.ar    
  28 H28            0.1983     1.3464     2.1567 H       
  29 H29            3.1002    -0.6808    -2.5408 H       
  30 H30            0.1274     1.7425    -4.3883 H       
  31 H31           -0.7981     2.3552    -2.2199 H       
  32 H32            3.1961    -0.9105     2.4746 H       
  33 H33            4.3000    -0.6850    -0.0015 H       
  34 H34            5.3014    -2.8655    -0.3190 H       
  35 H35            4.9543    -5.2915    -0.5439 H       
  36 H36            0.7339    -4.7199    -0.3074 H       
  37 H37            1.0700    -2.2934    -0.0708 H       
  38 H38            1.6617    -6.8260    -1.0720 H       
  39 H39            3.4229    -7.0645    -1.1710 H       
  40 H40            0.4946    -7.0508     1.0451 H       
  41 H41            0.4796    -8.0887     3.2779 H       
  42 H42            2.5819    -8.8939     4.2755 H       
  43 H43            4.6991    -8.6620     3.0398 H       
  44 H44            4.7128    -7.6317     0.8034 H       
@<TRIPOS>BOND
   1    1    2 ar
   2    1   10 ar
   3    2    3 ar
   4    2   28 1
   5    3    4 ar
   6    3   11 1
   7    4    5 ar
   8    4   14 1
   9    5    6 ar
  10    5   10 ar
  11    6    7 ar
  12    6   29 1
  13    7    8 ar
  14    7   13 1
  15    8    9 ar
  16    8   30 1
  17    9   10 ar
  18    9   31 1
  19   11   12 2
  20   11   32 1
  21   14   15 1
  22   14   33 1
  23   15   16 ar
  24   15   20 ar
  25   16   17 ar
  26   16   34 1
  27   17   18 ar
  28   17   35 1
  29   18   19 ar
  30   18   21 1
  31   19   20 ar
  32   19   36 1
  33   20   37 1
  34   21   22 1
  35   21   38 1
  36   21   39 1
  37   22   23 ar
  38   22   27 ar
  39   23   24 ar
  40   23   40 1
  41   24   25 ar
  42   24   41 1
  43   25   26 ar
  44   25   42 1
  45   26   27 ar
  46   26   43 1
  47   27   44 1

#	End of record

