#	Name: ASD02770031
#	Creating user name:	WinNT
#	Creation time:	15. 06. 2019 20:26

#	Modifying user name:	WinNT
#	Modification time:	15. 06. 2019 20:26

#	Program:	/corina/corina34_cracker 3.40 0067  02.08.2006

@<TRIPOS>MOLECULE
ASD02770031
  36   38    0    0    0
SMALL
NO_CHARGES


@<TRIPOS>ATOM
   1 C1            -0.0179     1.4702     0.0101 C.2     
   2 C2             0.0021    -0.0041     0.0020 C.2     
   3 C3             1.1137    -0.6213    -0.5569 C.2     
   4 C4             2.1555     0.2066    -1.0493 C.ar    
   5 C5             3.2111    -0.3421    -1.7913 C.ar    
   6 C6             4.1878     0.4728    -2.2872 C.ar    
   7 C7             4.1522     1.8405    -2.0518 C.ar    
   8 C8             3.1389     2.3979    -1.3002 C.ar    
   9 C9             2.1384     1.5879    -0.7788 C.ar    
  10 O10            1.1681     2.1189     0.0023 O.3     
  11 C11           -1.1096    -0.7891     0.5633 C.2     
  12 O12           -1.0668    -2.0044     0.5433 O.2     
  13 N13           -2.1748    -0.1610     1.0993 N.am    
  14 O14           -1.0687     2.0835     0.0185 O.2     
  15 C15           -3.2206    -0.8995     1.6273 C.2     
  16 C16           -4.3479    -0.3609     2.1947 C.2     
  17 C17           -5.2749    -1.3679     2.6633 C.2     
  18 C18           -4.8513    -2.6055     2.4515 C.2     
  19 S19           -3.2878    -2.6024     1.6552 S.3     
  20 C20           -4.5867     1.0793     2.3140 C.2     
  21 O21           -3.7606     1.8696     1.8974 O.2     
  22 N22           -5.7215     1.5292     2.8852 N.am    
  23 C23           -5.9412     2.8544     2.9950 C.2     
  24 O24           -5.1160     3.6438     2.5788 O.2     
  25 N25           -7.0760     3.3043     3.5662 N.am    
  26 H26            1.1831    -1.6975    -0.6145 H       
  27 H27            3.2516    -1.4065    -1.9697 H       
  28 H28            4.9949     0.0500    -2.8669 H       
  29 H29            4.9254     2.4739    -2.4608 H       
  30 H30            3.1234     3.4622    -1.1175 H       
  31 H31           -2.2090     0.8083     1.1152 H       
  32 H32           -6.2166    -1.1347     3.1379 H       
  33 H33           -5.3966    -3.4958     2.7279 H       
  34 H34           -6.3801     0.8993     3.2174 H       
  35 H35           -7.7346     2.6743     3.8984 H       
  36 H36           -7.2342     4.2581     3.6452 H       
@<TRIPOS>BOND
   1    1    2 1
   2    1   10 1
   3    1   14 2
   4    2    3 2
   5    2   11 1
   6    3    4 1
   7    3   26 1
   8    4    5 ar
   9    4    9 ar
  10    5    6 ar
  11    5   27 1
  12    6    7 ar
  13    6   28 1
  14    7    8 ar
  15    7   29 1
  16    8    9 ar
  17    8   30 1
  18    9   10 1
  19   11   12 2
  20   11   13 am
  21   13   15 1
  22   13   31 1
  23   15   16 2
  24   15   19 1
  25   16   17 1
  26   16   20 1
  27   17   18 2
  28   17   32 1
  29   18   19 1
  30   18   33 1
  31   20   21 2
  32   20   22 am
  33   22   23 am
  34   22   34 1
  35   23   24 2
  36   23   25 am
  37   25   35 1
  38   25   36 1

#	End of record

