#	Name: ASD04910086
#	Creating user name:	WinNT
#	Creation time:	15. 06. 2019 20:55

#	Modifying user name:	WinNT
#	Modification time:	15. 06. 2019 20:55

#	Program:	/corina/corina34_cracker 3.40 0067  02.08.2006

@<TRIPOS>MOLECULE
ASD04910086
  23   24    0    0    0
SMALL
NO_CHARGES


@<TRIPOS>ATOM
   1 C1            -0.0167     1.3832     0.0096 C.ar    
   2 C2             0.0021    -0.0041     0.0020 C.ar    
   3 C3             1.2068    -0.6783    -0.0131 C.ar    
   4 C4             2.3996     0.0322    -0.0206 C.ar    
   5 C5             2.3802     1.4204    -0.0130 C.ar    
   6 C6             1.1750     2.0937     0.0021 C.ar    
   7 O7            -1.2032     2.0466     0.0189 O.3     
   8 N8             3.6240    -0.6524    -0.0355 N.pl3   
   9 N9             3.7909    -2.0433    -0.0446 N.2     
  10 C10            5.0741    -2.3014    -0.0585 C.2     
  11 C11            5.7654    -1.0852    -0.0587 C.2     
  12 C12            4.8518    -0.0866    -0.0496 C.2     
  13 C13            7.2629    -0.9167    -0.0725 C.3     
  14 F14            7.8737    -2.1753    -0.0857 F       
  15 F15            7.6413    -0.2026    -1.2144 F       
  16 F16            7.6638    -0.2158     1.0700 F       
  17 H17           -0.9258    -0.5567     0.0083 H       
  18 H18            1.2214    -1.7582    -0.0187 H       
  19 H19            3.3078     1.9735    -0.0185 H       
  20 H20            1.1598     3.1735     0.0080 H       
  21 H21           -1.5424     2.2338     0.9049 H       
  22 H22            5.5220    -3.2841    -0.0678 H       
  23 H23            5.0653     0.9720    -0.0511 H       
@<TRIPOS>BOND
   1    1    2 ar
   2    1    6 ar
   3    1    7 1
   4    2    3 ar
   5    2   17 1
   6    3    4 ar
   7    3   18 1
   8    4    5 ar
   9    4    8 1
  10    5    6 ar
  11    5   19 1
  12    6   20 1
  13    7   21 1
  14    8    9 1
  15    8   12 1
  16    9   10 2
  17   10   11 1
  18   10   22 1
  19   11   12 2
  20   11   13 1
  21   12   23 1
  22   13   14 1
  23   13   15 1
  24   13   16 1

#	End of record

