#	Name: ASD00310096
#	Creating user name:	WinNT
#	Creation time:	15. 06. 2019 18:33

#	Modifying user name:	WinNT
#	Modification time:	15. 06. 2019 18:33

#	Program:	/corina/corina34_cracker 3.40 0067  02.08.2006

@<TRIPOS>MOLECULE
ASD00310096
  47   50    0    0    0
SMALL
NO_CHARGES


@<TRIPOS>ATOM
   1 N1             0.1021     2.5236    -1.5237 N.pl3   
   2 C2            -0.0767     1.2202    -1.2025 C.2     
   3 C3             1.1198     0.6607    -0.8601 C.2     
   4 C4             2.1305     1.7283    -0.9844 C.ar    
   5 C5             3.5047     1.7834    -0.7785 C.ar    
   6 C6             4.1826     2.9771    -0.9901 C.ar    
   7 C7             3.4834     4.1148    -1.4078 C.ar    
   8 C8             2.1234     4.0624    -1.6122 C.ar    
   9 C9             1.4315     2.8722    -1.4038 C.ar    
  10 C10            1.3547    -0.7281    -0.4491 C.2     
  11 O11            2.4789    -1.0974    -0.1690 O.2     
  12 O12            0.3239    -1.5949    -0.3819 O.3     
  13 C13            5.6487     3.0460    -0.7726 C.ar    
  14 C14            6.4763     3.5898    -1.7531 C.ar    
  15 C15            7.8393     3.6518    -1.5453 C.ar    
  16 C16            8.3842     3.1751    -0.3667 C.ar    
  17 C17            7.5674     2.6343     0.6100 C.ar    
  18 C18            6.2024     2.5725     0.4152 C.ar    
  19 N19           10.2457     3.7813     1.1717 N.am    
  20 C20            9.8733     3.2446    -0.1460 C.3     
  21 C21           10.4906     1.9068     0.2847 C.3     
  22 C22           11.3387     2.7979     1.2027 C.3     
  23 S23            9.6853     4.9733     2.1754 S.o2    
  24 O24           10.8493     5.4518     2.8351 O.2     
  25 O25            8.9255     5.8199     1.3239 O.2     
  26 C26            8.6013     4.1080     3.3446 C.3     
  27 Cl27           4.3374     5.6033    -1.6697 Cl      
  28 C28            0.6302    -2.9525     0.0322 C.3     
  29 H29           -0.6047     3.1264    -1.8029 H       
  30 H30           -1.0239     0.7016    -1.2154 H       
  31 H31            4.0415     0.9036    -0.4557 H       
  32 H32            1.5921     4.9457    -1.9346 H       
  33 H33            6.0519     3.9616    -2.6740 H       
  34 H34            8.4816     4.0730    -2.3045 H       
  35 H35            7.9982     2.2632     1.5282 H       
  36 H36            5.5651     2.1543     1.1803 H       
  37 H37           10.4000     3.7205    -0.9731 H       
  38 H38            9.8028     1.2469     0.8134 H       
  39 H39           11.0579     1.4037    -0.4984 H       
  40 H40           12.2565     3.1541     0.7349 H       
  41 H41           11.5077     2.3677     2.1899 H       
  42 H42            9.1471     3.2843     3.8047 H       
  43 H43            8.2725     4.8027     4.1175 H       
  44 H44            7.7330     3.7172     2.8141 H       
  45 H45            1.3395    -3.3945    -0.6675 H       
  46 H46            1.0662    -2.9380     1.0311 H       
  47 H47           -0.2853    -3.5441     0.0439 H       
@<TRIPOS>BOND
   1    1    2 1
   2    1    9 1
   3    1   29 1
   4    2    3 2
   5    2   30 1
   6    3    4 1
   7    3   10 1
   8    4    5 ar
   9    4    9 ar
  10    5    6 ar
  11    5   31 1
  12    6    7 ar
  13    6   13 1
  14    7    8 ar
  15    7   27 1
  16    8    9 ar
  17    8   32 1
  18   10   11 2
  19   10   12 1
  20   12   28 1
  21   13   14 ar
  22   13   18 ar
  23   14   15 ar
  24   14   33 1
  25   15   16 ar
  26   15   34 1
  27   16   17 ar
  28   16   20 1
  29   17   18 ar
  30   17   35 1
  31   18   36 1
  32   19   20 1
  33   19   22 1
  34   19   23 am
  35   20   21 1
  36   20   37 1
  37   21   22 1
  38   21   38 1
  39   21   39 1
  40   22   40 1
  41   22   41 1
  42   23   24 2
  43   23   25 2
  44   23   26 1
  45   26   42 1
  46   26   43 1
  47   26   44 1
  48   28   45 1
  49   28   46 1
  50   28   47 1

#	End of record

