#	Name: ASD01884173
#	Creating user name:	WinNT
#	Creation time:	15. 06. 2019 19:47

#	Modifying user name:	WinNT
#	Modification time:	15. 06. 2019 19:47

#	Program:	/corina/corina34_cracker 3.40 0067  02.08.2006

@<TRIPOS>MOLECULE
ASD01884173
  45   46    0    0    0
SMALL
NO_CHARGES


@<TRIPOS>ATOM
   1 C1            -0.0167     1.3793     0.0096 C.ar    
   2 C2             0.0021    -0.0041     0.0020 C.ar    
   3 C3             1.2049    -0.6803    -0.0131 C.ar    
   4 C4             2.4023     0.0330    -0.0207 C.ar    
   5 C5             2.3774     1.4268    -0.0129 C.ar    
   6 C6             1.1692     2.0925     0.0021 C.ar    
   7 C7             3.6680     2.2049    -0.0206 C.3     
   8 B8             3.7740    -0.7305    -0.0373 Du      
   9 C9            -1.2934    -0.7739     0.0107 C.3     
  10 C10           -2.3771     0.0434    -0.6954 C.3     
  11 O11           -1.1137    -2.0166    -0.6714 O.3     
  12 C12           -1.7176    -1.0421     1.4561 C.3     
  13 O13            3.9850    -2.1496    -0.0464 O.3     
  14 C14            5.1115    -2.3571     0.8314 C.3     
  15 C15            5.8615    -1.0094     0.8308 C.3     
  16 O16            5.0912    -0.1619    -0.0531 O.3     
  17 C17            4.6313    -2.6993     2.2432 C.3     
  18 C18            6.0122    -3.4687     0.2892 C.3     
  19 C19            5.8999    -0.4201     2.2422 C.3     
  20 C20            7.2807    -1.1894     0.2882 C.3     
  21 H21           -0.9603     1.9045     0.0169 H       
  22 H22            1.2184    -1.7602    -0.0186 H       
  23 H23            1.1488     3.1723     0.0078 H       
  24 H24            3.9698     2.3980    -1.0500 H       
  25 H25            3.5244     3.1519     0.4997 H       
  26 H26            4.4433     1.6276     0.4831 H       
  27 H27           -2.0749     0.2345    -1.7251 H       
  28 H28           -3.3141    -0.5134    -0.6891 H       
  29 H29           -2.5142     0.9913    -0.1751 H       
  30 H30           -0.4398    -2.5876    -0.2776 H       
  31 H31           -1.8547    -0.0942     1.9764 H       
  32 H32           -2.6546    -1.5989     1.4624 H       
  33 H33           -0.9456    -1.6244     1.9592 H       
  34 H34            4.0543    -3.6237     2.2166 H       
  35 H35            5.4926    -2.8274     2.8988 H       
  36 H36            4.0050    -1.8907     2.6199 H       
  37 H37            6.3578    -3.2016    -0.7095 H       
  38 H38            6.8705    -3.5951     0.9490 H       
  39 H39            5.4499    -4.4012     0.2418 H       
  40 H40            6.4126    -1.1115     2.9109 H       
  41 H41            6.4326     0.5307     2.2246 H       
  42 H42            4.8817    -0.2596     2.5967 H       
  43 H43            7.2341    -1.5702    -0.7320 H       
  44 H44            7.7966    -0.2292     0.2944 H       
  45 H45            7.8226    -1.8971     0.9157 H       
@<TRIPOS>BOND
   1    1    2 ar
   2    1    6 ar
   3    1   21 1
   4    2    3 ar
   5    2    9 1
   6    3    4 ar
   7    3   22 1
   8    4    5 ar
   9    4    8 1
  10    5    6 ar
  11    5    7 1
  12    6   23 1
  13    7   24 1
  14    7   25 1
  15    7   26 1
  16    8   13 1
  17    8   16 1
  18    9   10 1
  19    9   11 1
  20    9   12 1
  21   10   27 1
  22   10   28 1
  23   10   29 1
  24   11   30 1
  25   12   31 1
  26   12   32 1
  27   12   33 1
  28   13   14 1
  29   14   15 1
  30   14   17 1
  31   14   18 1
  32   15   16 1
  33   15   19 1
  34   15   20 1
  35   17   34 1
  36   17   35 1
  37   17   36 1
  38   18   37 1
  39   18   38 1
  40   18   39 1
  41   19   40 1
  42   19   41 1
  43   19   42 1
  44   20   43 1
  45   20   44 1
  46   20   45 1

#	End of record

