#	Name: ASD01911325
#	Creating user name:	WinNT
#	Creation time:	15. 06. 2019 19:57

#	Modifying user name:	WinNT
#	Modification time:	15. 06. 2019 19:57

#	Program:	/corina/corina34_cracker 3.40 0067  02.08.2006

@<TRIPOS>MOLECULE
ASD01911325
  34   36    0    0    0
SMALL
NO_CHARGES


@<TRIPOS>ATOM
   1 C1             0.0972     1.2337     0.1058 C.ar    
   2 C2             0.3056    -0.0934     0.4706 C.ar    
   3 C3            -0.7936    -0.9359     0.5644 C.ar    
   4 C4            -2.0639    -0.4337     0.2974 C.ar    
   5 N5            -2.2162     0.8394    -0.0496 N.ar    
   6 C6            -1.1944     1.6666    -0.1445 C.ar    
   7 O7            -0.5984    -2.2368     0.9097 O.3     
   8 C8            -1.7590    -2.9766     1.3046 C.3     
   9 C9            -2.8791    -2.6644     0.3038 C.3     
  10 N10           -3.2009    -1.2355     0.3900 N.3     
  11 O11            1.1455     2.0938     0.0024 O.3     
  12 C12            1.9211     1.9835    -1.0934 C.2     
  13 C13            3.1420     2.8054    -1.2199 C.ar    
  14 C14            3.9482     2.6936    -2.3545 C.ar    
  15 C15            5.0867     3.4644    -2.4662 C.ar    
  16 C16            5.4307     4.3465    -1.4572 C.ar    
  17 C17            4.6366     4.4619    -0.3299 C.ar    
  18 C18            3.4920     3.7016    -0.2080 C.ar    
  19 O19            1.6164     1.2083    -1.9778 O.2     
  20 C20           -4.1953    -0.8578    -0.6233 C.3     
  21 H21            1.3007    -0.4596     0.6758 H       
  22 H22           -1.3657     2.6939    -0.4301 H       
  23 H23           -1.5386    -4.0440     1.2905 H       
  24 H24           -2.0650    -2.6756     2.3066 H       
  25 H25           -2.5448    -2.9037    -0.7057 H       
  26 H26           -3.7628    -3.2537     0.5484 H       
  27 H27            3.6812     2.0051    -3.1425 H       
  28 H28            5.7112     3.3790    -3.3432 H       
  29 H29            6.3233     4.9473    -1.5496 H       
  30 H30            4.9110     5.1520     0.4541 H       
  31 H31            2.8730     3.7927     0.6723 H       
  32 H32           -5.1087    -1.4318    -0.4676 H       
  33 H33           -4.4157     0.2062    -0.5371 H       
  34 H34           -3.7992    -1.0675    -1.6169 H       
@<TRIPOS>BOND
   1    1    2 ar
   2    1   11 1
   3    1    6 ar
   4    2    3 ar
   5    2   21 1
   6    3    4 ar
   7    3    7 1
   8    4    5 ar
   9    4   10 1
  10    5    6 ar
  11    6   22 1
  12    7    8 1
  13    8    9 1
  14    8   23 1
  15    8   24 1
  16    9   10 1
  17    9   25 1
  18    9   26 1
  19   10   20 1
  20   11   12 1
  21   12   13 1
  22   12   19 2
  23   13   14 ar
  24   13   18 ar
  25   14   15 ar
  26   14   27 1
  27   15   16 ar
  28   15   28 1
  29   16   17 ar
  30   16   29 1
  31   17   18 ar
  32   17   30 1
  33   18   31 1
  34   20   32 1
  35   20   33 1
  36   20   34 1

#	End of record

