#	Name: ASD00131015
#	Creating user name:	WinNT
#	Creation time:	15. 06. 2019 18:31

#	Modifying user name:	WinNT
#	Modification time:	15. 06. 2019 18:31

#	Program:	/corina/corina34_cracker 3.40 0067  02.08.2006

@<TRIPOS>MOLECULE
ASD00131015
  76   80    0    0    0
SMALL
NO_CHARGES


@<TRIPOS>ATOM
   1 N1             1.5805     1.3076    -1.2632 N.am    
   2 C2             1.6600    -0.0332    -1.2213 C.2     
   3 C3             1.4071    -0.7618     0.0210 C.2     
   4 C4             1.0798    -0.0439     1.1737 C.2     
   5 C5             1.0044     1.4180     1.0837 C.ar    
   6 C6             0.6800     2.1851     2.2086 C.ar    
   7 C7             0.6137     3.5455     2.1071 C.ar    
   8 C8             0.8658     4.1744     0.8956 C.ar    
   9 C9             1.1868     3.4390    -0.2244 C.ar    
  10 C10            1.2600     2.0506    -0.1457 C.ar    
  11 C11            1.4956    -2.2268     0.0562 C.2     
  12 O12            2.5840    -2.7708     0.0575 O.2     
  13 N13            0.3712    -2.9692     0.0872 N.am    
  14 O14            1.9462    -0.6500    -2.2321 O.2     
  15 C15            1.8470     1.9988    -2.5270 C.3     
  16 C16            3.2699     1.6818    -2.9915 C.3     
  17 C17            0.8481     1.5284    -3.5861 C.3     
  18 O18            0.8388    -0.6790     2.3396 O.3     
  19 C19            0.4580    -4.4244     0.2327 C.3     
  20 C20           -0.9508    -5.0213     0.2389 C.3     
  21 C21           -0.8601    -6.5410     0.3908 C.3     
  22 C22           -2.1642    -8.5766     0.3025 C.3     
  23 N23           -2.2127    -7.1141     0.3968 N.3     
  24 C24           -2.9711    -6.6590     1.5665 C.3     
  25 C25           -4.4104    -7.1739     1.4833 C.3     
  26 C26           -4.3886    -8.7044     1.4205 C.3     
  27 C27           -3.7212    -9.2553     2.6821 C.3     
  28 C28           -2.2908    -8.7229     2.7879 C.3     
  29 C29           -1.4950    -9.1549     1.5521 C.3     
  30 C30           -3.5845    -9.1364     0.1901 C.3     
  31 C31           -2.3205    -7.1923     2.8455 C.3     
  32 C32           -5.7990    -9.2268     1.3251 C.ar    
  33 C33           -6.0285   -10.5882     1.2562 C.ar    
  34 C34           -7.3222   -11.0675     1.1687 C.ar    
  35 C35           -8.3863   -10.1853     1.1505 C.ar    
  36 C36           -8.1568    -8.8239     1.2203 C.ar    
  37 C37           -6.8634    -8.3449     1.3122 C.ar    
  38 H38            0.4823     1.7025     3.1544 H       
  39 H39            0.3630     4.1362     2.9757 H       
  40 H40            0.8093     5.2510     0.8303 H       
  41 H41            1.3807     3.9385    -1.1621 H       
  42 H42           -0.4956    -2.5401     0.0131 H       
  43 H43            1.7433     3.0741    -2.3819 H       
  44 H44            3.3736     0.6064    -3.1366 H       
  45 H45            3.4682     2.1961    -3.9319 H       
  46 H46            3.9816     2.0169    -2.2370 H       
  47 H47            0.9518     0.4531    -3.7312 H       
  48 H48           -0.1656     1.7543    -3.2552 H       
  49 H49            1.0464     2.0427    -4.5265 H       
  50 H50            0.8390    -1.6434     2.2695 H       
  51 H51            1.0249    -4.8397    -0.6006 H       
  52 H52            0.9593    -4.6666     1.1698 H       
  53 H53           -1.5177    -4.6060     1.0721 H       
  54 H54           -1.4521    -4.7791    -0.6982 H       
  55 H55           -0.2932    -6.9563    -0.4424 H       
  56 H56           -0.3588    -6.7832     1.3279 H       
  57 H57           -1.5932    -8.8642    -0.5803 H       
  58 H58           -2.9770    -5.5694     1.5932 H       
  59 H59           -4.9643    -6.8528     2.3654 H       
  60 H60           -4.8880    -6.7786     0.5868 H       
  61 H61           -4.2895    -8.9433     3.5583 H       
  62 H62           -3.6998   -10.3441     2.6345 H       
  63 H63           -1.8176    -9.1212     3.6854 H       
  64 H64           -1.4819   -10.2429     1.4886 H       
  65 H65           -0.4742    -8.7798     1.6260 H       
  66 H66           -4.0595    -8.7482    -0.7109 H       
  67 H67           -3.5452   -10.2247     0.1437 H       
  68 H68           -1.3027    -6.8102     2.9238 H       
  69 H69           -2.9000    -6.8710     3.7110 H       
  70 H70           -5.1972   -11.2774     1.2704 H       
  71 H71           -7.5015   -12.1311     1.1142 H       
  72 H72           -9.3970   -10.5597     1.0814 H       
  73 H73           -8.9881    -8.1347     1.2058 H       
  74 H74           -6.6842    -7.2814     1.3705 H       
  75 Cl75           8.9816    10.2510     8.7110 Cl      
  76 H76            8.9816    11.6210     8.7110 H       
@<TRIPOS>BOND
   1    1    2 am
   2    1   10 1
   3    1   15 1
   4    2    3 1
   5    2   14 2
   6    3    4 2
   7    3   11 1
   8    4    5 1
   9    4   18 1
  10    5    6 ar
  11    5   10 ar
  12    6    7 ar
  13    6   38 1
  14    7    8 ar
  15    7   39 1
  16    8    9 ar
  17    8   40 1
  18    9   10 ar
  19    9   41 1
  20   11   12 2
  21   11   13 am
  22   13   19 1
  23   13   42 1
  24   15   16 1
  25   15   17 1
  26   15   43 1
  27   16   44 1
  28   16   45 1
  29   16   46 1
  30   17   47 1
  31   17   48 1
  32   17   49 1
  33   18   50 1
  34   19   20 1
  35   19   51 1
  36   19   52 1
  37   20   21 1
  38   20   53 1
  39   20   54 1
  40   21   23 1
  41   21   55 1
  42   21   56 1
  43   22   23 1
  44   22   29 1
  45   22   30 1
  46   22   57 1
  47   23   24 1
  48   24   25 1
  49   24   31 1
  50   24   58 1
  51   25   26 1
  52   25   59 1
  53   25   60 1
  54   26   27 1
  55   26   30 1
  56   26   32 1
  57   27   28 1
  58   27   61 1
  59   27   62 1
  60   28   29 1
  61   28   31 1
  62   28   63 1
  63   29   64 1
  64   29   65 1
  65   30   66 1
  66   30   67 1
  67   31   68 1
  68   31   69 1
  69   32   33 ar
  70   32   37 ar
  71   33   34 ar
  72   33   70 1
  73   34   35 ar
  74   34   71 1
  75   35   36 ar
  76   35   72 1
  77   36   37 ar
  78   36   73 1
  79   37   74 1
  80   75   76 1

#	End of record

