#	Name: ASD01411025
#	Creating user name:	WinNT
#	Creation time:	15. 06. 2019 19:19

#	Modifying user name:	WinNT
#	Modification time:	15. 06. 2019 19:19

#	Program:	/corina/corina34_cracker 3.40 0067  02.08.2006

@<TRIPOS>MOLECULE
ASD01411025
  30   32    0    0    0
SMALL
NO_CHARGES


@<TRIPOS>ATOM
   1 C1            -0.0168     1.3905     0.0097 C.ar    
   2 C2             0.0021    -0.0041     0.0020 C.ar    
   3 C3            -1.1840    -0.7190     0.0095 C.ar    
   4 C4            -2.3955    -0.0471     0.0247 C.ar    
   5 C5            -2.4215     1.3633     0.0325 C.ar    
   6 C6            -1.2356     2.0763     0.0308 C.ar    
   7 C7            -3.8121    -0.4769     0.0364 C.2     
   8 N8            -4.5918     0.6191     0.0499 N.am    
   9 C9            -3.8505     1.7414     0.0486 C.2     
  10 O10           -4.2830     2.8762     0.0598 O.2     
  11 O11           -4.2044    -1.6260     0.0337 O.2     
  12 C12           -5.9929     0.5948     0.0637 C.ar    
  13 C13           -6.7086     1.7846     0.0766 C.ar    
  14 C14           -8.0901     1.7608     0.0902 C.ar    
  15 C15           -8.7628     0.5540     0.0914 C.ar    
  16 C16           -8.0524    -0.6384     0.0785 C.ar    
  17 C17           -6.6667    -0.6182     0.0586 C.ar    
  18 O18           -8.7152    -1.8248     0.0796 O.3     
  19 C19            1.2548     2.1457     0.0016 C.2     
  20 O20            1.2399     3.3601     0.0083 O.2     
  21 O21            2.4294     1.4867    -0.0132 O.3     
  22 H22            0.9460    -0.5288    -0.0102 H       
  23 H23           -1.1645    -1.7988     0.0032 H       
  24 H24           -1.2511     3.1562     0.0368 H       
  25 H25           -6.1852     2.7293     0.0764 H       
  26 H26           -8.6451     2.6873     0.1002 H       
  27 H27           -9.8426     0.5384     0.1027 H       
  28 H28           -6.1123    -1.5450     0.0482 H       
  29 H29           -8.9160    -2.1640    -0.8034 H       
  30 H30            3.2338     2.0233    -0.0180 H       
@<TRIPOS>BOND
   1    1    2 ar
   2    1   19 1
   3    1    6 ar
   4    2    3 ar
   5    2   22 1
   6    3    4 ar
   7    3   23 1
   8    4    5 ar
   9    4    7 1
  10    5    6 ar
  11    5    9 1
  12    6   24 1
  13    7    8 am
  14    7   11 2
  15    8    9 am
  16    8   12 1
  17    9   10 2
  18   12   13 ar
  19   12   17 ar
  20   13   14 ar
  21   13   25 1
  22   14   15 ar
  23   14   26 1
  24   15   16 ar
  25   15   27 1
  26   16   17 ar
  27   16   18 1
  28   17   28 1
  29   18   29 1
  30   19   20 2
  31   19   21 1
  32   21   30 1

#	End of record

