#	Name: ASD01411281
#	Creating user name:	WinNT
#	Creation time:	15. 06. 2019 19:19

#	Modifying user name:	WinNT
#	Modification time:	15. 06. 2019 19:19

#	Program:	/corina/corina34_cracker 3.40 0067  02.08.2006

@<TRIPOS>MOLECULE
ASD01411281
  74   78    0    0    0
SMALL
NO_CHARGES


@<TRIPOS>ATOM
   1 C1            -0.0170     1.4045     0.0098 C.ar    
   2 C2             0.0021    -0.0041     0.0020 C.ar    
   3 C3            -1.2065    -0.7150     0.0647 C.ar    
   4 C4            -2.3915    -0.0383     0.0883 C.ar    
   5 C5            -2.4227     1.3631     0.0345 C.ar    
   6 C6            -1.2259     2.0859     0.0148 C.ar    
   7 N7             1.2933     1.8339    -0.0004 N.pl3   
   8 C8             2.1147     0.7358    -0.0845 C.2     
   9 C9             1.3613    -0.3934    -0.0824 C.2     
  10 C10            1.7458     3.2213     0.0731 C.3     
  11 C11            1.0769     4.0588    -0.9784 C.2     
  12 N12            1.3407     5.4027    -1.0068 N.am    
  13 O13            0.3213     3.5573    -1.7837 O.2     
  14 C14            0.6491     6.1287    -2.0997 C.3     
  15 C15           -1.5402     7.3287    -1.9439 C.3     
  16 C16           -2.4425     6.8290    -0.8157 C.3     
  17 C17           -3.7067     2.1005    -0.0168 C.2     
  18 O18           -4.7787     1.5300     0.0451 O.2     
  19 N19           -3.6161     3.4715    -0.1385 N.am    
  20 C20           -3.7653     6.3194    -1.3966 C.3     
  21 N21           -4.6440     5.9248    -0.2604 N.am    
  22 S22           -5.0658     4.3029    -0.2222 S.o2    
  23 C23            3.5905     0.7776    -0.1644 C.ar    
  24 C24            4.2204     1.6805    -1.0222 C.ar    
  25 C25            1.8782    -1.8071    -0.1565 C.3     
  26 C26            1.4422    -2.5757     1.0925 C.3     
  27 C27            1.9670    -4.0109     1.0172 C.3     
  28 C28            1.3999    -4.6966    -0.2274 C.3     
  29 C29            1.8359    -3.9280    -1.4764 C.3     
  30 C30            1.3111    -2.4928    -1.4011 C.3     
  31 C31            5.5976     1.7148    -1.0925 C.ar    
  32 C32            6.3549     0.8556    -0.3141 C.ar    
  33 C33            5.7355    -0.0427     0.5386 C.ar    
  34 C34            4.3592    -0.0819     0.6220 C.ar    
  35 O35           -5.6378     3.9999    -1.4872 O.2     
  36 O36           -5.7341     4.0838     1.0126 O.2     
  37 C37           -5.1045     6.8822     0.7484 C.3     
  38 C38           -0.0795     7.3290    -1.4921 C.3     
  39 Cl39           8.0877     0.9046    -0.4079 Cl      
  40 H40           -1.1988    -1.7945     0.0937 H       
  41 H41           -3.3182    -0.5896     0.1489 H       
  42 H42           -1.2423     3.1657     0.0038 H       
  43 H43            1.5075     3.6243     1.0575 H       
  44 H44            2.8251     3.2546    -0.0752 H       
  45 H45            1.9269     5.8400    -0.3696 H       
  46 H46            1.3795     6.4741    -2.8313 H       
  47 H47           -0.0708     5.4676    -2.5821 H       
  48 H48           -1.6501     6.6762    -2.8100 H       
  49 H49           -1.8334     8.3420    -2.2186 H       
  50 H50           -1.9435     6.0182    -0.2849 H       
  51 H51           -2.6420     7.6460    -0.1224 H       
  52 H52           -2.7608     3.9276    -0.1732 H       
  53 H53           -4.2432     7.1104    -1.9746 H       
  54 H54           -3.5791     5.4562    -2.0356 H       
  55 H55            3.6308     2.3507    -1.6301 H       
  56 H56            2.9666    -1.7935    -0.2133 H       
  57 H57            1.8462    -2.0871     1.9792 H       
  58 H58            0.3538    -2.5893     1.1493 H       
  59 H59            3.0554    -3.9973     0.9605 H       
  60 H60            1.6564    -4.5584     1.9071 H       
  61 H61            1.7738    -5.7191    -0.2810 H       
  62 H62            0.3115    -4.7103    -0.1706 H       
  63 H63            2.9243    -3.9144    -1.5332 H       
  64 H64            1.4319    -4.4166    -2.3631 H       
  65 H65            0.2227    -2.5064    -1.3444 H       
  66 H66            1.6217    -1.9453    -2.2910 H       
  67 H67            6.0861     2.4127    -1.7562 H       
  68 H68            6.3313    -0.7105     1.1431 H       
  69 H69            3.8773    -0.7827     1.2876 H       
  70 H70           -6.0486     7.3223     0.4273 H       
  71 H71           -5.2480     6.3678     1.6986 H       
  72 H72           -4.3596     7.6686     0.8697 H       
  73 H73           -0.0363     7.2669    -0.4047 H       
  74 H74            0.4017     8.2499    -1.8213 H       
@<TRIPOS>BOND
   1    1    2 ar
   2    1    7 1
   3    1    6 ar
   4    2    3 ar
   5    2    9 1
   6    3    4 ar
   7    3   40 1
   8    4    5 ar
   9    4   41 1
  10    5    6 ar
  11    5   17 1
  12    6   42 1
  13    7    8 1
  14    7   10 1
  15    8    9 2
  16    8   23 1
  17    9   25 1
  18   10   11 1
  19   10   43 1
  20   10   44 1
  21   11   12 am
  22   11   13 2
  23   12   14 1
  24   12   45 1
  25   14   38 1
  26   14   46 1
  27   14   47 1
  28   15   16 1
  29   15   38 1
  30   15   48 1
  31   15   49 1
  32   16   20 1
  33   16   50 1
  34   16   51 1
  35   17   18 2
  36   17   19 am
  37   19   22 am
  38   19   52 1
  39   20   21 1
  40   20   53 1
  41   20   54 1
  42   21   22 am
  43   21   37 1
  44   22   35 2
  45   22   36 2
  46   23   24 ar
  47   23   34 ar
  48   24   31 ar
  49   24   55 1
  50   25   26 1
  51   25   30 1
  52   25   56 1
  53   26   27 1
  54   26   57 1
  55   26   58 1
  56   27   28 1
  57   27   59 1
  58   27   60 1
  59   28   29 1
  60   28   61 1
  61   28   62 1
  62   29   30 1
  63   29   63 1
  64   29   64 1
  65   30   65 1
  66   30   66 1
  67   31   32 ar
  68   31   67 1
  69   32   33 ar
  70   32   39 1
  71   33   34 ar
  72   33   68 1
  73   34   69 1
  74   37   70 1
  75   37   71 1
  76   37   72 1
  77   38   73 1
  78   38   74 1

#	End of record

