#	Name: ASD01917050
#	Creating user name:	WinNT
#	Creation time:	15. 06. 2019 20:08

#	Modifying user name:	WinNT
#	Modification time:	15. 06. 2019 20:08

#	Program:	/corina/corina34_cracker 3.40 0067  02.08.2006

@<TRIPOS>MOLECULE
ASD01917050
  40   42    0    0    0
SMALL
NO_CHARGES


@<TRIPOS>ATOM
   1 C1             0.0223     1.3592     0.0253 C.ar    
   2 C2             0.0107    -0.0268    -0.1359 C.ar    
   3 C3            -1.2637    -0.7734    -0.0503 C.2     
   4 N4            -2.4691    -0.2659    -0.1985 N.2     
   5 C5            -3.3851    -1.2304    -0.0567 C.2     
   6 N6            -2.7725    -2.3693     0.1847 N.2     
   7 N7            -1.3945    -2.0993     0.1883 N.pl3   
   8 C8            -0.3127    -3.0609     0.4147 C.3     
   9 C9             0.0838    -3.6888    -0.8966 C.2     
  10 O10            1.0627    -4.6065    -0.9325 O.3     
  11 O11           -0.4795    -3.3663    -1.9157 O.2     
  12 C12            1.3917    -5.1690    -2.2300 C.3     
  13 C13           -4.8544    -1.0454    -0.1552 C.ar    
  14 C14           -5.3842     0.2165    -0.4162 C.ar    
  15 C15           -5.7085    -2.1341     0.0074 C.ar    
  16 C16           -7.0741    -1.9564    -0.0852 C.ar    
  17 C17           -7.5950    -0.7004    -0.3388 C.ar    
  18 C18           -6.7514     0.3828    -0.5067 C.ar    
  19 C19            1.2048    -0.7060    -0.3786 C.ar    
  20 C20            2.3903    -0.0053    -0.4579 C.ar    
  21 C21            2.3964     1.3710    -0.2971 C.ar    
  22 C22            1.2127     2.0506    -0.0558 C.ar    
  23 C23            1.2265     3.5475     0.1176 C.3     
  24 F24            3.5601     2.0528    -0.3753 F       
  25 H25           -0.9001     1.8901     0.2089 H       
  26 H26            0.5463    -2.5466     0.8457 H       
  27 H27           -0.6535    -3.8364     1.1006 H       
  28 H28            2.1966    -5.8955    -2.1176 H       
  29 H29            0.5129    -5.6619    -2.6458 H       
  30 H30            1.7127    -4.3720    -2.9007 H       
  31 H31           -4.7264     1.0629    -0.5471 H       
  32 H32           -5.3028    -3.1152     0.2051 H       
  33 H33           -7.7371    -2.7997     0.0403 H       
  34 H34           -8.6642    -0.5658    -0.4104 H       
  35 H35           -7.1634     1.3613    -0.7045 H       
  36 H36            1.2011    -1.7788    -0.5037 H       
  37 H37            3.3153    -0.5302    -0.6454 H       
  38 H38            1.0917     4.0269    -0.8520 H       
  39 H39            0.4171     3.8434     0.7850 H       
  40 H40            2.1808     3.8548     0.5454 H       
@<TRIPOS>BOND
   1    1    2 ar
   2    1   22 ar
   3    1   25 1
   4    2    3 1
   5    2   19 ar
   6    3    4 2
   7    3    7 1
   8    4    5 1
   9    5    6 2
  10    5   13 1
  11    6    7 1
  12    7    8 1
  13    8    9 1
  14    8   26 1
  15    8   27 1
  16    9   10 1
  17    9   11 2
  18   10   12 1
  19   12   28 1
  20   12   29 1
  21   12   30 1
  22   13   14 ar
  23   13   15 ar
  24   14   18 ar
  25   14   31 1
  26   15   16 ar
  27   15   32 1
  28   16   17 ar
  29   16   33 1
  30   17   18 ar
  31   17   34 1
  32   18   35 1
  33   19   20 ar
  34   19   36 1
  35   20   21 ar
  36   20   37 1
  37   21   22 ar
  38   21   24 1
  39   22   23 1
  40   23   38 1
  41   23   39 1
  42   23   40 1

#	End of record

