#	Name: ASD02210003
#	Creating user name:	WinNT
#	Creation time:	15. 06. 2019 20:20

#	Modifying user name:	WinNT
#	Modification time:	15. 06. 2019 20:20

#	Program:	/corina/corina34_cracker 3.40 0067  02.08.2006

@<TRIPOS>MOLECULE
ASD02210003
  86   88    0    0    0
SMALL
NO_CHARGES


@<TRIPOS>ATOM
   1 O1            -0.4835     0.8011    -1.2870 O.3     
   2 C2            -0.7130    -0.6048    -1.5248 C.3     
   3 C3             0.9232     1.0057    -1.5426 C.3     
   4 C4             1.6193    -0.2300    -0.9303 C.3     
   5 C5             0.5182    -1.3138    -0.9183 C.3     
   6 N6             1.3880     2.2303    -0.8865 N.pl3   
   7 C7             2.4799     2.9794    -1.2455 C.ar    
   8 C8             2.5308     4.0500    -0.3372 C.ar    
   9 N9             1.4869     3.9019     0.5134 N.2     
  10 C10            0.8115     2.8377     0.1891 C.2     
  11 N11            3.4059     2.8934    -2.1952 N.ar    
  12 C12            4.3588     3.7966    -2.2868 C.ar    
  13 N13            4.4480     4.8197    -1.4564 N.ar    
  14 C14            3.5678     4.9886    -0.4753 C.ar    
  15 N15            3.6695     6.0637     0.3900 N.pl3   
  16 O16            2.7180    -0.6413    -1.7463 O.3     
  17 O17            0.2448    -1.7351     0.4195 O.3     
  18 O18           -1.9074    -1.0322    -0.8670 O.3     
  19 P19           -3.3517    -1.0226    -1.5783 P.3     
  20 O20           -4.4796    -1.4411    -0.5083 O.3     
  21 O21           -3.6392     0.3349    -2.0928 O.2     
  22 O22           -3.3552    -2.0714    -2.7998 O.3     
  23 P23            0.3409    -3.2712     0.8921 P.3     
  24 O24           -0.7791    -4.1390     0.1275 O.3     
  25 O25            1.6834    -3.8037     0.5688 O.2     
  26 O26            0.0966    -3.3601     2.4809 O.3     
  27 P27           -6.0857    -1.3340    -0.4767 P.3     
  28 O28           -6.5051    -0.0369    -1.0529 O.2     
  29 O29           -6.7208    -2.5353    -1.3404 O.3     
  30 O30           -6.6006    -1.4368     1.0453 O.3     
  31 C31           -7.9706    -1.2716     1.4163 C.3     
  32 C32           -8.1115    -1.4307     2.9314 C.3     
  33 C33           -9.5784    -1.2538     3.3287 C.3     
  34 C34           -7.6360    -2.8252     3.3442 C.3     
  35 C35           -7.2609    -0.3724     3.6367 C.3     
  36 C36          -10.4284    -2.2332     2.5610 C.2     
  37 N37          -10.3680    -3.5484     2.8492 N.am    
  38 O38          -11.1667    -1.8379     1.6838 O.2     
  39 O39           -9.9964     0.0789     3.0263 O.3     
  40 C40          -11.1114    -4.5119     2.0336 C.3     
  41 C41          -10.8729    -5.9250     2.5696 C.3     
  42 C42          -11.6376    -6.9161     1.7306 C.2     
  43 N43          -11.5773    -8.2313     2.0188 N.am    
  44 O44          -12.3074    -6.5303     0.7960 O.2     
  45 C45          -12.3207    -9.1949     1.2032 C.3     
  46 C46          -12.0822   -10.6079     1.7391 C.3     
  47 S47          -13.0007   -11.7984     0.7314 S.3     
  48 C48          -12.5704   -13.2534     1.5242 C.2     
  49 C49          -13.1113   -14.5699     1.0288 C.3     
  50 O50          -11.8299   -13.2248     2.4849 O.2     
  51 H51           -0.7763    -0.8032    -2.5948 H       
  52 H52            1.1108     1.0542    -2.6152 H       
  53 H53            1.9573    -0.0147     0.0834 H       
  54 H54            0.8119    -2.1634    -1.5348 H       
  55 H55           -0.0709     2.4837     0.7014 H       
  56 H56            5.0956     3.6972    -3.0702 H       
  57 H57            4.3896     6.7050     0.2842 H       
  58 H58            3.0208     6.1761     1.1023 H       
  59 H59            3.4116     0.0262    -1.8377 H       
  60 H60           -3.1734    -2.9837    -2.5355 H       
  61 H61           -1.6854    -3.8455     0.2937 H       
  62 H62            0.1402    -4.2586     2.8359 H       
  63 H63           -6.4872    -3.4169    -1.0190 H       
  64 H64           -8.3094    -0.2781     1.1222 H       
  65 H65           -8.5766    -2.0255     0.9139 H       
  66 H66           -9.6899    -1.4358     4.3976 H       
  67 H67           -6.5620    -2.9070     3.1771 H       
  68 H68           -7.8527    -2.9851     4.4004 H       
  69 H69           -8.1546    -3.5768     2.7490 H       
  70 H70           -7.5101     0.6139     3.2453 H       
  71 H71           -7.4615    -0.3996     4.7077 H       
  72 H72           -6.2052    -0.5775     3.4594 H       
  73 H73           -9.8323    -3.8570     3.5967 H       
  74 H74           -9.9242     0.3109     2.0903 H       
  75 H75          -12.1757    -4.2811     2.0784 H       
  76 H76          -10.7700    -4.4529     1.0001 H       
  77 H77           -9.8086    -6.1558     2.5247 H       
  78 H78          -11.2143    -5.9840     3.6030 H       
  79 H79          -11.0416    -8.5399     2.7663 H       
  80 H80          -13.3850    -8.9640     1.2480 H       
  81 H81          -11.9793    -9.1358     0.1697 H       
  82 H82          -11.0179   -10.8387     1.6943 H       
  83 H83          -12.4236   -10.6670     2.7726 H       
  84 H84          -12.4301   -14.9864     0.2868 H       
  85 H85          -13.2048   -15.2623     1.8654 H       
  86 H86          -14.0902   -14.4131     0.5758 H       
@<TRIPOS>BOND
   1    1    2 1
   2    1    3 1
   3    2    5 1
   4    2   18 1
   5    2   51 1
   6    3    4 1
   7    3    6 1
   8    3   52 1
   9    4   16 1
  10    4    5 1
  11    4   53 1
  12    5   17 1
  13    5   54 1
  14    6    7 1
  15    6   10 1
  16    7    8 ar
  17    7   11 ar
  18    8    9 1
  19    8   14 ar
  20    9   10 2
  21   10   55 1
  22   11   12 ar
  23   12   13 ar
  24   12   56 1
  25   13   14 ar
  26   14   15 1
  27   15   57 1
  28   15   58 1
  29   16   59 1
  30   17   23 1
  31   18   19 1
  32   19   20 1
  33   19   21 2
  34   19   22 1
  35   20   27 1
  36   22   60 1
  37   23   24 1
  38   23   25 2
  39   23   26 1
  40   24   61 1
  41   26   62 1
  42   27   28 2
  43   27   29 1
  44   27   30 1
  45   29   63 1
  46   30   31 1
  47   31   32 1
  48   31   64 1
  49   31   65 1
  50   32   33 1
  51   32   34 1
  52   32   35 1
  53   33   36 1
  54   33   39 1
  55   33   66 1
  56   34   67 1
  57   34   68 1
  58   34   69 1
  59   35   70 1
  60   35   71 1
  61   35   72 1
  62   36   37 am
  63   36   38 2
  64   37   40 1
  65   37   73 1
  66   39   74 1
  67   40   41 1
  68   40   75 1
  69   40   76 1
  70   41   42 1
  71   41   77 1
  72   41   78 1
  73   42   43 am
  74   42   44 2
  75   43   45 1
  76   43   79 1
  77   45   46 1
  78   45   80 1
  79   45   81 1
  80   46   47 1
  81   46   82 1
  82   46   83 1
  83   47   48 1
  84   48   49 1
  85   48   50 2
  86   49   84 1
  87   49   85 1
  88   49   86 1

#	End of record

