#	Name: ASD05730157
#	Creating user name:	WinNT
#	Creation time:	15. 06. 2019 21:02

#	Modifying user name:	WinNT
#	Modification time:	15. 06. 2019 21:02

#	Program:	/corina/corina34_cracker 3.40 0067  02.08.2006

@<TRIPOS>MOLECULE
ASD05730157
  26   27    0    0    0
SMALL
NO_CHARGES


@<TRIPOS>ATOM
   1 C1            -0.0170     1.4003     0.0097 C.ar    
   2 C2             0.0021    -0.0041     0.0020 C.ar    
   3 C3             1.1943    -0.6622    -0.0128 C.ar    
   4 C4             2.3981     0.0384    -0.0200 C.ar    
   5 C5             2.4162     1.4005    -0.0129 C.ar    
   6 C6             1.2070     2.1127     0.0019 C.ar    
   7 C7             1.1952     3.5252     0.0084 C.ar    
   8 C8             0.0131     4.1977     0.0228 C.ar    
   9 C9            -1.2125     3.5036     0.0313 C.ar    
  10 C10           -1.2343     2.1112     0.0193 C.ar    
  11 O11           -2.4149     1.4457     0.0218 O.3     
  12 O12            2.3674     4.2135     0.0009 O.3     
  13 C13           -2.4781     4.2548     0.0479 C.2     
  14 O14           -3.5379     3.6597     0.0553 O.2     
  15 O15           -2.4619     5.6026     0.0548 O.3     
  16 C16           -3.7476     6.2772     0.0711 C.3     
  17 H17           -0.9242    -0.5593     0.0082 H       
  18 H18            1.2065    -1.7421    -0.0188 H       
  19 H19            3.3307    -0.5061    -0.0311 H       
  20 H20            3.3574     1.9302    -0.0190 H       
  21 H21            0.0142     5.2776     0.0281 H       
  22 H22           -2.7532     1.2481     0.9059 H       
  23 H23            2.6984     4.4167    -0.8847 H       
  24 H24           -4.3169     5.9957    -0.8147 H       
  25 H25           -4.2992     5.9863     0.9651 H       
  26 H26           -3.5918     7.3560     0.0753 H       
@<TRIPOS>BOND
   1    1    2 ar
   2    1    6 ar
   3    1   10 ar
   4    2    3 ar
   5    2   17 1
   6    3    4 ar
   7    3   18 1
   8    4    5 ar
   9    4   19 1
  10    5    6 ar
  11    5   20 1
  12    6    7 ar
  13    7    8 ar
  14    7   12 1
  15    8    9 ar
  16    8   21 1
  17    9   10 ar
  18    9   13 1
  19   10   11 1
  20   11   22 1
  21   12   23 1
  22   13   14 2
  23   13   15 1
  24   15   16 1
  25   16   24 1
  26   16   25 1
  27   16   26 1

#	End of record

