#	Name: ASD01140253
#	Creating user name:	WinNT
#	Creation time:	15. 06. 2019 19:00

#	Modifying user name:	WinNT
#	Modification time:	15. 06. 2019 19:00

#	Program:	/corina/corina34_cracker 3.40 0067  02.08.2006

@<TRIPOS>MOLECULE
ASD01140253
  28   29    0    0    0
SMALL
NO_CHARGES


@<TRIPOS>ATOM
   1 C1            -0.2216     0.9942    -0.2476 C.ar    
   2 C2            -0.0907    -0.3842    -0.1839 C.ar    
   3 C3             1.1587    -0.9612    -0.0929 C.ar    
   4 C4             2.2981    -0.1542    -0.0651 C.ar    
   5 C5             2.1614     1.2409    -0.1303 C.ar    
   6 C6             0.8963     1.8042    -0.2211 C.ar    
   7 Br7           -1.6323    -1.4787    -0.2213 Br      
   8 C8             3.6382    -0.7650     0.0327 C.2     
   9 O9             4.1025    -1.3696    -0.9169 O.2     
  10 C10            4.4096    -0.6439     1.2718 C.2     
  11 C11            5.6151    -1.2433     1.5186 C.2     
  12 C12            6.1174    -0.9592     2.7652 C.2     
  13 C13            5.3533    -0.1557     3.5163 C.2     
  14 S14            3.9392     0.3009     2.6781 S.3     
  15 N15            3.2907     2.0570    -0.1030 N.am    
  16 C16            3.1921     3.3296     0.3295 C.2     
  17 O17            2.1472     3.7328     0.7948 O.2     
  18 C18            4.3804     4.2517     0.2350 C.3     
  19 Br19           3.8968     6.0190     0.9478 Br      
  20 H20           -1.2037     1.4372    -0.3228 H       
  21 H21            1.2557    -2.0357    -0.0428 H       
  22 H22            0.7861     2.8774    -0.2715 H       
  23 H23            6.1208    -1.8764     0.8046 H       
  24 H24            7.0596    -1.3552     3.1142 H       
  25 H25            5.6013     0.1639     4.5177 H       
  26 H26            4.1477     1.7090    -0.3952 H       
  27 H27            5.2068     3.8400     0.8143 H       
  28 H28            4.6814     4.3506    -0.8079 H       
@<TRIPOS>BOND
   1    1    2 ar
   2    1    6 ar
   3    1   20 1
   4    2    3 ar
   5    2    7 1
   6    3    4 ar
   7    3   21 1
   8    4    5 ar
   9    4    8 1
  10    5    6 ar
  11    5   15 1
  12    6   22 1
  13    8    9 2
  14    8   10 1
  15   10   11 2
  16   10   14 1
  17   11   12 1
  18   11   23 1
  19   12   13 2
  20   12   24 1
  21   13   14 1
  22   13   25 1
  23   15   16 am
  24   15   26 1
  25   16   17 2
  26   16   18 1
  27   18   19 1
  28   18   27 1
  29   18   28 1

#	End of record

