#	Name: ASD01148144
#	Creating user name:	WinNT
#	Creation time:	15. 06. 2019 19:02

#	Modifying user name:	WinNT
#	Modification time:	15. 06. 2019 19:02

#	Program:	/corina/corina34_cracker 3.40 0067  02.08.2006

@<TRIPOS>MOLECULE
ASD01148144
  45   46    0    0    0
SMALL
NO_CHARGES


@<TRIPOS>ATOM
   1 C1            -0.0191     1.3918     0.0163 C.ar    
   2 C2            -0.0047    -0.0002     0.0161 C.ar    
   3 N3            -1.1191    -0.6998     0.0297 N.ar    
   4 C4            -2.3119    -0.1177     0.0443 C.ar    
   5 C5            -2.4028     1.2855     0.0455 C.ar    
   6 C6            -1.2390     2.0559     0.0366 C.ar    
   7 N7            -3.4571    -0.8816     0.0578 N.pl3   
   8 C8            -4.6866    -0.3506     0.0724 C.2     
   9 C9            -4.9011     1.0126     0.0747 C.2     
  10 C10           -3.7361     1.9130     0.0619 C.2     
  11 C11           -6.2669     1.5556     0.0895 C.2     
  12 O12           -6.4620     2.8895     0.0915 O.3     
  13 C13           -7.8374     3.3545     0.1065 C.3     
  14 O14           -7.2206     0.8019     0.1000 O.2     
  15 O15           -3.8687     3.1243     0.0631 O.2     
  16 C16           -3.3250    -2.3406     0.0556 C.3     
  17 N17            1.1814     2.1136     0.0021 N.am    
  18 C18            1.2561     3.2841    -0.6618 C.2     
  19 C19           -3.2617    -2.8491     1.4973 C.3     
  20 C20           -7.8586     4.8844     0.1066 C.3     
  21 C21            2.5075     4.1196    -0.5775 C.3     
  22 O22            0.3162     3.6650    -1.3272 O.2     
  23 C23            3.6946     3.3155    -1.1113 C.3     
  24 C24            2.3317     5.3872    -1.4161 C.3     
  25 H25            0.9430    -0.5179     0.0042 H       
  26 H26           -1.2856     3.1349     0.0377 H       
  27 H27           -5.5400    -1.0125     0.0825 H       
  28 H28           -8.3559     2.9840    -0.7779 H       
  29 H29           -8.3365     2.9842     1.0020 H       
  30 H30           -4.1848    -2.7825    -0.4480 H       
  31 H31           -2.4122    -2.6220    -0.4694 H       
  32 H32            1.9589     1.7710     0.4701 H       
  33 H33           -3.1634    -3.9347     1.4956 H       
  34 H34           -2.4019    -2.4072     2.0010 H       
  35 H35           -4.1745    -2.5677     2.0223 H       
  36 H36           -7.3401     5.2548     0.9909 H       
  37 H37           -7.3595     5.2547    -0.7889 H       
  38 H38           -8.8911     5.2335     0.1178 H       
  39 H39            2.6920     4.3938     0.4612 H       
  40 H40            4.5997     3.9198    -1.0503 H       
  41 H41            3.8198     2.4124    -0.5139 H       
  42 H42            3.5101     3.0413    -2.1500 H       
  43 H43            1.4860     5.9601    -1.0358 H       
  44 H44            3.2368     5.9916    -1.3552 H       
  45 H45            2.1472     5.1130    -2.4548 H       
@<TRIPOS>BOND
   1    1    2 ar
   2    1   17 1
   3    1    6 ar
   4    2    3 ar
   5    2   25 1
   6    3    4 ar
   7    4    5 ar
   8    4    7 1
   9    5    6 ar
  10    5   10 1
  11    6   26 1
  12    7    8 1
  13    7   16 1
  14    8    9 2
  15    8   27 1
  16    9   10 1
  17    9   11 1
  18   10   15 2
  19   11   12 1
  20   11   14 2
  21   12   13 1
  22   13   20 1
  23   13   28 1
  24   13   29 1
  25   16   19 1
  26   16   30 1
  27   16   31 1
  28   17   18 am
  29   17   32 1
  30   18   21 1
  31   18   22 2
  32   19   33 1
  33   19   34 1
  34   19   35 1
  35   20   36 1
  36   20   37 1
  37   20   38 1
  38   21   23 1
  39   21   24 1
  40   21   39 1
  41   23   40 1
  42   23   41 1
  43   23   42 1
  44   24   43 1
  45   24   44 1
  46   24   45 1

#	End of record

