#	Name: ASD03092340
#	Creating user name:	WinNT
#	Creation time:	15. 06. 2019 20:32

#	Modifying user name:	WinNT
#	Modification time:	15. 06. 2019 20:32

#	Program:	/corina/corina34_cracker 3.40 0067  02.08.2006

@<TRIPOS>MOLECULE
ASD03092340
  62   66    0    0    0
SMALL
NO_CHARGES


@<TRIPOS>ATOM
   1 O1            -0.2043     0.1771     0.0016 O.3     
   2 C2            -0.0023    -1.2450    -0.0997 C.3     
   3 O3             1.2762    -1.3631    -0.7515 O.3     
   4 C4             1.9562    -0.2280    -0.4281 C.ar    
   5 C5             1.0478     0.7207     0.0353 C.ar    
   6 C6             3.3176     0.0891    -0.4913 C.ar    
   7 C7             3.7530     1.3552    -0.0888 C.ar    
   8 C8             2.8430     2.2833     0.3673 C.ar    
   9 C9             1.4952     1.9695     0.4311 C.ar    
  10 C10            4.2891    -0.9080    -0.9800 C.2     
  11 O11            3.9074    -2.0084    -1.3290 O.2     
  12 N12            5.5997    -0.5992    -1.0396 N.am    
  13 F13            0.0384    -1.8275     1.1716 F       
  14 F14           -1.0068    -1.8301    -0.8781 F       
  15 C15            6.5643    -1.5893    -1.5248 C.3     
  16 S16           10.1305     0.1297    -2.0945 S.3     
  17 C17            9.8787    -0.4604    -0.5101 C.2     
  18 N18            8.7012    -1.0006    -0.4122 N.2     
  19 C19            7.9502    -0.9984    -1.4920 C.2     
  20 C20            8.5258    -0.4223    -2.5680 C.2     
  21 C21            8.0218    -0.4826    -6.2891 C.ar    
  22 C22            8.6285    -0.6316    -5.0608 C.ar    
  23 C23            7.9181    -0.2793    -3.9054 C.ar    
  24 C24            6.6144     0.2121    -4.0554 C.ar    
  25 C25            6.0864     0.3286    -5.3229 C.ar    
  26 N26            6.7907    -0.0154    -6.3852 N.ar    
  27 C27            4.6856     0.8556    -5.4988 C.3     
  28 C28            8.7764    -0.8516    -7.5402 C.3     
  29 N29           10.7974    -0.3753     0.5202 N.3     
  30 C30           12.0283     0.2937     0.0747 C.3     
  31 C31           13.0375     0.3130     1.2258 C.3     
  32 O32           12.4494     0.9593     2.3579 O.3     
  33 C33           11.2489     0.3335     2.8188 C.3     
  34 C34           10.2216     0.3143     1.6839 C.3     
  35 C35           10.6857     1.1195     4.0045 C.3     
  36 C36           14.2901     1.0783     0.7942 C.3     
  37 H37            4.8026     1.6055    -0.1351 H       
  38 H38            3.1822     3.2606     0.6775 H       
  39 H39            0.7893     2.7039     0.7901 H       
  40 H40            5.9042     0.2787    -0.7612 H       
  41 H41            6.5306    -2.4724    -0.8867 H       
  42 H42            6.3132    -1.8703    -2.5476 H       
  43 H43            9.6358    -1.0147    -4.9897 H       
  44 H44            6.0322     0.4948    -3.1908 H       
  45 H45            4.7161     1.9398    -5.6066 H       
  46 H46            4.2406     0.4141    -6.3906 H       
  47 H47            4.0867     0.5939    -4.6265 H       
  48 H48            8.5944    -1.8996    -7.7785 H       
  49 H49            8.4373    -0.2269    -8.3666 H       
  50 H50            9.8432    -0.6952    -7.3806 H       
  51 H51           12.4513    -0.2482    -0.7712 H       
  52 H52           11.7987     1.3161    -0.2253 H       
  53 H53           13.3079    -0.7093     1.4900 H       
  54 H54           11.4672    -0.6883     3.1294 H       
  55 H55            9.9631     1.3371     1.4097 H       
  56 H56            9.3258    -0.2125     2.0127 H       
  57 H57           10.4660     2.1404     3.6922 H       
  58 H58            9.7708     0.6420     4.3553 H       
  59 H59           11.4191     1.1360     4.8108 H       
  60 H60           14.0188     2.1010     0.5321 H       
  61 H61           15.0082     1.0917     1.6141 H       
  62 H62           14.7357     0.5875    -0.0710 H       
@<TRIPOS>BOND
   1    1    2 1
   2    1    5 1
   3    2    3 1
   4    2   13 1
   5    2   14 1
   6    3    4 1
   7    4    5 ar
   8    4    6 ar
   9    5    9 ar
  10    6    7 ar
  11    6   10 1
  12    7    8 ar
  13    7   37 1
  14    8    9 ar
  15    8   38 1
  16    9   39 1
  17   10   11 2
  18   10   12 am
  19   12   15 1
  20   12   40 1
  21   15   19 1
  22   15   41 1
  23   15   42 1
  24   16   17 1
  25   16   20 1
  26   17   18 2
  27   17   29 1
  28   18   19 1
  29   19   20 2
  30   20   23 1
  31   21   22 ar
  32   21   26 ar
  33   21   28 1
  34   22   23 ar
  35   22   43 1
  36   23   24 ar
  37   24   25 ar
  38   24   44 1
  39   25   26 ar
  40   25   27 1
  41   27   45 1
  42   27   46 1
  43   27   47 1
  44   28   48 1
  45   28   49 1
  46   28   50 1
  47   29   30 1
  48   29   34 1
  49   30   31 1
  50   30   51 1
  51   30   52 1
  52   31   32 1
  53   31   36 1
  54   31   53 1
  55   32   33 1
  56   33   34 1
  57   33   35 1
  58   33   54 1
  59   34   55 1
  60   34   56 1
  61   35   57 1
  62   35   58 1
  63   35   59 1
  64   36   60 1
  65   36   61 1
  66   36   62 1

#	End of record

