#	Name: ASD01884549
#	Creating user name:	WinNT
#	Creation time:	15. 06. 2019 19:48

#	Modifying user name:	WinNT
#	Modification time:	15. 06. 2019 19:48

#	Program:	/corina/corina34_cracker 3.40 0067  02.08.2006

@<TRIPOS>MOLECULE
ASD01884549
  45   47    0    0    0
SMALL
NO_CHARGES


@<TRIPOS>ATOM
   1 C1            -0.4477     1.0653    -0.5642 C.2     
   2 C2            -0.1616    -0.2425    -0.3149 C.2     
   3 C3             1.1695    -0.6122    -0.0244 C.2     
   4 C4             2.1456     0.3412     0.0024 C.2     
   5 N5             1.8471     1.6405    -0.2472 N.am    
   6 C6             0.5858     2.0180    -0.5271 C.2     
   7 O7             0.3381     3.1922    -0.7493 O.2     
   8 C8             2.9116     2.6464    -0.2118 C.3     
   9 C9             3.5209     2.7815    -1.5835 C.ar    
  10 C10            1.5057    -2.0311     0.2511 C.ar    
  11 C11            0.9879    -2.6651     1.3790 C.ar    
  12 C12            2.3354    -2.7340    -0.6206 C.ar    
  13 C13            2.6462    -4.0527    -0.3619 C.ar    
  14 C14            2.1331    -4.6799     0.7651 C.ar    
  15 C15            1.3022    -3.9840     1.6324 C.ar    
  16 O16            2.4404    -5.9796     1.0169 O.3     
  17 C17            1.8783    -6.5627     2.1942 C.3     
  18 C18            3.5595     3.8217    -3.7398 C.ar    
  19 C19            4.6389     3.0288    -4.1018 C.ar    
  20 C20            5.1536     2.1084    -3.2005 C.ar    
  21 C21            4.5933     1.9864    -1.9437 C.ar    
  22 C22            3.0031     3.6963    -2.4817 C.ar    
  23 O23            5.1879     3.1501    -5.3393 O.3     
  24 C24            5.9770     4.2148    -5.5545 C.2     
  25 C25            6.5266     4.4792    -6.9326 C.3     
  26 O26            6.2466     4.9610    -4.6432 O.2     
  27 H27           -1.4590     1.3676    -0.7928 H       
  28 H28           -0.9432    -0.9874    -0.3389 H       
  29 H29            3.1641     0.0589     0.2247 H       
  30 H30            2.4953     3.6053     0.0969 H       
  31 H31            3.6793     2.3381     0.4980 H       
  32 H32            0.3414    -2.1241     2.0541 H       
  33 H33            2.7342    -2.2467    -1.4980 H       
  34 H34            3.2891    -4.5979    -1.0371 H       
  35 H35            0.9048    -4.4745     2.5087 H       
  36 H36            2.2021    -7.6003     2.2759 H       
  37 H37            2.2134    -6.0075     3.0703 H       
  38 H38            0.7905    -6.5252     2.1345 H       
  39 H39            3.1570     4.5390    -4.4397 H       
  40 H40            5.9936     1.4898    -3.4800 H       
  41 H41            4.9934     1.2698    -1.2418 H       
  42 H42            2.1626     4.3130    -2.1995 H       
  43 H43            5.8319     5.1114    -7.4856 H       
  44 H44            7.4893     4.9835    -6.8492 H       
  45 H45            6.6560     3.5339    -7.4596 H       
@<TRIPOS>BOND
   1    1    2 2
   2    1    6 1
   3    1   27 1
   4    2    3 1
   5    2   28 1
   6    3    4 2
   7    3   10 1
   8    4    5 1
   9    4   29 1
  10    5    6 am
  11    5    8 1
  12    6    7 2
  13    8    9 1
  14    8   30 1
  15    8   31 1
  16    9   22 ar
  17    9   21 ar
  18   10   11 ar
  19   10   12 ar
  20   11   15 ar
  21   11   32 1
  22   12   13 ar
  23   12   33 1
  24   13   14 ar
  25   13   34 1
  26   14   15 ar
  27   14   16 1
  28   15   35 1
  29   16   17 1
  30   17   36 1
  31   17   37 1
  32   17   38 1
  33   18   19 ar
  34   18   22 ar
  35   18   39 1
  36   19   20 ar
  37   19   23 1
  38   20   21 ar
  39   20   40 1
  40   21   41 1
  41   22   42 1
  42   23   24 1
  43   24   25 1
  44   24   26 2
  45   25   43 1
  46   25   44 1
  47   25   45 1

#	End of record

