#	Name: ASD03730894
#	Creating user name:	WinNT
#	Creation time:	15. 06. 2019 20:44

#	Modifying user name:	WinNT
#	Modification time:	15. 06. 2019 20:44

#	Program:	/corina/corina34_cracker 3.40 0067  02.08.2006

@<TRIPOS>MOLECULE
ASD03730894
  65   71    0    0    0
SMALL
NO_CHARGES


@<TRIPOS>ATOM
   1 C1            -0.0181     1.4736     0.0143 C.2     
   2 C2             0.0015    -0.0044     0.0110 C.ar    
   3 C3             1.2180    -0.6894    -0.0000 C.ar    
   4 C4             1.2293    -2.0687    -0.0030 C.ar    
   5 C5             0.0383    -2.7734     0.0048 C.ar    
   6 C6            -1.1705    -2.1009     0.0158 C.ar    
   7 C7            -1.1959    -0.7214     0.0247 C.ar    
   8 O8             1.0264     2.0954     0.0073 O.2     
   9 N9            -1.1942     2.1319     0.0193 N.am    
  10 C10            2.5414    -2.8098    -0.0154 C.3     
  11 O11           -0.9058    -3.3042     6.2745 O.3     
  12 C12           -0.9487    -3.5545     7.6918 C.3     
  13 O13           -0.0441    -4.6601     7.8716 O.3     
  14 C14            0.8551    -4.5672     6.8480 C.ar    
  15 C15            0.3242    -3.7341     5.8659 C.ar    
  16 C16            2.1045    -5.1345     6.6725 C.ar    
  17 C17            2.8381    -4.8807     5.5175 C.ar    
  18 C18            2.2937    -4.0535     4.5398 C.ar    
  19 C19            1.0509    -3.4814     4.7146 C.ar    
  20 O20            4.0786    -5.3195     5.1586 O.3     
  21 C21            3.2968    -3.9967     3.4189 C.3     
  22 C22            4.2460    -5.1602     3.7366 C.3     
  23 N23            2.9779    -3.0529     1.3617 N.am    
  24 C24            2.6526    -4.1518     2.0714 C.2     
  25 C25            4.0196    -2.6835     3.3655 C.ar    
  26 C26            4.7904    -1.9844     4.2673 C.ar    
  27 C27            5.3369    -0.7640     3.9123 C.ar    
  28 C28            5.1065    -0.2478     2.6500 C.ar    
  29 C29            4.3343    -0.9438     1.7435 C.ar    
  30 C30            3.7806    -2.1732     2.0921 C.ar    
  31 O31            1.9730    -5.0833     1.6952 O.2     
  32 C32           -1.2149     3.5256     0.1325 C.ar    
  33 C33           -0.2675     4.1745     0.9138 C.ar    
  34 C34           -0.2908     5.5510     1.0236 C.ar    
  35 C35           -1.2562     6.2831     0.3570 C.ar    
  36 C36           -2.2009     5.6401    -0.4217 C.ar    
  37 C37           -2.1794     4.2643    -0.5406 C.ar    
  38 C38           -3.2515     6.4418    -1.1459 C.3     
  39 C39            0.7367     6.2560     1.8711 C.3     
  40 H40            2.1481    -0.1406    -0.0065 H       
  41 H41            0.0527    -3.8533     0.0021 H       
  42 H42           -2.0964    -2.6569     0.0219 H       
  43 H43           -2.1402    -0.1975     0.0381 H       
  44 H44           -2.0262     1.6389    -0.0556 H       
  45 H45            2.4158    -3.7623    -0.5302 H       
  46 H46            3.2912    -2.2125    -0.5342 H       
  47 H47           -0.6020    -2.6820     8.2455 H       
  48 H48           -1.9567    -3.8302     8.0016 H       
  49 H49            2.5133    -5.7787     7.4369 H       
  50 H50            0.6434    -2.8350     3.9514 H       
  51 H51            5.2757    -4.8967     3.4951 H       
  52 H52            3.9421    -6.0633     3.2074 H       
  53 H53            4.9688    -2.3893     5.2525 H       
  54 H54            5.9422    -0.2158     4.6190 H       
  55 H55            5.5330     0.7050     2.3730 H       
  56 H56            4.1585    -0.5339     0.7599 H       
  57 H57            0.4863     3.6033     1.4352 H       
  58 H58           -1.2727     7.3594     0.4451 H       
  59 H59           -2.9148     3.7630    -1.1525 H       
  60 H60           -2.8843     6.7114    -2.1362 H       
  61 H61           -4.1591     5.8464    -1.2446 H       
  62 H62           -3.4709     7.3477    -0.5808 H       
  63 H63            1.6053     6.5015     1.2599 H       
  64 H64            0.3069     7.1721     2.2762 H       
  65 H65            1.0412     5.6044     2.6900 H       
@<TRIPOS>BOND
   1    1    2 1
   2    1    8 2
   3    1    9 am
   4    2    3 ar
   5    2    7 ar
   6    3    4 ar
   7    3   40 1
   8    4    5 ar
   9    4   10 1
  10    5    6 ar
  11    5   41 1
  12    6    7 ar
  13    6   42 1
  14    7   43 1
  15    9   32 1
  16    9   44 1
  17   10   23 1
  18   10   45 1
  19   10   46 1
  20   11   12 1
  21   11   15 1
  22   12   13 1
  23   12   47 1
  24   12   48 1
  25   13   14 1
  26   14   15 ar
  27   14   16 ar
  28   15   19 ar
  29   16   17 ar
  30   16   49 1
  31   17   18 ar
  32   17   20 1
  33   18   19 ar
  34   18   21 1
  35   19   50 1
  36   20   22 1
  37   21   22 1
  38   21   24 1
  39   21   25 1
  40   22   51 1
  41   22   52 1
  42   23   24 am
  43   23   30 1
  44   24   31 2
  45   25   26 ar
  46   25   30 ar
  47   26   27 ar
  48   26   53 1
  49   27   28 ar
  50   27   54 1
  51   28   29 ar
  52   28   55 1
  53   29   30 ar
  54   29   56 1
  55   32   33 ar
  56   32   37 ar
  57   33   34 ar
  58   33   57 1
  59   34   35 ar
  60   34   39 1
  61   35   36 ar
  62   35   58 1
  63   36   37 ar
  64   36   38 1
  65   37   59 1
  66   38   60 1
  67   38   61 1
  68   38   62 1
  69   39   63 1
  70   39   64 1
  71   39   65 1

#	End of record

