#	Name: ASD01814347
#	Creating user name:	WinNT
#	Creation time:	15. 06. 2019 19:32

#	Modifying user name:	WinNT
#	Modification time:	15. 06. 2019 19:32

#	Program:	/corina/corina34_cracker 3.40 0067  02.08.2006

@<TRIPOS>MOLECULE
ASD01814347
  62   67    0    0    0
SMALL
NO_CHARGES


@<TRIPOS>ATOM
   1 N1            -1.2864     1.8885    -2.4478 N.2     
   2 C2            -1.5669     0.8195    -3.1551 C.2     
   3 C3            -0.6849     0.3811    -4.1547 C.2     
   4 C4             0.4596     1.0718    -4.3832 C.2     
   5 N5             0.7270     2.1811    -3.6326 N.pl3   
   6 C6            -0.1590     2.5786    -2.6648 C.2     
   7 N7             1.7953     3.0840    -3.6258 N.2     
   8 C8             1.5783     3.9946    -2.6983 C.2     
   9 C9             0.3726     3.7195    -2.0753 C.2     
  10 C10            2.1747     5.2316    -2.0729 C.3     
  11 N11            1.2546     5.6917    -1.0282 N.am    
  12 C12            0.1224     4.7600    -1.0141 C.3     
  13 C13            1.4184     6.7668    -0.2321 C.2     
  14 O14            0.5315     7.0995     0.5304 O.2     
  15 C15            2.6728     7.5394    -0.2856 C.ar    
  16 C16            2.6370     8.9414    -0.2990 C.ar    
  17 C17            3.9037     6.8786    -0.3174 C.ar    
  18 C18            5.0725     7.6051    -0.3669 C.ar    
  19 C19            5.0339     8.9925    -0.3854 C.ar    
  20 C20            3.8213     9.6584    -0.3489 C.ar    
  21 O21            1.4475     9.5926    -0.2637 O.3     
  22 C22            1.4905    11.0160    -0.1442 C.3     
  23 Cl23          -1.0553    -1.0335    -5.0902 Cl      
  24 F24            6.1860     9.6963    -0.4335 F       
  25 C25            0.3525    11.3536    -2.3403 C.3     
  26 C26            1.6304    11.6399    -1.5357 C.3     
  27 C27            0.2008    11.5108     0.5168 C.3     
  28 C28           -0.9803    11.2332    -0.4269 C.3     
  29 N29           -0.7671    12.0493    -1.6517 N.3     
  30 C30            0.0209     9.8517    -2.1825 C.3     
  31 C31           -0.8597     9.7722    -0.9181 C.3     
  32 C32           -1.9729    12.0645    -2.4906 C.3     
  33 C33           -3.1267    12.7017    -1.7136 C.3     
  34 O34           -2.8271    14.0752    -1.4572 O.3     
  35 C35           -3.8462    14.7669    -0.7326 C.3     
  36 H36           -2.4802     0.2745    -2.9669 H       
  37 H37            1.1502     0.7489    -5.1481 H       
  38 H38            3.1432     4.9930    -1.6332 H       
  39 H39            2.2927     6.0076    -2.8292 H       
  40 H40           -0.8008     5.2964    -1.2330 H       
  41 H41            0.0502     4.2816    -0.0373 H       
  42 H42            3.9383     5.7993    -0.3028 H       
  43 H43            6.0232     7.0932    -0.3911 H       
  44 H44            3.7983    10.7381    -0.3597 H       
  45 H45            2.3451    11.3028     0.4685 H       
  46 H46            0.4473    11.6566    -3.3831 H       
  47 H47            1.7683    12.7170    -1.4406 H       
  48 H48            2.4889    11.2039    -2.0466 H       
  49 H49            0.0476    10.9835     1.4584 H       
  50 H50            0.2744    12.5821     0.7042 H       
  51 H51           -1.9406    11.4408     0.0451 H       
  52 H52           -0.5297     9.4915    -3.0515 H       
  53 H53            0.9349     9.2739    -2.0452 H       
  54 H54           -0.3787     9.1552    -0.1591 H       
  55 H55           -1.8432     9.3727    -1.1654 H       
  56 H56           -1.7798    12.6432    -3.3939 H       
  57 H57           -2.2388    11.0432    -2.7633 H       
  58 H58           -4.0421    12.6331    -2.3013 H       
  59 H59           -3.2618    12.1766    -0.7681 H       
  60 H60           -4.7765    14.7412    -1.2999 H       
  61 H61           -3.9962    14.2847     0.2334 H       
  62 H62           -3.5432    15.8026    -0.5785 H       
@<TRIPOS>BOND
   1    1    2 2
   2    1    6 1
   3    2    3 1
   4    2   36 1
   5    3    4 2
   6    3   23 1
   7    4    5 1
   8    4   37 1
   9    5    7 1
  10    5    6 1
  11    6    9 2
  12    7    8 2
  13    8   10 1
  14    8    9 1
  15    9   12 1
  16   10   11 1
  17   10   38 1
  18   10   39 1
  19   11   12 1
  20   11   13 am
  21   12   40 1
  22   12   41 1
  23   13   14 2
  24   13   15 1
  25   15   17 ar
  26   15   16 ar
  27   16   20 ar
  28   16   21 1
  29   17   18 ar
  30   17   42 1
  31   18   19 ar
  32   18   43 1
  33   19   20 ar
  34   19   24 1
  35   20   44 1
  36   21   22 1
  37   22   27 1
  38   22   26 1
  39   22   45 1
  40   25   26 1
  41   25   29 1
  42   25   30 1
  43   25   46 1
  44   26   47 1
  45   26   48 1
  46   27   28 1
  47   27   49 1
  48   27   50 1
  49   28   29 1
  50   28   31 1
  51   28   51 1
  52   29   32 1
  53   30   31 1
  54   30   52 1
  55   30   53 1
  56   31   54 1
  57   31   55 1
  58   32   33 1
  59   32   56 1
  60   32   57 1
  61   33   34 1
  62   33   58 1
  63   33   59 1
  64   34   35 1
  65   35   60 1
  66   35   61 1
  67   35   62 1

#	End of record

