#	Name: ASD02198066
#	Creating user name:	WinNT
#	Creation time:	15. 06. 2019 20:18

#	Modifying user name:	WinNT
#	Modification time:	15. 06. 2019 20:18

#	Program:	/corina/corina34_cracker 3.40 0067  02.08.2006

@<TRIPOS>MOLECULE
ASD02198066
  56   58    0    0    0
SMALL
NO_CHARGES


@<TRIPOS>ATOM
   1 C1             1.4210     1.1264    -0.2580 C.2     
   2 C2             1.7419    -0.2143    -0.2607 C.2     
   3 C3             0.7668    -1.2508    -0.1011 C.1     
   4 S4             2.8147     2.0851    -0.4712 S.3     
   5 C5             3.8526     0.6716    -0.5667 C.2     
   6 C6             3.1013    -0.4698    -0.4332 C.2     
   7 C7             5.2498     0.7041    -0.7535 C.2     
   8 C8             5.9291     1.9870    -1.0201 C.2     
   9 O9             5.8971    -0.3280    -0.6948 O.2     
  10 N10            3.6403    -1.7474    -0.4661 N.pl3   
  11 N11            0.1470     1.6236    -0.1093 N.pl3   
  12 N12           -0.0068    -2.0730     0.0255 N.1     
  13 C13            6.4135     2.9007    -0.1201 C.2     
  14 O14            6.9411     3.8978    -0.8360 O.3     
  15 N15            6.8517     3.7304    -2.0276 N.2     
  16 C16            6.2604     2.6004    -2.3225 C.2     
  17 C17            5.9747     2.0581    -3.6732 C.ar    
  18 C18            6.3608     2.8002     1.3826 C.3     
  19 C19            5.6428     2.9197    -4.7171 C.ar    
  20 C20            5.3784     2.4096    -5.9719 C.ar    
  21 C21            5.4424     1.0459    -6.1945 C.ar    
  22 C22            5.7708     0.1859    -5.1620 C.ar    
  23 C23            6.0428     0.6854    -3.9045 C.ar    
  24 C24           -0.0676     3.0690    -0.0046 C.3     
  25 C25           -0.1960     3.6685    -1.4064 C.3     
  26 C26           -1.3311     3.3342     0.7728 C.2     
  27 O27           -1.9852     2.4106     1.1959 O.2     
  28 O28           -1.7299     4.5965     0.9951 O.3     
  29 C29           -0.2503     5.1942    -1.3056 C.3     
  30 C30            1.0653     5.7139    -0.7226 C.3     
  31 C31           -0.4613     5.7901    -2.6989 C.3     
  32 C32           -2.9563     4.7769     1.7512 C.3     
  33 H33            4.5949    -1.8680    -0.5887 H       
  34 H34            3.0626    -2.5202    -0.3666 H       
  35 H35           -0.6093     1.0172    -0.0739 H       
  36 H36            7.2935     2.3731     1.7511 H       
  37 H37            6.2229     3.7940     1.8086 H       
  38 H38            5.5279     2.1608     1.6750 H       
  39 H39            5.5923     3.9846    -4.5443 H       
  40 H40            5.1208     3.0764    -6.7815 H       
  41 H41            5.2347     0.6510    -7.1781 H       
  42 H42            5.8185    -0.8781    -5.3413 H       
  43 H43            6.2991     0.0131    -3.0991 H       
  44 H44            0.7780     3.5256     0.5098 H       
  45 H45            0.6644     3.3744    -2.0075 H       
  46 H46           -1.1092     3.3026    -1.8758 H       
  47 H47           -1.0759     5.4863    -0.6567 H       
  48 H48            1.8860     5.4580    -1.3927 H       
  49 H49            1.0109     6.7969    -0.6117 H       
  50 H50            1.2363     5.2571     0.2522 H       
  51 H51           -1.3985     5.4199    -3.1143 H       
  52 H52           -0.5000     6.8771    -2.6271 H       
  53 H53            0.3643     5.4980    -3.3479 H       
  54 H54           -3.7815     4.2975     1.2247 H       
  55 H55           -2.8445     4.3270     2.7377 H       
  56 H56           -3.1635     5.8416     1.8588 H       
@<TRIPOS>BOND
   1    1    2 2
   2    1    4 1
   3    1   11 1
   4    2    3 1
   5    2    6 1
   6    3   12 3
   7    4    5 1
   8    5    6 2
   9    5    7 1
  10    6   10 1
  11    7    8 1
  12    7    9 2
  13    8   13 2
  14    8   16 1
  15   10   33 1
  16   10   34 1
  17   11   24 1
  18   11   35 1
  19   13   14 1
  20   13   18 1
  21   14   15 1
  22   15   16 2
  23   16   17 1
  24   17   19 ar
  25   17   23 ar
  26   18   36 1
  27   18   37 1
  28   18   38 1
  29   19   20 ar
  30   19   39 1
  31   20   21 ar
  32   20   40 1
  33   21   22 ar
  34   21   41 1
  35   22   23 ar
  36   22   42 1
  37   23   43 1
  38   24   25 1
  39   24   26 1
  40   24   44 1
  41   25   29 1
  42   25   45 1
  43   25   46 1
  44   26   27 2
  45   26   28 1
  46   28   32 1
  47   29   30 1
  48   29   31 1
  49   29   47 1
  50   30   48 1
  51   30   49 1
  52   30   50 1
  53   31   51 1
  54   31   52 1
  55   31   53 1
  56   32   54 1
  57   32   55 1
  58   32   56 1

#	End of record

