#	Name: ASD01881298
#	Creating user name:	WinNT
#	Creation time:	15. 06. 2019 19:42

#	Modifying user name:	WinNT
#	Modification time:	15. 06. 2019 19:42

#	Program:	/corina/corina34_cracker 3.40 0067  02.08.2006

@<TRIPOS>MOLECULE
ASD01881298
  59   62    0    0    0
SMALL
NO_CHARGES


@<TRIPOS>ATOM
   1 C1            -0.1651     1.9516    -0.1099 C.2     
   2 N2            -0.2385     0.6104    -0.1571 N.am    
   3 C3             1.1229     0.0634    -0.1792 C.3     
   4 C4             2.0538     1.2497    -0.1392 C.ar    
   5 C5             3.4207     1.3715    -0.1380 C.ar    
   6 C6             4.0052     2.6355    -0.0950 C.ar    
   7 C7             3.2030     3.7729    -0.0532 C.ar    
   8 C8             1.8324     3.6548    -0.0543 C.ar    
   9 C9             1.2412     2.3879    -0.0974 C.ar    
  10 O10           -1.1240     2.6989    -0.0863 O.2     
  11 N11            5.3900     2.7612    -0.0933 N.pl3   
  12 C12            6.0048     4.0901    -0.0480 C.3     
  13 C13            8.1903     3.8315    -1.2469 C.ar    
  14 C14            7.5053     3.9499    -0.0558 C.ar    
  15 C15            8.2206     3.9387     1.1412 C.ar    
  16 C16            9.6080     3.8070     1.0805 C.ar    
  17 C17           10.2169     3.6938    -0.1513 C.ar    
  18 N18            9.5043     3.7087    -1.2624 N.ar    
  19 N19            7.5674     4.0561     2.3644 N.3     
  20 C20            7.9541     5.2971     3.0512 C.3     
  21 C21            7.1697     5.4151     4.3606 C.3     
  22 O22            7.4115     4.2552     5.1615 O.3     
  23 C23            7.0457     3.0286     4.5236 C.3     
  24 C24            7.8288     2.8864     3.2158 C.3     
  25 C25            7.4283     3.8360    -2.5470 C.3     
  26 C26           -1.4743    -0.1759    -0.1824 C.3     
  27 C27           -1.9071    -0.3993    -1.6328 C.3     
  28 C28           -3.1977    -1.2205    -1.6592 C.3     
  29 C29           -3.6305    -1.4439    -3.1096 C.3     
  30 H30            1.2862    -0.5706     0.6923 H       
  31 H31            1.2826    -0.5076    -1.0938 H       
  32 H32            4.0423     0.4890    -0.1700 H       
  33 H33            3.6586     4.7516    -0.0196 H       
  34 H34            1.2135     4.5392    -0.0215 H       
  35 H35            5.9489     1.9689    -0.1220 H       
  36 H36            5.6892     4.6663    -0.9178 H       
  37 H37            5.6926     4.6041     0.8610 H       
  38 H38           10.1970     3.7944     1.9857 H       
  39 H39           11.2906     3.5918    -0.2078 H       
  40 H40            9.0222     5.2758     3.2674 H       
  41 H41            7.7282     6.1517     2.4133 H       
  42 H42            7.4946     6.3045     4.9007 H       
  43 H43            6.1047     5.4905     4.1414 H       
  44 H44            7.2808     2.1919     5.1814 H       
  45 H45            5.9770     3.0345     4.3091 H       
  46 H46            7.5115     1.9812     2.6981 H       
  47 H47            8.8949     2.8265     3.4346 H       
  48 H48            7.3352     4.8595    -2.9101 H       
  49 H49            7.9630     3.2364    -3.2837 H       
  50 H50            6.4354     3.4153    -2.3877 H       
  51 H51           -1.3020    -1.1391     0.2978 H       
  52 H52           -2.2578     0.3614     0.3519 H       
  53 H53           -2.0794     0.5639    -2.1130 H       
  54 H54           -1.1236    -0.9366    -2.1671 H       
  55 H55           -3.0254    -2.1837    -1.1790 H       
  56 H56           -3.9813    -0.6832    -1.1249 H       
  57 H57           -4.5500    -2.0290    -3.1284 H       
  58 H58           -3.8029    -0.4807    -3.5898 H       
  59 H59           -2.8470    -1.9812    -3.6439 H       
@<TRIPOS>BOND
   1    1    2 am
   2    1    9 1
   3    1   10 2
   4    2    3 1
   5    2   26 1
   6    3    4 1
   7    3   30 1
   8    3   31 1
   9    4    5 ar
  10    4    9 ar
  11    5    6 ar
  12    5   32 1
  13    6    7 ar
  14    6   11 1
  15    7    8 ar
  16    7   33 1
  17    8    9 ar
  18    8   34 1
  19   11   12 1
  20   11   35 1
  21   12   14 1
  22   12   36 1
  23   12   37 1
  24   13   14 ar
  25   13   18 ar
  26   13   25 1
  27   14   15 ar
  28   15   16 ar
  29   15   19 1
  30   16   17 ar
  31   16   38 1
  32   17   18 ar
  33   17   39 1
  34   19   20 1
  35   19   24 1
  36   20   21 1
  37   20   40 1
  38   20   41 1
  39   21   22 1
  40   21   42 1
  41   21   43 1
  42   22   23 1
  43   23   24 1
  44   23   44 1
  45   23   45 1
  46   24   46 1
  47   24   47 1
  48   25   48 1
  49   25   49 1
  50   25   50 1
  51   26   27 1
  52   26   51 1
  53   26   52 1
  54   27   28 1
  55   27   53 1
  56   27   54 1
  57   28   29 1
  58   28   55 1
  59   28   56 1
  60   29   57 1
  61   29   58 1
  62   29   59 1

#	End of record

