#	Name: ASD02198342
#	Creating user name:	WinNT
#	Creation time:	15. 06. 2019 20:19

#	Modifying user name:	WinNT
#	Modification time:	15. 06. 2019 20:19

#	Program:	/corina/corina34_cracker 3.40 0067  02.08.2006

@<TRIPOS>MOLECULE
ASD02198342
  40   43    0    0    0
SMALL
NO_CHARGES


@<TRIPOS>ATOM
   1 C1             1.5529     1.6711    -0.9799 C.2     
   2 C2             1.6148     0.3215    -0.6834 C.2     
   3 S3             2.8799     2.4657    -0.1364 S.3     
   4 C4             3.3829     0.9692     0.5167 C.2     
   5 N5             2.6062     0.0042     0.1157 N.2     
   6 N6             0.7154    -0.6070    -1.1823 N.pl3   
   7 C7             0.6043     2.2961    -1.8106 C.2     
   8 C8             0.5700     3.7722    -1.9147 C.ar    
   9 O9            -0.1893     1.6216    -2.4447 O.2     
  10 N10            4.4642     0.8056     1.3539 N.pl3   
  11 C11           -0.0197     4.3829    -3.0221 C.ar    
  12 C12            1.1220     4.5588    -0.9030 C.ar    
  13 C13            1.0868     5.9342    -1.0060 C.ar    
  14 C14            0.5054     6.5336    -2.1091 C.ar    
  15 C15           -0.0484     5.7593    -3.1131 C.ar    
  16 C16            4.8785    -0.4757     1.7152 C.ar    
  17 C17            5.8640    -0.6514     2.7109 C.ar    
  18 C18            6.2690    -1.9628     3.0622 C.ar    
  19 C19            5.6842    -3.0645     2.4140 C.ar    
  20 C20            4.7364    -2.8659     1.4571 C.ar    
  21 C21            4.3257    -1.5827     1.1077 C.ar    
  22 C22            6.4493     0.4473     3.3580 C.ar    
  23 C23            7.3975     0.2404     4.3137 C.ar    
  24 C24            7.7965    -1.0485     4.6599 C.ar    
  25 C25            7.2498    -2.1378     4.0532 C.ar    
  26 H26           -0.0012    -0.3208    -1.7700 H       
  27 H27            0.8024    -1.5431    -0.9437 H       
  28 H28            4.9374     1.5819     1.6921 H       
  29 H29           -0.4523     3.7796    -3.8064 H       
  30 H30            1.5755     4.0921    -0.0411 H       
  31 H31            1.5138     6.5442    -0.2237 H       
  32 H32            0.4801     7.6107    -2.1849 H       
  33 H33           -0.5005     6.2332    -3.9718 H       
  34 H34            5.9868    -4.0679     2.6748 H       
  35 H35            4.2927    -3.7182     0.9641 H       
  36 H36            3.5720    -1.4525     0.3452 H       
  37 H37            6.1498     1.4522     3.0993 H       
  38 H38            7.8467     1.0879     4.8100 H       
  39 H39            8.5503    -1.1858     5.4210 H       
  40 H40            7.5685    -3.1314     4.3320 H       
@<TRIPOS>BOND
   1    1    2 2
   2    1    3 1
   3    1    7 1
   4    2    6 1
   5    2    5 1
   6    3    4 1
   7    4    5 2
   8    4   10 1
   9    6   26 1
  10    6   27 1
  11    7    8 1
  12    7    9 2
  13    8   11 ar
  14    8   12 ar
  15   10   16 1
  16   10   28 1
  17   11   15 ar
  18   11   29 1
  19   12   13 ar
  20   12   30 1
  21   13   14 ar
  22   13   31 1
  23   14   15 ar
  24   14   32 1
  25   15   33 1
  26   16   17 ar
  27   16   21 ar
  28   17   18 ar
  29   17   22 ar
  30   18   19 ar
  31   18   25 ar
  32   19   20 ar
  33   19   34 1
  34   20   21 ar
  35   20   35 1
  36   21   36 1
  37   22   23 ar
  38   22   37 1
  39   23   24 ar
  40   23   38 1
  41   24   25 ar
  42   24   39 1
  43   25   40 1

#	End of record

