#	Name: ASD03730318
#	Creating user name:	WinNT
#	Creation time:	15. 06. 2019 20:44

#	Modifying user name:	WinNT
#	Modification time:	15. 06. 2019 20:44

#	Program:	/corina/corina34_cracker 3.40 0067  02.08.2006

@<TRIPOS>MOLECULE
ASD03730318
  65   70    0    0    0
SMALL
NO_CHARGES


@<TRIPOS>ATOM
   1 N1            -0.4839     1.1428     1.3840 N.3     
   2 C2            -0.3941    -0.3357     1.4261 C.3     
   3 O3             0.6846    -0.6303     0.5204 O.3     
   4 C4             1.5039     0.4613     0.5204 C.ar    
   5 C5             0.8154     1.5592     1.0350 C.ar    
   6 C6             2.8196     0.6061     0.1137 C.ar    
   7 C7             3.4568     1.8396     0.2061 C.ar    
   8 C8             2.7512     2.9312     0.7026 C.ar    
   9 C9             1.4438     2.7907     1.1197 C.ar    
  10 O10            4.7379     2.1840    -0.1129 O.3     
  11 C11            3.6835     4.1109     0.6399 C.3     
  12 C12            4.8221     3.6141    -0.2618 C.3     
  13 N13            3.1369     6.3009     0.9995 N.am    
  14 C14            3.0177     5.3315     0.0708 C.2     
  15 C15            4.1785     4.5235     1.9937 C.ar    
  16 C16            4.8599     3.8679     3.0041 C.ar    
  17 C17            5.1852     4.5450     4.1740 C.ar    
  18 C18            4.8259     5.8709     4.3218 C.ar    
  19 C19            4.1452     6.5258     3.3162 C.ar    
  20 C20            3.8127     5.8579     2.1392 C.ar    
  21 O21            2.4794     5.4262    -1.0119 O.2     
  22 C22           -0.8765     1.6838     2.6921 C.3     
  23 C23            0.2726     1.5006     3.6855 C.3     
  24 C24           -0.1363     2.0641     5.0479 C.3     
  25 C25            1.0128     1.8809     6.0413 C.3     
  26 C26            0.6039     2.4444     7.4037 C.3     
  27 N27            5.2202     2.5265     2.8488 N.pl3   
  28 C28            6.2325     1.9831     3.6327 C.ar    
  29 C29            6.4910     0.6171     3.5754 C.ar    
  30 C30            7.5008     0.0903     4.3599 C.ar    
  31 C31            8.2211     0.9502     5.1787 C.ar    
  32 C32            7.9109     2.2952     5.1859 C.ar    
  33 N33            6.9452     2.7711     4.4228 N.ar    
  34 C34            8.6887     3.2332     6.0726 C.3     
  35 C35            7.8121    -1.3839     4.3274 C.3     
  36 H36           -0.1545    -0.6774     2.4330 H       
  37 H37           -1.3229    -0.7870     1.0770 H       
  38 H38            3.3558    -0.2456    -0.2781 H       
  39 H39            0.9089     3.6428     1.5127 H       
  40 H40            5.7847     3.9838     0.0914 H       
  41 H41            4.6507     3.9060    -1.2978 H       
  42 H42            2.7934     7.2013     0.8895 H       
  43 H43            5.7166     4.0361     4.9647 H       
  44 H44            5.0791     6.3977     5.2300 H       
  45 H45            3.8688     7.5622     3.4417 H       
  46 H46           -1.1052     2.7449     2.5927 H       
  47 H47           -1.7579     1.1547     3.0545 H       
  48 H48            0.5012     0.4395     3.7850 H       
  49 H49            1.1539     2.0298     3.3232 H       
  50 H50           -0.3650     3.1252     4.9485 H       
  51 H51           -1.0177     1.5350     5.4103 H       
  52 H52            1.2414     0.8198     6.1408 H       
  53 H53            1.8941     2.4101     5.6790 H       
  54 H54            0.3752     3.5055     7.3043 H       
  55 H55           -0.2775     1.9153     7.7661 H       
  56 H56            1.4225     2.3139     8.1115 H       
  57 H57            4.7643     1.9744     2.1944 H       
  58 H58            5.9108    -0.0230     2.9274 H       
  59 H59            9.0157     0.5703     5.8038 H       
  60 H60            9.5499     3.6187     5.5269 H       
  61 H61            8.0488     4.0624     6.3743 H       
  62 H62            9.0300     2.6968     6.9580 H       
  63 H63            8.5605    -1.5803     3.5596 H       
  64 H64            8.1972    -1.6954     5.2983 H       
  65 H65            6.9038    -1.9421     4.1006 H       
@<TRIPOS>BOND
   1    1    2 1
   2    1    5 1
   3    1   22 1
   4    2    3 1
   5    2   36 1
   6    2   37 1
   7    3    4 1
   8    4    5 ar
   9    4    6 ar
  10    5    9 ar
  11    6    7 ar
  12    6   38 1
  13    7    8 ar
  14    7   10 1
  15    8    9 ar
  16    8   11 1
  17    9   39 1
  18   10   12 1
  19   11   12 1
  20   11   14 1
  21   11   15 1
  22   12   40 1
  23   12   41 1
  24   13   14 am
  25   13   20 1
  26   13   42 1
  27   14   21 2
  28   15   16 ar
  29   15   20 ar
  30   16   17 ar
  31   16   27 1
  32   17   18 ar
  33   17   43 1
  34   18   19 ar
  35   18   44 1
  36   19   20 ar
  37   19   45 1
  38   22   23 1
  39   22   46 1
  40   22   47 1
  41   23   24 1
  42   23   48 1
  43   23   49 1
  44   24   25 1
  45   24   50 1
  46   24   51 1
  47   25   26 1
  48   25   52 1
  49   25   53 1
  50   26   54 1
  51   26   55 1
  52   26   56 1
  53   27   28 1
  54   27   57 1
  55   28   29 ar
  56   28   33 ar
  57   29   30 ar
  58   29   58 1
  59   30   31 ar
  60   30   35 1
  61   31   32 ar
  62   31   59 1
  63   32   33 ar
  64   32   34 1
  65   34   60 1
  66   34   61 1
  67   34   62 1
  68   35   63 1
  69   35   64 1
  70   35   65 1

#	End of record

