#	Name: ASD05143291
#	Creating user name:	WinNT
#	Creation time:	15. 06. 2019 20:57

#	Modifying user name:	WinNT
#	Modification time:	15. 06. 2019 20:57

#	Program:	/corina/corina34_cracker 3.40 0067  02.08.2006

@<TRIPOS>MOLECULE
ASD05143291
  45   47    0    0    0
SMALL
NO_CHARGES


@<TRIPOS>ATOM
   1 C1            -0.2993     1.4755     0.1194 C.2     
   2 N2            -0.0276     0.2321    -0.2241 N.2     
   3 S3            -1.5298    -0.5549    -0.3298 S.3     
   4 C4            -2.4505     0.8371     0.0958 C.2     
   5 N5            -1.5676     1.7917     0.2920 N.2     
   6 N6            -3.8248     0.9298     0.2117 N.pl3   
   7 C7            -4.4085     2.1048     0.7002 C.ar    
   8 C8            -5.7095     2.4347     0.3435 C.ar    
   9 C9            -6.2844     3.5939     0.8258 C.ar    
  10 C10           -5.5627     4.4290     1.6659 C.ar    
  11 C11           -4.2630     4.1006     2.0223 C.ar    
  12 C12           -3.6888     2.9384     1.5463 C.ar    
  13 C13            1.2109    -0.3131    -0.4497 C.ar    
  14 C14            2.0484     0.2294    -1.4252 C.ar    
  15 C15            1.6417    -1.4105     0.3000 C.ar    
  16 C16            2.8894    -1.9536     0.0677 C.ar    
  17 C17            3.7121    -1.4132    -0.9049 C.ar    
  18 C18            3.2932    -0.3234    -1.6469 C.ar    
  19 C19            0.7772     2.4755     0.3097 C.ar    
  20 C20            0.5474     3.8175     0.0081 C.ar    
  21 C21            2.0225     2.0793     0.7966 C.ar    
  22 C22            3.0212     3.0153     0.9717 C.ar    
  23 C23            2.7891     4.3442     0.6653 C.ar    
  24 C24            1.5539     4.7442     0.1874 C.ar    
  25 O25           -6.1295     5.5706     2.1400 O.3     
  26 C26           -5.3289     6.3836     3.0004 C.3     
  27 Cl27           0.6109    -2.0890     1.5209 Cl      
  28 H28           -4.3848     0.1807    -0.0455 H       
  29 H29           -6.2714     1.7849    -0.3111 H       
  30 H30           -7.2962     3.8506     0.5485 H       
  31 H31           -3.7016     4.7515     2.6762 H       
  32 H32           -2.6770     2.6826     1.8241 H       
  33 H33            1.7229     1.0800    -2.0056 H       
  34 H34            3.2243    -2.8017     0.6465 H       
  35 H35            4.6875    -1.8415    -1.0825 H       
  36 H36            3.9402     0.0931    -2.4047 H       
  37 H37           -0.4163     4.1308    -0.3654 H       
  38 H38            2.2047     1.0422     1.0365 H       
  39 H39            3.9859     2.7098     1.3491 H       
  40 H40            3.5738     5.0731     0.8041 H       
  41 H41            1.3787     5.7830    -0.0504 H       
  42 H42           -5.8994     7.2607     3.3060 H       
  43 H43           -5.0450     5.8094     3.8823 H       
  44 H44           -4.4315     6.7009     2.4691 H       
  45 Br45           9.6875    12.2607     8.8823 Br      
@<TRIPOS>BOND
   1    1    2 2
   2    1   19 1
   3    1    5 1
   4    2    3 1
   5    2   13 1
   6    3    4 1
   7    4    5 2
   8    4    6 1
   9    6    7 1
  10    6   28 1
  11    7    8 ar
  12    7   12 ar
  13    8    9 ar
  14    8   29 1
  15    9   10 ar
  16    9   30 1
  17   10   11 ar
  18   10   25 1
  19   11   12 ar
  20   11   31 1
  21   12   32 1
  22   13   14 ar
  23   13   15 ar
  24   14   18 ar
  25   14   33 1
  26   15   16 ar
  27   15   27 1
  28   16   17 ar
  29   16   34 1
  30   17   18 ar
  31   17   35 1
  32   18   36 1
  33   19   20 ar
  34   19   21 ar
  35   20   24 ar
  36   20   37 1
  37   21   22 ar
  38   21   38 1
  39   22   23 ar
  40   22   39 1
  41   23   24 ar
  42   23   40 1
  43   24   41 1
  44   25   26 1
  45   26   42 1
  46   26   43 1
  47   26   44 1

#	End of record

