#	Name: ASD01028165
#	Creating user name:	WinNT
#	Creation time:	15. 06. 2019 18:56

#	Modifying user name:	WinNT
#	Modification time:	15. 06. 2019 18:56

#	Program:	/corina/corina34_cracker 3.40 0067  02.08.2006

@<TRIPOS>MOLECULE
ASD01028165
  61   64    0    0    0
SMALL
NO_CHARGES


@<TRIPOS>ATOM
   1 C1             0.0772     0.6973    -1.4233 C.ar    
   2 C2             0.2241    -0.4324    -0.5997 C.ar    
   3 C3             1.4350    -0.6203     0.0764 C.ar    
   4 C4             2.4372     0.3178    -0.0969 C.ar    
   5 C5             2.2179     1.4043    -0.9245 C.ar    
   6 N6             1.0696     1.5640    -1.5532 N.ar    
   7 C7            -0.8770    -1.4008    -0.4505 C.2     
   8 O8            -1.9607    -1.1715    -0.9525 O.2     
   9 N9            -0.6829    -2.5405     0.2424 N.am    
  10 N10           -1.1078     0.9013    -2.1058 N.pl3   
  11 C11           -1.3114     2.1363    -2.8671 C.3     
  12 C12           -5.0147     2.5754    -3.4725 C.ar    
  13 C13           -3.7816     2.6163    -2.8498 C.ar    
  14 C14           -2.6734     2.1103    -3.5117 C.ar    
  15 C15           -2.8478     1.5803    -4.7810 C.ar    
  16 C16           -4.1116     1.5740    -5.3403 C.ar    
  17 N17           -5.1435     2.0636    -4.6810 N.ar    
  18 C18           -1.7549    -3.4075     0.4767 C.ar    
  19 C19           -1.5416    -4.7782     0.5281 C.ar    
  20 C20           -2.6063    -5.6341     0.7611 C.ar    
  21 C21           -3.8827    -5.1195     0.9424 C.ar    
  22 C22           -4.0932    -3.7549     0.8904 C.ar    
  23 C23           -3.0334    -2.8978     0.6641 C.ar    
  24 O24           -2.4010    -6.9765     0.8115 O.3     
  25 C25           -1.0621    -7.4359     0.6157 C.3     
  26 N26           -1.7763    -9.5660    -0.4263 N.3     
  27 C27           -1.0283    -8.9628     0.7067 C.3     
  28 C28            0.4164    -9.4804     0.5386 C.3     
  29 C29            0.2830   -10.7837    -0.2758 C.3     
  30 C30           -1.2310   -10.9439    -0.5313 C.3     
  31 C31           -5.0404    -6.0504     1.1957 C.3     
  32 C32           -6.3244    -5.2346     1.3591 C.3     
  33 F33           -5.1793    -6.9269     0.1142 F       
  34 F34           -4.8022    -6.7839     2.3629 F       
  35 F35           -6.5626    -4.5010     0.1919 F       
  36 F36           -7.3992    -6.0988     1.5943 F       
  37 F37           -6.1856    -4.3581     2.4406 F       
  38 H38            1.5834    -1.4764     0.7179 H       
  39 H39            3.3836     0.2029     0.4106 H       
  40 H40            3.0013     2.1356    -1.0581 H       
  41 H41            0.2003    -2.7593     0.5784 H       
  42 H42           -1.8044     0.2267    -2.0806 H       
  43 H43           -1.2435     2.9923    -2.1957 H       
  44 H44           -0.5458     2.2179    -3.6386 H       
  45 H45           -5.8837     2.9634    -2.9619 H       
  46 H46           -3.6826     3.0370    -1.8600 H       
  47 H47           -2.0067     1.1779    -5.3259 H       
  48 H48           -4.2559     1.1630    -6.3285 H       
  49 H49           -0.5479    -5.1768     0.3865 H       
  50 H50           -5.0873    -3.3571     1.0315 H       
  51 H51           -3.1998    -1.8313     0.6288 H       
  52 H52           -0.7106    -7.1226    -0.3673 H       
  53 H53           -0.4164    -7.0117     1.3847 H       
  54 H54           -2.7673    -9.5827    -0.2374 H       
  55 H55           -1.4437    -9.2972     1.6573 H       
  56 H56            1.0180    -8.7531    -0.0067 H       
  57 H57            0.8605    -9.6863     1.5124 H       
  58 H58            0.8192   -10.6961    -1.2208 H       
  59 H59            0.6617   -11.6293     0.2983 H       
  60 H60           -1.6781   -11.5883     0.2257 H       
  61 H61           -1.4077   -11.3478    -1.5282 H       
@<TRIPOS>BOND
   1    1    2 ar
   2    1    6 ar
   3    1   10 1
   4    2    3 ar
   5    2    7 1
   6    3    4 ar
   7    3   38 1
   8    4    5 ar
   9    4   39 1
  10    5    6 ar
  11    5   40 1
  12    7    8 2
  13    7    9 am
  14    9   18 1
  15    9   41 1
  16   10   11 1
  17   10   42 1
  18   11   14 1
  19   11   43 1
  20   11   44 1
  21   12   13 ar
  22   12   17 ar
  23   12   45 1
  24   13   14 ar
  25   13   46 1
  26   14   15 ar
  27   15   16 ar
  28   15   47 1
  29   16   17 ar
  30   16   48 1
  31   18   19 ar
  32   18   23 ar
  33   19   20 ar
  34   19   49 1
  35   20   21 ar
  36   20   24 1
  37   21   22 ar
  38   21   31 1
  39   22   23 ar
  40   22   50 1
  41   23   51 1
  42   24   25 1
  43   25   27 1
  44   25   52 1
  45   25   53 1
  46   26   27 1
  47   26   30 1
  48   26   54 1
  49   27   28 1
  50   27   55 1
  51   28   29 1
  52   28   56 1
  53   28   57 1
  54   29   30 1
  55   29   58 1
  56   29   59 1
  57   30   60 1
  58   30   61 1
  59   31   32 1
  60   31   33 1
  61   31   34 1
  62   32   35 1
  63   32   36 1
  64   32   37 1

#	End of record

