#	Name: ASD01411296
#	Creating user name:	WinNT
#	Creation time:	15. 06. 2019 19:19

#	Modifying user name:	WinNT
#	Modification time:	15. 06. 2019 19:19

#	Program:	/corina/corina34_cracker 3.40 0067  02.08.2006

@<TRIPOS>MOLECULE
ASD01411296
  70   74    0    0    0
SMALL
NO_CHARGES


@<TRIPOS>ATOM
   1 C1            -0.0170     1.4052     0.0098 C.ar    
   2 C2             0.0021    -0.0041     0.0020 C.ar    
   3 C3            -1.2068    -0.7160    -0.0047 C.ar    
   4 C4            -2.3974    -0.0480    -0.0012 C.ar    
   5 C5            -2.4216     1.3491     0.0140 C.ar    
   6 C6            -1.2270     2.0748     0.0198 C.ar    
   7 N7             1.2962     1.8454    -0.0004 N.pl3   
   8 C8             2.1214     0.7471     0.0020 C.2     
   9 C9             1.3649    -0.3850     0.0026 C.2     
  10 C10            1.7025     3.2527    -0.0126 C.3     
  11 C11            0.9388     4.0096    -1.0704 C.2     
  12 N12            0.7193     5.3514    -0.8967 N.am    
  13 O13            0.5299     3.4371    -2.0583 O.2     
  14 C14           -0.0505     6.0005    -1.9890 C.3     
  15 C15           -1.0114     7.0202    -1.3764 C.3     
  16 C16           -2.4530     6.6631    -1.7518 C.3     
  17 C17           -3.6906     2.1097    -0.0009 C.2     
  18 O18           -4.7500     1.5831    -0.2780 O.2     
  19 N19           -3.6060     3.4280     0.3494 N.am    
  20 C20           -2.8873     5.4352    -0.9519 C.3     
  21 C21           -4.4138     5.3190    -0.9290 C.3     
  22 C22           -4.7993     4.2756     0.1340 C.3     
  23 C23            3.5997     0.7690     0.0049 C.ar    
  24 C24            4.2885     1.6333    -0.8482 C.ar    
  25 C25            1.8929    -1.7962     0.0038 C.3     
  26 C26            1.3958    -2.5257     1.2535 C.3     
  27 C27            1.9319    -3.9586     1.2547 C.3     
  28 C28            1.4354    -4.6900     0.0059 C.3     
  29 C29            1.9325    -3.9605    -1.2438 C.3     
  30 C30            1.3964    -2.5275    -1.2450 C.3     
  31 C31            5.6667     1.6511    -0.8422 C.ar    
  32 C32            6.3702     0.8105     0.0106 C.ar    
  33 C33            5.6886    -0.0507     0.8607 C.ar    
  34 C34            4.3104    -0.0704     0.8648 C.ar    
  35 O35            7.7285     0.8303     0.0130 O.3     
  36 H36           -1.1987    -1.7957    -0.0124 H       
  37 H37           -3.3236    -0.6031    -0.0092 H       
  38 H38           -1.2433     3.1544     0.0279 H       
  39 H39            1.4913     3.6947     0.9630 H       
  40 H40            2.7680     3.3350    -0.2190 H       
  41 H41            1.0446     5.8392    -0.1220 H       
  42 H42            0.6358     6.5105    -2.6662 H       
  43 H43           -0.6174     5.2518    -2.5410 H       
  44 H44           -0.9070     7.0107    -0.2912 H       
  45 H45           -0.7746     8.0153    -1.7540 H       
  46 H46           -3.1086     7.5014    -1.5155 H       
  47 H47           -2.5099     6.4446    -2.8176 H       
  48 H48           -2.7973     3.7910     0.7475 H       
  49 H49           -2.4633     4.5414    -1.4112 H       
  50 H50           -2.5158     5.5287     0.0689 H       
  51 H51           -4.8539     6.2832    -0.6732 H       
  52 H52           -4.7743     4.9975    -1.9060 H       
  53 H53           -5.6331     3.6723    -0.2223 H       
  54 H54           -5.0737     4.7761     1.0634 H       
  55 H55            3.7422     2.2868    -1.5122 H       
  56 H56            2.9827    -1.7764     0.0041 H       
  57 H57            1.7495    -2.0046     2.1432 H       
  58 H58            0.3059    -2.5455     1.2532 H       
  59 H59            3.0217    -3.9388     1.2549 H       
  60 H60            1.5778    -4.4783     2.1450 H       
  61 H61            1.8174    -5.7109     0.0067 H       
  62 H62            0.3456    -4.7098     0.0056 H       
  63 H63            3.0223    -3.9407    -1.2435 H       
  64 H64            1.5788    -4.4815    -2.1335 H       
  65 H65            0.3065    -2.5474    -1.2452 H       
  66 H66            1.7505    -2.0078    -2.1353 H       
  67 H67            6.2003     2.3194    -1.5018 H       
  68 H68            6.2392    -0.7029     1.5225 H       
  69 H69            3.7812    -0.7401     1.5264 H       
  70 H70            8.1116     1.4610     0.6380 H       
@<TRIPOS>BOND
   1    1    2 ar
   2    1    7 1
   3    1    6 ar
   4    2    3 ar
   5    2    9 1
   6    3    4 ar
   7    3   36 1
   8    4    5 ar
   9    4   37 1
  10    5    6 ar
  11    5   17 1
  12    6   38 1
  13    7    8 1
  14    7   10 1
  15    8    9 2
  16    8   23 1
  17    9   25 1
  18   10   11 1
  19   10   39 1
  20   10   40 1
  21   11   12 am
  22   11   13 2
  23   12   14 1
  24   12   41 1
  25   14   15 1
  26   14   42 1
  27   14   43 1
  28   15   16 1
  29   15   44 1
  30   15   45 1
  31   16   20 1
  32   16   46 1
  33   16   47 1
  34   17   18 2
  35   17   19 am
  36   19   22 1
  37   19   48 1
  38   20   21 1
  39   20   49 1
  40   20   50 1
  41   21   22 1
  42   21   51 1
  43   21   52 1
  44   22   53 1
  45   22   54 1
  46   23   24 ar
  47   23   34 ar
  48   24   31 ar
  49   24   55 1
  50   25   26 1
  51   25   30 1
  52   25   56 1
  53   26   27 1
  54   26   57 1
  55   26   58 1
  56   27   28 1
  57   27   59 1
  58   27   60 1
  59   28   29 1
  60   28   61 1
  61   28   62 1
  62   29   30 1
  63   29   63 1
  64   29   64 1
  65   30   65 1
  66   30   66 1
  67   31   32 ar
  68   31   67 1
  69   32   33 ar
  70   32   35 1
  71   33   34 ar
  72   33   68 1
  73   34   69 1
  74   35   70 1

#	End of record

