#	Name: ASD03330409
#	Creating user name:	WinNT
#	Creation time:	15. 06. 2019 20:37

#	Modifying user name:	WinNT
#	Modification time:	15. 06. 2019 20:37

#	Program:	/corina/corina34_cracker 3.40 0067  02.08.2006

@<TRIPOS>MOLECULE
ASD03330409
  61   64    0    0    0
SMALL
NO_CHARGES


@<TRIPOS>ATOM
   1 C1             0.0039    -0.3338     0.9085 C.3     
   2 N2             0.0176    -1.7239     0.4316 N.3     
   3 C3             0.4975    -1.8044    -0.9599 C.3     
   4 C4             1.7844    -1.0261    -1.0546 C.2     
   5 N5             2.2014    -0.1411    -0.1115 N.pl3   
   6 C6             1.4423     0.1622     1.1051 C.3     
   7 C7             2.7256    -1.0466    -2.0312 C.2     
   8 N8             3.7036    -0.1819    -1.6768 N.2     
   9 C9             3.3937     0.3649    -0.5225 C.2     
  10 C10            4.2064     1.3633     0.2068 C.ar    
  11 C11            5.2416     2.0345    -0.4445 C.ar    
  12 C12            2.6891    -1.8635    -3.2571 C.2     
  13 O13            1.7498    -2.6077    -3.4643 O.2     
  14 C14            3.6605    -2.5979    -5.3676 C.3     
  15 N15            3.6967    -1.7858    -4.1489 N.am    
  16 C16            5.9955     2.9648     0.2410 C.ar    
  17 C17            5.7267     3.2325     1.5714 C.ar    
  18 C18            4.7016     2.5702     2.2230 C.ar    
  19 C19            3.9370     1.6416     1.5471 C.ar    
  20 C20            3.4238    -0.4675    -6.6513 C.3     
  21 C21            2.8495    -1.8700    -6.4416 C.3     
  22 C22            2.9229    -2.6528    -7.7541 C.3     
  23 C23            5.0656    -2.8212    -5.8645 C.2     
  24 N24            5.3497    -3.9005    -6.6199 N.am    
  25 C25            1.3906    -1.7619    -5.9932 C.3     
  26 O26            5.9408    -2.0296    -5.5845 O.2     
  27 C27            6.7347    -4.1791    -7.0078 C.3     
  28 C28           -1.3089    -2.3402     0.5675 C.3     
  29 C29           -2.4868    -1.6383    -0.1114 C.3     
  30 C30           -1.9389    -2.9450    -0.6887 C.3     
  31 H31           -0.4995     0.2960     0.1750 H       
  32 H32           -0.5303    -0.2814     1.8572 H       
  33 H33            0.6761    -2.8456    -1.2283 H       
  34 H34           -0.2447    -1.3723    -1.6311 H       
  35 H35            1.4398     1.2383     1.2783 H       
  36 H36            1.8937    -0.3469     1.9566 H       
  37 H37            5.4525     1.8262    -1.4830 H       
  38 H38            3.1950    -3.5592    -5.1500 H       
  39 H39            4.4459    -1.1922    -3.9837 H       
  40 H40            6.7973     3.4849    -0.2620 H       
  41 H41            6.3199     3.9613     2.1037 H       
  42 H42            4.4967     2.7836     3.2617 H       
  43 H43            3.1371     1.1252     2.0568 H       
  44 H44            4.4631    -0.5445    -6.9708 H       
  45 H45            2.8460     0.0510    -7.4164 H       
  46 H46            3.3715     0.0901    -5.7162 H       
  47 H47            3.9650    -2.7616    -8.0544 H       
  48 H48            2.4802    -3.6390    -7.6143 H       
  49 H49            2.3758    -2.1154    -8.5287 H       
  50 H50            4.6372    -4.4929    -6.9068 H       
  51 H51            0.8128    -1.2434    -6.7583 H       
  52 H52            0.9815    -2.7611    -5.8437 H       
  53 H53            1.3383    -1.2043    -5.0581 H       
  54 H54            6.7675    -5.0857    -7.6121 H       
  55 H55            7.1252    -3.3422    -7.5869 H       
  56 H56            7.3420    -4.3166    -6.1132 H       
  57 H57           -1.5001    -2.8396     1.5172 H       
  58 H58           -3.4531    -1.6765     0.3916 H       
  59 H59           -2.2775    -0.7193    -0.6588 H       
  60 H60           -1.3691    -2.8856    -1.6161 H       
  61 H61           -2.5447    -3.8427    -0.5656 H       
@<TRIPOS>BOND
   1    1    2 1
   2    1    6 1
   3    1   31 1
   4    1   32 1
   5    2    3 1
   6    2   28 1
   7    3    4 1
   8    3   33 1
   9    3   34 1
  10    4    5 1
  11    4    7 2
  12    5    6 1
  13    5    9 1
  14    6   35 1
  15    6   36 1
  16    7    8 1
  17    7   12 1
  18    8    9 2
  19    9   10 1
  20   10   11 ar
  21   10   19 ar
  22   11   16 ar
  23   11   37 1
  24   12   13 2
  25   12   15 am
  26   14   15 1
  27   14   23 1
  28   14   21 1
  29   14   38 1
  30   15   39 1
  31   16   17 ar
  32   16   40 1
  33   17   18 ar
  34   17   41 1
  35   18   19 ar
  36   18   42 1
  37   19   43 1
  38   20   21 1
  39   20   44 1
  40   20   45 1
  41   20   46 1
  42   21   25 1
  43   21   22 1
  44   22   47 1
  45   22   48 1
  46   22   49 1
  47   23   24 am
  48   23   26 2
  49   24   27 1
  50   24   50 1
  51   25   51 1
  52   25   52 1
  53   25   53 1
  54   27   54 1
  55   27   55 1
  56   27   56 1
  57   28   29 1
  58   28   30 1
  59   28   57 1
  60   29   30 1
  61   29   58 1
  62   29   59 1
  63   30   60 1
  64   30   61 1

#	End of record

