#	Name: ASD01948055
#	Creating user name:	WinNT
#	Creation time:	15. 06. 2019 20:13

#	Modifying user name:	WinNT
#	Modification time:	15. 06. 2019 20:13

#	Program:	/corina/corina34_cracker 3.40 0067  02.08.2006

@<TRIPOS>MOLECULE
ASD01948055
  51   54    0    0    0
SMALL
NO_CHARGES


@<TRIPOS>ATOM
   1 C1            -0.7144     1.8757     0.2428 C.3     
   2 C2            -0.6434     0.3958    -0.1390 C.3     
   3 C3             0.6344     1.2362    -0.0928 C.3     
   4 S4            -1.4237     3.0210    -0.9721 S.o2    
   5 O5            -0.5460     3.1811    -2.0781 O.2     
   6 O6            -2.8049     2.7496    -1.1662 O.2     
   7 N7            -1.3993     4.4936    -0.2150 N.am    
   8 C8             0.9977     4.5802    -0.4185 C.2     
   9 C9            -0.1754     5.1648    -0.0181 C.2     
  10 C10           -0.1600     6.4323     0.5880 C.2     
  11 C11            1.0563     7.0768     0.7766 C.2     
  12 C12            2.2261     6.4495     0.3534 C.2     
  13 N13            2.1800     5.2400    -0.2340 N.am    
  14 O14            1.1883     3.3672    -1.0017 O.3     
  15 C15            3.2609     4.3966    -0.7827 C.3     
  16 C16            2.4797     3.3710    -1.6356 C.3     
  17 O17            3.3037     7.0030     0.5167 O.2     
  18 C18            1.1095     8.4343     1.4288 C.3     
  19 N19           -1.3430     7.0322     0.9921 N.pl3   
  20 C20           -2.3585     7.2741     0.0606 C.ar    
  21 C21           -3.5597     7.8438     0.4708 C.ar    
  22 C22           -4.5605     8.0811    -0.4528 C.ar    
  23 C23           -4.3678     7.7523    -1.7831 C.ar    
  24 C24           -3.1748     7.1855    -2.1927 C.ar    
  25 C25           -2.1678     6.9513    -1.2759 C.ar    
  26 I26           -5.8871     8.1135    -3.1796 I       
  27 F27           -3.7478     8.1643     1.7696 F       
  28 C28           -0.9903     2.2146     1.7090 C.3     
  29 C29           -0.8790     3.7040     1.9100 C.2     
  30 C30           -1.9166     4.3886     2.3233 C.2     
  31 H31           -0.7932    -0.3364     0.6544 H       
  32 H32           -1.0228     0.1104    -1.1202 H       
  33 H33            1.0955     1.5036    -1.0435 H       
  34 H34            1.3252     1.0568     0.7311 H       
  35 H35           -2.2273     4.8944     0.0929 H       
  36 H36            3.9341     4.9858    -1.4054 H       
  37 H37            3.8079     3.8984     0.0177 H       
  38 H38            2.9428     2.3859    -1.5783 H       
  39 H39            2.4029     3.7052    -2.6703 H       
  40 H40            1.1270     8.3164     2.5123 H       
  41 H41            2.0093     8.9577     1.1057 H       
  42 H42            0.2305     9.0107     1.1403 H       
  43 H43           -1.4665     7.2842     1.9206 H       
  44 H44           -5.4936     8.5230    -0.1359 H       
  45 H45           -3.0282     6.9296    -3.2316 H       
  46 H46           -1.2347     6.5134    -1.5982 H       
  47 H47           -1.9951     1.8862     1.9750 H       
  48 H48           -0.2627     1.7071     2.3424 H       
  49 H49            0.0563     4.2070     1.7133 H       
  50 H50           -1.8367     5.4559     2.4673 H       
  51 H51           -2.8518     3.8856     2.5200 H       
@<TRIPOS>BOND
   1    1    2 1
   2    1    3 1
   3    1    4 1
   4    1   28 1
   5    2    3 1
   6    2   31 1
   7    2   32 1
   8    3   33 1
   9    3   34 1
  10    4    5 2
  11    4    6 2
  12    4    7 am
  13    7    9 1
  14    7   35 1
  15    8    9 2
  16    8   13 1
  17    8   14 1
  18    9   10 1
  19   10   11 2
  20   10   19 1
  21   11   12 1
  22   11   18 1
  23   12   13 am
  24   12   17 2
  25   13   15 1
  26   14   16 1
  27   15   16 1
  28   15   36 1
  29   15   37 1
  30   16   38 1
  31   16   39 1
  32   18   40 1
  33   18   41 1
  34   18   42 1
  35   19   20 1
  36   19   43 1
  37   20   21 ar
  38   20   25 ar
  39   21   22 ar
  40   21   27 1
  41   22   23 ar
  42   22   44 1
  43   23   24 ar
  44   23   26 1
  45   24   25 ar
  46   24   45 1
  47   25   46 1
  48   28   29 1
  49   28   47 1
  50   28   48 1
  51   29   30 2
  52   29   49 1
  53   30   50 1
  54   30   51 1

#	End of record

