#	Name: ASD01881359
#	Creating user name:	WinNT
#	Creation time:	15. 06. 2019 19:42

#	Modifying user name:	WinNT
#	Modification time:	15. 06. 2019 19:42

#	Program:	/corina/corina34_cracker 3.40 0067  02.08.2006

@<TRIPOS>MOLECULE
ASD01881359
  22   23    0    0    0
SMALL
NO_CHARGES


@<TRIPOS>ATOM
   1 C1            -0.0170     1.4000     0.0097 C.2     
   2 C2             0.0021    -0.0041     0.0020 C.2     
   3 C3             1.2019    -0.6560    -0.0129 C.2     
   4 C4             2.3887     0.0928    -0.0202 C.2     
   5 C5             2.3339     1.4445    -0.0124 C.2     
   6 N6             1.1392     2.0901     0.0024 N.am    
   7 O7            -1.0826     1.9954     0.0180 O.2     
   8 C8             1.1080     3.5547     0.0105 C.3     
   9 C9             1.1109     4.0569     1.4558 C.3     
  10 C10            1.1990     5.5680     1.6784 C.3     
  11 C11           -0.1173     4.8322     1.9367 C.3     
  12 Br12           1.2634    -2.5460    -0.0230 Br      
  13 H13           -0.9224    -0.5624     0.0082 H       
  14 H14            3.3447    -0.4094    -0.0317 H       
  15 H15            3.2500     2.0164    -0.0181 H       
  16 H16            1.9851     3.9397    -0.5096 H       
  17 H17            0.2056     3.9017    -0.4929 H       
  18 H18            1.6133     3.4118     2.1766 H       
  19 H19            1.7591     5.9171     2.5459 H       
  20 H20            1.2550     6.2045     0.7953 H       
  21 H21           -0.9274     4.9845     1.2235 H       
  22 H22           -0.4232     4.6972     2.9742 H       
@<TRIPOS>BOND
   1    1    2 1
   2    1    6 am
   3    1    7 2
   4    2    3 2
   5    2   13 1
   6    3    4 1
   7    3   12 1
   8    4    5 2
   9    4   14 1
  10    5    6 1
  11    5   15 1
  12    6    8 1
  13    8    9 1
  14    8   16 1
  15    8   17 1
  16    9   10 1
  17    9   11 1
  18    9   18 1
  19   10   11 1
  20   10   19 1
  21   10   20 1
  22   11   21 1
  23   11   22 1

#	End of record

