#	Name: ASD05490225
#	Creating user name:	WinNT
#	Creation time:	15. 06. 2019 21:01

#	Modifying user name:	WinNT
#	Modification time:	15. 06. 2019 21:01

#	Program:	/corina/corina34_cracker 3.40 0067  02.08.2006

@<TRIPOS>MOLECULE
ASD05490225
  59   62    0    0    0
SMALL
NO_CHARGES


@<TRIPOS>ATOM
   1 N1             0.0328     1.3970    -0.2324 N.ar    
   2 C2             0.0225     0.0728    -0.2305 C.ar    
   3 C3             1.2032    -0.6513    -0.1635 C.ar    
   4 C4             2.4120     0.0361    -0.0983 C.ar    
   5 C5             2.3851     1.4309    -0.1058 C.ar    
   6 C6             1.1640     2.0887    -0.1729 C.ar    
   7 N7             3.6203    -0.6469    -0.0228 N.3     
   8 C8             4.6890     0.0449    -0.7510 C.3     
   9 C9             3.4731    -2.0307    -0.4932 C.3     
  10 C10            4.8290    -2.5913    -0.8372 C.ar    
  11 C11            5.5728    -3.2432     0.1286 C.ar    
  12 C12            6.8165    -3.7573    -0.1870 C.ar    
  13 C13            7.3164    -3.6199    -1.4685 C.ar    
  14 C14            6.5723    -2.9687    -2.4345 C.ar    
  15 C15            5.3266    -2.4584    -2.1200 C.ar    
  16 C16            9.7915    -6.0653    -2.8498 C.3     
  17 N17            8.5267    -5.5638    -2.2818 N.3     
  18 C18            7.4739    -5.6645    -3.3149 C.3     
  19 C19            7.9661    -6.7769    -4.2740 C.3     
  20 C20            9.4957    -6.5185    -4.2950 C.3     
  21 N21            3.5943     2.1461    -0.0489 N.am    
  22 N22            1.1263     3.4811    -0.1786 N.pl3   
  23 O23           -1.1628    -0.5863    -0.2947 O.3     
  24 C24           -2.3462     0.2120    -0.3615 C.3     
  25 C25           -3.5732    -0.6996    -0.4276 C.3     
  26 O26           -3.6838    -1.4385     0.7906 O.3     
  27 C27           -4.8035    -2.3253     0.8328 C.3     
  28 C28            8.6728    -4.1795    -1.8122 C.3     
  29 Cl29           1.1744    -2.3870    -0.1606 Cl      
  30 C30            4.7417     1.4946    -0.3444 C.2     
  31 O31            5.8061     2.0733    -0.2823 O.2     
  32 H32            5.6446    -0.4284    -0.5254 H       
  33 H33            4.4987    -0.0231    -1.8221 H       
  34 H34            3.0187    -2.6350     0.2920 H       
  35 H35            2.8376    -2.0479    -1.3785 H       
  36 H36            5.1822    -3.3506     1.1297 H       
  37 H37            7.3979    -4.2661     0.5677 H       
  38 H38            6.9630    -2.8611    -3.4356 H       
  39 H39            4.7453    -1.9497    -2.8748 H       
  40 H40           10.5365    -5.2696    -2.8559 H       
  41 H41           10.1525    -6.9098    -2.2629 H       
  42 H42            6.5236    -5.9470    -2.8620 H       
  43 H43            7.3747    -4.7195    -3.8490 H       
  44 H44            7.7425    -7.7654    -3.8728 H       
  45 H45            7.5357    -6.6541    -5.2679 H       
  46 H46            9.7435    -5.7293    -5.0048 H       
  47 H47           10.0380    -7.4343    -4.5303 H       
  48 H48            3.6051     3.0846     0.1959 H       
  49 H49            1.9517     3.9888    -0.1359 H       
  50 H50            0.2746     3.9430    -0.2254 H       
  51 H51           -2.4095     0.8427     0.5252 H       
  52 H52           -2.3114     0.8395    -1.2521 H       
  53 H53           -4.4686    -0.0941    -0.5678 H       
  54 H54           -3.4676    -1.3910    -1.2635 H       
  55 H55           -4.7234    -3.0505     0.0230 H       
  56 H56           -4.8168    -2.8485     1.7890 H       
  57 H57           -5.7244    -1.7535     0.7188 H       
  58 H58            9.1266    -3.5754    -2.5978 H       
  59 H59            9.3083    -4.1613    -0.9269 H       
@<TRIPOS>BOND
   1    1    2 ar
   2    1    6 ar
   3    2    3 ar
   4    2   23 1
   5    3    4 ar
   6    3   29 1
   7    4    5 ar
   8    4    7 1
   9    5    6 ar
  10    5   21 1
  11    6   22 1
  12    7    8 1
  13    7    9 1
  14    8   30 1
  15    8   32 1
  16    8   33 1
  17    9   10 1
  18    9   34 1
  19    9   35 1
  20   10   11 ar
  21   10   15 ar
  22   11   12 ar
  23   11   36 1
  24   12   13 ar
  25   12   37 1
  26   13   14 ar
  27   13   28 1
  28   14   15 ar
  29   14   38 1
  30   15   39 1
  31   16   17 1
  32   16   20 1
  33   16   40 1
  34   16   41 1
  35   17   18 1
  36   17   28 1
  37   18   19 1
  38   18   42 1
  39   18   43 1
  40   19   20 1
  41   19   44 1
  42   19   45 1
  43   20   46 1
  44   20   47 1
  45   21   30 am
  46   21   48 1
  47   22   49 1
  48   22   50 1
  49   23   24 1
  50   24   25 1
  51   24   51 1
  52   24   52 1
  53   25   26 1
  54   25   53 1
  55   25   54 1
  56   26   27 1
  57   27   55 1
  58   27   56 1
  59   27   57 1
  60   28   58 1
  61   28   59 1
  62   30   31 2

#	End of record

