#	Name: ASD09740649
#	Creating user name:	WinNT
#	Creation time:	15. 06. 2019 21:23

#	Modifying user name:	WinNT
#	Modification time:	15. 06. 2019 21:23

#	Program:	/corina/corina34_cracker 3.40 0067  02.08.2006

@<TRIPOS>MOLECULE
ASD09740649
  18   19    0    0    0
SMALL
NO_CHARGES


@<TRIPOS>ATOM
   1 C1             0.0021    -0.0041     0.0020 C.1     
   2 C2            -0.0173     1.4278     0.0099 C.ar    
   3 C3             1.1841     2.1463     0.0023 C.ar    
   4 C4             1.1644     3.5297     0.0099 C.ar    
   5 C5            -0.0370     4.2083     0.0245 C.ar    
   6 C6            -1.2425     3.5029     0.0322 C.ar    
   7 C7            -1.2327     2.1105     0.0193 C.ar    
   8 N8             0.0175    -1.1399    -0.0042 N.1     
   9 F9             2.3639     1.4882    -0.0120 F       
  10 S10           -2.7302     5.9864     0.0607 S.3     
  11 C11           -2.5280     4.2341     0.0489 C.2     
  12 N12           -3.7194     3.6997     0.0566 N.2     
  13 N13           -4.6923     4.5043     0.0701 N.2     
  14 C14           -4.4295     5.7719     0.0750 C.2     
  15 Br15          -5.7128     7.1606     0.0952 Br      
  16 H16            2.0933     4.0807     0.0047 H       
  17 H17           -0.0452     5.2883     0.0304 H       
  18 H18           -2.1629     1.5617     0.0211 H       
@<TRIPOS>BOND
   1    1    2 1
   2    1    8 3
   3    2    3 ar
   4    2    7 ar
   5    3    4 ar
   6    3    9 1
   7    4    5 ar
   8    4   16 1
   9    5    6 ar
  10    5   17 1
  11    6    7 ar
  12    6   11 1
  13    7   18 1
  14   10   11 1
  15   10   14 1
  16   11   12 2
  17   12   13 1
  18   13   14 2
  19   14   15 1

#	End of record

