#	Name: ASD08151078
#	Creating user name:	WinNT
#	Creation time:	15. 06. 2019 21:17

#	Modifying user name:	WinNT
#	Modification time:	15. 06. 2019 21:17

#	Program:	/corina/corina34_cracker 3.40 0067  02.08.2006

@<TRIPOS>MOLECULE
ASD08151078
  44   45    0    0    0
SMALL
NO_CHARGES


@<TRIPOS>ATOM
   1 C1            -0.0170     1.4034     0.0098 C.ar    
   2 C2             0.0021    -0.0041     0.0020 C.ar    
   3 C3             1.2218    -0.6846    -0.0133 C.ar    
   4 C4             2.4079     0.0161    -0.0208 C.ar    
   5 C5             2.4021     1.4141    -0.0128 C.ar    
   6 C6             1.1864     2.1109     0.0021 C.ar    
   7 C7            -1.3073     2.1300     0.0198 C.ar    
   8 C8            -1.6616     2.9116     1.1192 C.ar    
   9 C9            -2.8671     3.5879     1.1237 C.ar    
  10 C10           -3.7228     3.4902     0.0387 C.ar    
  11 C11           -3.3755     2.7151    -1.0557 C.ar    
  12 C12           -2.1697     2.0396    -1.0724 C.ar    
  13 C13           -1.2635    -0.7589     0.0105 C.2     
  14 O14           -2.3243    -0.1663     0.0243 O.2     
  15 O15           -1.2445    -2.1065     0.0031 O.3     
  16 C16            3.6396     2.1346    -0.0198 C.1     
  17 C17            4.6542     2.7253    -0.0256 C.1     
  18 Si18           6.2961     3.6814    -0.0348 Si      
  19 C19            5.9491     5.5117    -0.0213 C.3     
  20 C20            7.2882     3.2262     1.4749 C.3     
  21 C21            7.2609     3.2436    -1.5672 C.3     
  22 F22           -4.2145     2.6235    -2.1106 F       
  23 F23           -3.2116     4.3450     2.1882 F       
  24 Cl24           3.9173    -0.8412    -0.0399 Cl      
  25 N25            1.1788     3.5031     0.0092 N.pl3   
  26 C26           -2.5287    -2.7839     0.0122 C.3     
  27 H27            1.2351    -1.7645    -0.0189 H       
  28 H28           -0.9953     2.9881     1.9657 H       
  29 H29           -4.6640     4.0198     0.0462 H       
  30 H30           -1.8978     1.4394    -1.9281 H       
  31 H31            5.3846     5.7678     0.8753 H       
  32 H32            6.8910     6.0601    -0.0266 H       
  33 H33            5.3686     5.7780    -0.9046 H       
  34 H34            7.4913     2.1553     1.4669 H       
  35 H35            8.2302     3.7747     1.4695 H       
  36 H36            6.7237     3.4823     2.3714 H       
  37 H37            6.6805     3.5099    -2.4505 H       
  38 H38            8.2029     3.7920    -1.5725 H       
  39 H39            7.4640     2.1727    -1.5751 H       
  40 H40            0.3361     3.9835     0.0195 H       
  41 H41            2.0161     3.9927     0.0038 H       
  42 H42           -3.0809    -2.5037     0.9093 H       
  43 H43           -3.0986    -2.4942    -0.8706 H       
  44 H44           -2.3707    -3.8624     0.0049 H       
@<TRIPOS>BOND
   1    1    2 ar
   2    1    6 ar
   3    1    7 1
   4    2    3 ar
   5    2   13 1
   6    3    4 ar
   7    3   27 1
   8    4    5 ar
   9    4   24 1
  10    5    6 ar
  11    5   16 1
  12    6   25 1
  13    7    8 ar
  14    7   12 ar
  15    8    9 ar
  16    8   28 1
  17    9   10 ar
  18    9   23 1
  19   10   11 ar
  20   10   29 1
  21   11   12 ar
  22   11   22 1
  23   12   30 1
  24   13   14 2
  25   13   15 1
  26   15   26 1
  27   16   17 3
  28   17   18 1
  29   18   19 1
  30   18   20 1
  31   18   21 1
  32   19   31 1
  33   19   32 1
  34   19   33 1
  35   20   34 1
  36   20   35 1
  37   20   36 1
  38   21   37 1
  39   21   38 1
  40   21   39 1
  41   25   40 1
  42   25   41 1
  43   26   42 1
  44   26   43 1
  45   26   44 1

#	End of record

