#	Name: ASD09116475
#	Creating user name:	WinNT
#	Creation time:	15. 06. 2019 21:21

#	Modifying user name:	WinNT
#	Modification time:	15. 06. 2019 21:21

#	Program:	/corina/corina34_cracker 3.40 0067  02.08.2006

@<TRIPOS>MOLECULE
ASD09116475
  81   87    0    0    0
SMALL
NO_CHARGES


@<TRIPOS>ATOM
   1 N1             0.3894     0.4254    -1.2590 N.2     
   2 N2             0.5470    -0.8525    -1.8192 N.pl3   
   3 C3             1.5892     0.9409    -1.1378 C.2     
   4 N4             2.4899     0.0603    -1.5895 N.2     
   5 C5             1.8766    -1.0275    -2.0042 C.2     
   6 N6             2.4827    -2.1501    -2.5355 N.pl3   
   7 C7            -0.4667    -1.7626    -2.1247 C.ar    
   8 N8             1.8797     2.2039    -0.6217 N.pl3   
   9 C9             3.2073     2.5968    -0.4438 C.ar    
  10 C10            3.5547     3.9387    -0.5552 C.ar    
  11 C11            4.1788     1.6462    -0.1499 C.ar    
  12 C12            5.4901     2.0310     0.0263 C.ar    
  13 C13            5.8430     3.3767    -0.0906 C.ar    
  14 C14            4.8645     4.3294    -0.3805 C.ar    
  15 N15           -0.2738    -2.6791    -3.0614 N.ar    
  16 N16           -1.1772    -3.5336    -3.3873 N.ar    
  17 C17           -2.3636    -3.5464    -2.8011 C.ar    
  18 C18           -2.6499    -2.6295    -1.7857 C.ar    
  19 C19           -1.6826    -1.7103    -1.4384 C.ar    
  20 C20           -3.4251    -4.4944    -3.2119 C.ar    
  21 C21           -4.7046    -4.0022    -3.4743 C.ar    
  22 C22           -4.9576    -2.5220    -3.3882 C.3     
  23 C23           -5.0723    -2.0602    -1.9380 C.3     
  24 C24           -3.9747    -2.6869    -1.0823 C.3     
  25 C25           -3.1646    -5.8549    -3.3336 C.ar    
  26 C26           -4.1821    -6.7161    -3.6963 C.ar    
  27 C27           -5.4537    -6.2270    -3.9348 C.ar    
  28 C28           -5.7150    -4.8723    -3.8235 C.ar    
  29 C29            7.2481     3.7926     0.0982 C.2     
  30 C30            7.5818     5.0712    -0.0131 C.2     
  31 C31            9.0150     5.4954     0.1795 C.3     
  32 N32            9.4677     6.2419    -1.0020 N.3     
  33 C33           10.7711     6.8729    -0.7583 C.3     
  34 C34           11.1422     7.7572    -1.9508 C.3     
  35 C35           11.1984     6.8996    -3.2181 C.3     
  36 C36            9.8438     6.2155    -3.4224 C.3     
  37 C37            9.5103     5.3759    -2.1872 C.3     
  38 N38           11.4969     7.7532    -4.3757 N.3     
  39 C39           12.8224     8.3842    -4.2392 C.3     
  40 C40           13.6467     7.9900    -5.4828 C.3     
  41 C41           12.5559     7.6277    -6.5247 C.3     
  42 C42           11.4747     6.9713    -5.6303 C.3     
  43 H43            3.4476    -2.1816    -2.6297 H       
  44 H44            1.9433    -2.9065    -2.8141 H       
  45 H45            1.1591     2.8092    -0.3864 H       
  46 H46            2.7973     4.6752    -0.7792 H       
  47 H47            3.9051     0.6054    -0.0592 H       
  48 H48            6.2441     1.2923     0.2549 H       
  49 H49            5.1346     5.3711    -0.4719 H       
  50 H50           -1.8610    -0.9724    -0.6702 H       
  51 H51           -4.1350    -1.9912    -3.8674 H       
  52 H52           -5.8846    -2.2877    -3.9114 H       
  53 H53           -4.9821    -0.9747    -1.8988 H       
  54 H54           -6.0456    -2.3531    -1.5441 H       
  55 H55           -4.2282    -3.7275    -0.8799 H       
  56 H56           -3.9031    -2.1461    -0.1386 H       
  57 H57           -2.1718    -6.2363    -3.1457 H       
  58 H58           -3.9841    -7.7732    -3.7943 H       
  59 H59           -6.2472    -6.9061    -4.2097 H       
  60 H60           -6.7104    -4.4971    -4.0098 H       
  61 H61            8.0034     3.0553     0.3268 H       
  62 H62            6.8265     5.8086    -0.2417 H       
  63 H63            9.0904     6.1311     1.0617 H       
  64 H64            9.6404     4.6127     0.3131 H       
  65 H65           10.7162     7.4831     0.1432 H       
  66 H66           11.5297     6.1010    -0.6285 H       
  67 H67           10.3912     8.5378    -2.0727 H       
  68 H68           12.1168     8.2132    -1.7765 H       
  69 H69           11.9760     6.1433    -3.1118 H       
  70 H70            9.0724     6.9718    -3.5674 H       
  71 H71            9.8908     5.5700    -4.2994 H       
  72 H72           10.2748     4.6110    -2.0507 H       
  73 H73            8.5398     4.8988    -2.3235 H       
  74 H74           12.7144     9.4679    -4.1942 H       
  75 H75           13.3150     8.0207    -3.3373 H       
  76 H76           14.2469     8.8311    -5.8298 H       
  77 H77           14.2776     7.1271    -5.2693 H       
  78 H78           12.1689     8.5225    -7.0121 H       
  79 H79           12.9378     6.9189    -7.2594 H       
  80 H80           11.7269     5.9295    -5.4326 H       
  81 H81           10.4957     7.0423    -6.1044 H       
@<TRIPOS>BOND
   1    1    2 1
   2    1    3 2
   3    2    7 1
   4    2    5 1
   5    3    4 1
   6    3    8 1
   7    4    5 2
   8    5    6 1
   9    6   43 1
  10    6   44 1
  11    7   15 ar
  12    7   19 ar
  13    8    9 1
  14    8   45 1
  15    9   10 ar
  16    9   11 ar
  17   10   14 ar
  18   10   46 1
  19   11   12 ar
  20   11   47 1
  21   12   13 ar
  22   12   48 1
  23   13   14 ar
  24   13   29 1
  25   14   49 1
  26   15   16 ar
  27   16   17 ar
  28   17   18 ar
  29   17   20 1
  30   18   19 ar
  31   18   24 1
  32   19   50 1
  33   20   21 ar
  34   20   25 ar
  35   21   22 1
  36   21   28 ar
  37   22   23 1
  38   22   51 1
  39   22   52 1
  40   23   24 1
  41   23   53 1
  42   23   54 1
  43   24   55 1
  44   24   56 1
  45   25   26 ar
  46   25   57 1
  47   26   27 ar
  48   26   58 1
  49   27   28 ar
  50   27   59 1
  51   28   60 1
  52   29   30 2
  53   29   61 1
  54   30   31 1
  55   30   62 1
  56   31   32 1
  57   31   63 1
  58   31   64 1
  59   32   33 1
  60   32   37 1
  61   33   34 1
  62   33   65 1
  63   33   66 1
  64   34   35 1
  65   34   67 1
  66   34   68 1
  67   35   36 1
  68   35   38 1
  69   35   69 1
  70   36   37 1
  71   36   70 1
  72   36   71 1
  73   37   72 1
  74   37   73 1
  75   38   39 1
  76   38   42 1
  77   39   40 1
  78   39   74 1
  79   39   75 1
  80   40   41 1
  81   40   76 1
  82   40   77 1
  83   41   42 1
  84   41   78 1
  85   41   79 1
  86   42   80 1
  87   42   81 1

#	End of record

