#	Name: ASD00111041
#	Creating user name:	WinNT
#	Creation time:	15. 06. 2019 18:30

#	Modifying user name:	WinNT
#	Modification time:	15. 06. 2019 18:30

#	Program:	/corina/corina34_cracker 3.40 0067  02.08.2006

@<TRIPOS>MOLECULE
ASD00111041
  34   35    0    0    0
SMALL
NO_CHARGES


@<TRIPOS>ATOM
   1 C1            -0.0661     1.2290     0.3136 C.ar    
   2 C2            -0.1069    -0.1580     0.3240 C.ar    
   3 C3            -1.3281    -0.8073     0.2553 C.ar    
   4 C4            -2.5072    -0.0796     0.1763 C.ar    
   5 C5            -2.4645     1.2945     0.1441 C.ar    
   6 C6            -1.2403     1.9475     0.2299 C.ar    
   7 C7            -3.8046    -0.8444     0.1583 C.3     
   8 C8            -4.7010    -0.3590    -0.9841 C.3     
   9 N9            -5.5861     0.6799    -0.4540 N.3     
  10 C10           -4.9234     1.4631     0.5968 C.3     
  11 C11           -3.6983     2.1508    -0.0035 C.3     
  12 C12           -3.4715     3.4846     0.7110 C.3     
  13 I13            1.7715     2.2279     0.4335 I       
  14 C14           -4.6499     4.4196     0.4316 C.3     
  15 O15            1.0451    -0.8751     0.4007 O.3     
  16 C16            0.9238    -2.2990     0.4065 C.3     
  17 H17           -1.3631    -1.8867     0.2629 H       
  18 H18           -1.2078     3.0270     0.2214 H       
  19 H19           -3.5943    -1.9054     0.0240 H       
  20 H20           -4.3209    -0.6984     1.1070 H       
  21 H21           -4.0869     0.0534    -1.7847 H       
  22 H22           -5.2949    -1.1899    -1.3651 H       
  23 H23           -5.9239     1.2786    -1.1926 H       
  24 H24           -5.6125     2.2147     0.9821 H       
  25 H25           -4.6119     0.8011     1.4047 H       
  26 H26           -3.8775     2.3396    -1.0620 H       
  27 H27           -3.3907     3.3126     1.7843 H       
  28 H28           -2.5514     3.9406     0.3457 H       
  29 H29           -4.7308     4.5915    -0.6417 H       
  30 H30           -5.5701     3.9636     0.7969 H       
  31 H31           -4.4884     5.3698     0.9407 H       
  32 H32            0.3279    -2.6093     1.2648 H       
  33 H33            0.4359    -2.6258    -0.5118 H       
  34 H34            1.9150    -2.7478     0.4709 H       
@<TRIPOS>BOND
   1    1    2 ar
   2    1   13 1
   3    1    6 ar
   4    2    3 ar
   5    2   15 1
   6    3    4 ar
   7    3   17 1
   8    4    5 ar
   9    4    7 1
  10    5    6 ar
  11    5   11 1
  12    6   18 1
  13    7    8 1
  14    7   19 1
  15    7   20 1
  16    8    9 1
  17    8   21 1
  18    8   22 1
  19    9   10 1
  20    9   23 1
  21   10   11 1
  22   10   24 1
  23   10   25 1
  24   11   12 1
  25   11   26 1
  26   12   14 1
  27   12   27 1
  28   12   28 1
  29   14   29 1
  30   14   30 1
  31   14   31 1
  32   15   16 1
  33   16   32 1
  34   16   33 1
  35   16   34 1

#	End of record

