#	Name: ASD01411610
#	Creating user name:	WinNT
#	Creation time:	15. 06. 2019 19:19

#	Modifying user name:	WinNT
#	Modification time:	15. 06. 2019 19:19

#	Program:	/corina/corina34_cracker 3.40 0067  02.08.2006

@<TRIPOS>MOLECULE
ASD01411610
  50   52    0    0    0
SMALL
NO_CHARGES


@<TRIPOS>ATOM
   1 C1             5.5936     3.8069     3.0697 C.ar    
   2 C2             4.3484     4.0051     2.5571 C.ar    
   3 C3             3.8106     3.0703     1.6559 C.ar    
   4 C4             4.5761     1.9341     1.2948 C.ar    
   5 C5             5.8568     1.7630     1.8444 C.ar    
   6 C6             6.3460     2.6890     2.7142 C.ar    
   7 C7             2.5282     3.2409     1.1064 C.ar    
   8 C8             2.0371     2.3161     0.2363 C.ar    
   9 C9             2.7853     1.1977    -0.1213 C.ar    
  10 C10            4.0361     0.9968     0.3905 C.ar    
  11 O11            4.7538    -0.0989     0.0318 O.3     
  12 P12            5.3969    -0.0070    -1.4414 P.3     
  13 O13            6.4365     1.2211    -1.4974 O.3     
  14 N14            6.2039    -1.4417    -1.7917 N.3     
  15 O15            4.3226     0.2103    -2.4359 O.2     
  16 C16            6.9363     1.7625    -2.7218 C.3     
  17 C17            7.3487    -1.6351    -0.8917 C.3     
  18 C18            6.9299    -2.5214     0.2830 C.3     
  19 C19            8.4735    -2.2975    -1.6448 C.2     
  20 O20            8.3356    -2.5795    -2.8115 O.2     
  21 O21            9.6285    -2.5741    -1.0194 O.3     
  22 C22           10.6680    -3.2127    -1.8068 C.3     
  23 C23           11.8815    -3.4439    -0.9436 C.ar    
  24 C24           12.0125    -4.6251    -0.2376 C.ar    
  25 C25           13.1256    -4.8371     0.5542 C.ar    
  26 C26           14.1079    -3.8682     0.6396 C.ar    
  27 C27           13.9772    -2.6874    -0.0672 C.ar    
  28 C28           12.8662    -2.4772    -0.8624 C.ar    
  29 H29            6.0065     4.5289     3.7586 H       
  30 H30            3.7765     4.8758     2.8418 H       
  31 H31            6.4509     0.9013     1.5781 H       
  32 H32            7.3313     2.5550     3.1354 H       
  33 H33            1.9344     4.1024     1.3737 H       
  34 H34            1.0511     2.4520    -0.1829 H       
  35 H35            2.3715     0.4793    -0.8134 H       
  36 H36            5.5749    -2.2296    -1.7511 H       
  37 H37            6.1049     2.1335    -3.3211 H       
  38 H38            7.6212     2.5819    -2.5039 H       
  39 H39            7.4640     0.9850    -3.2742 H       
  40 H40            7.6830    -0.6680    -0.5160 H       
  41 H41            6.6794    -3.5167    -0.0841 H       
  42 H42            7.7519    -2.5930     0.9953 H       
  43 H43            6.0600    -2.0859     0.7746 H       
  44 H44           10.3030    -4.1680    -2.1839 H       
  45 H45           10.9356    -2.5695    -2.6451 H       
  46 H46           11.2451    -5.3821    -0.3042 H       
  47 H47           13.2277    -5.7597     1.1064 H       
  48 H48           14.9772    -4.0336     1.2588 H       
  49 H49           14.7445    -1.9303    -0.0002 H       
  50 H50           12.7641    -1.5547    -1.4146 H       
@<TRIPOS>BOND
   1    1    2 ar
   2    1    6 ar
   3    1   29 1
   4    2    3 ar
   5    2   30 1
   6    3    4 ar
   7    3    7 ar
   8    4    5 ar
   9    4   10 ar
  10    5    6 ar
  11    5   31 1
  12    6   32 1
  13    7    8 ar
  14    7   33 1
  15    8    9 ar
  16    8   34 1
  17    9   10 ar
  18    9   35 1
  19   10   11 1
  20   11   12 1
  21   12   13 1
  22   12   14 1
  23   12   15 2
  24   13   16 1
  25   14   17 1
  26   14   36 1
  27   16   37 1
  28   16   38 1
  29   16   39 1
  30   17   18 1
  31   17   19 1
  32   17   40 1
  33   18   41 1
  34   18   42 1
  35   18   43 1
  36   19   20 2
  37   19   21 1
  38   21   22 1
  39   22   23 1
  40   22   44 1
  41   22   45 1
  42   23   24 ar
  43   23   28 ar
  44   24   25 ar
  45   24   46 1
  46   25   26 ar
  47   25   47 1
  48   26   27 ar
  49   26   48 1
  50   27   28 ar
  51   27   49 1
  52   28   50 1

#	End of record

