#	Name: ASD01948126
#	Creating user name:	WinNT
#	Creation time:	15. 06. 2019 20:13

#	Modifying user name:	WinNT
#	Modification time:	15. 06. 2019 20:13

#	Program:	/corina/corina34_cracker 3.40 0067  02.08.2006

@<TRIPOS>MOLECULE
ASD01948126
  32   34    0    0    0
SMALL
NO_CHARGES


@<TRIPOS>ATOM
   1 C1             1.8319     1.3946     1.0504 C.ar    
   2 C2             1.8202     0.0034     1.0450 C.ar    
   3 C3             2.4022    -0.6966     2.0927 C.ar    
   4 C4             2.9914    -0.0109     3.1377 C.ar    
   5 C5             3.0017     1.3723     3.1416 C.ar    
   6 C6             2.4276     2.0746     2.0963 C.ar    
   7 N7             1.2224    -0.6887    -0.0143 N.pl3   
   8 C8             3.8116    -1.9711    -0.4387 C.2     
   9 C9             2.6138    -2.7150    -0.2965 C.2     
  10 C10            1.3228    -2.0636    -0.0843 C.2     
  11 N11            4.9618    -2.6548    -0.6372 N.am    
  12 F12            1.2669     2.0798     0.0323 F       
  13 C13            2.6732    -4.1144    -0.3612 C.2     
  14 N14            1.5278    -4.8474    -0.2255 N.am    
  15 C15            0.3362    -4.2584    -0.0302 C.2     
  16 C16            0.2023    -2.8693     0.0448 C.2     
  17 C17            4.9516    -4.0071    -0.6955 C.2     
  18 N18            3.8591    -4.7074    -0.5554 N.2     
  19 O19            3.8048    -0.7538    -0.3889 O.2     
  20 C20            1.6009    -6.3089    -0.2947 C.3     
  21 O21           -0.6581    -4.9565     0.0846 O.2     
  22 Br22           3.8089     2.3057     4.5745 Br      
  23 H23            2.3943    -1.7766     2.0914 H       
  24 H24            3.4442    -0.5557     3.9528 H       
  25 H25            2.4375     3.1545     2.1018 H       
  26 H26            0.7376    -0.2023    -0.6993 H       
  27 H27            5.7979    -2.1736    -0.7385 H       
  28 H28           -0.7696    -2.4257     0.2030 H       
  29 H29            5.8847    -4.5269    -0.8550 H       
  30 H30            1.7655    -6.7122     0.7045 H       
  31 H31            0.6661    -6.7010    -0.6953 H       
  32 H32            2.4256    -6.6011    -0.9448 H       
@<TRIPOS>BOND
   1    1    2 ar
   2    1   12 1
   3    1    6 ar
   4    2    3 ar
   5    2    7 1
   6    3    4 ar
   7    3   23 1
   8    4    5 ar
   9    4   24 1
  10    5    6 ar
  11    5   22 1
  12    6   25 1
  13    7   10 1
  14    7   26 1
  15    8    9 1
  16    8   19 2
  17    8   11 am
  18    9   10 1
  19    9   13 2
  20   10   16 2
  21   11   17 1
  22   11   27 1
  23   13   14 1
  24   13   18 1
  25   14   15 am
  26   14   20 1
  27   15   16 1
  28   15   21 2
  29   16   28 1
  30   17   18 2
  31   17   29 1
  32   20   30 1
  33   20   31 1
  34   20   32 1

#	End of record

