#	Name: ASD00840746
#	Creating user name:	WinNT
#	Creation time:	15. 06. 2019 18:39

#	Modifying user name:	WinNT
#	Modification time:	15. 06. 2019 18:39

#	Program:	/corina/corina34_cracker 3.40 0067  02.08.2006

@<TRIPOS>MOLECULE
ASD00840746
  96  101    0    0    0
SMALL
NO_CHARGES


@<TRIPOS>ATOM
   1 F1             6.0053    -1.9497    -2.0953 F       
   2 N2             0.9793     1.4230    -0.8139 N.ar    
   3 C3             1.2550     0.1325    -0.9017 C.ar    
   4 C4             1.1978    -0.6816     0.2225 C.ar    
   5 C5             0.8477    -0.1247     1.4399 C.ar    
   6 C6             0.5658     1.2338     1.4900 C.ar    
   7 C7             0.6426     1.9826     0.3328 C.ar    
   8 C8             1.5123    -2.1517     0.1175 C.3     
   9 C9             1.2552    -2.8446     1.4387 C.2     
  10 C10            0.6851    -2.7971    -0.9961 C.3     
  11 C11           -0.7765    -2.5110    -0.7665 C.2     
  12 N12           -1.7045    -3.0449    -1.5852 N.am    
  13 O13           -1.1178    -1.8002     0.1550 O.2     
  14 C14           -3.1218    -2.6832    -1.4470 C.3     
  15 C15           -3.9468    -3.9665    -1.3081 C.3     
  16 C16           -3.6466    -4.8917    -2.4896 C.3     
  17 C17           -2.1631    -5.2679    -2.4810 C.3     
  18 C18           -1.3171    -3.9951    -2.6368 C.3     
  19 N19           -4.4609    -6.1091    -2.3772 N.3     
  20 C20           -4.2877    -6.9693    -3.5561 C.3     
  21 C21           -5.0881    -8.2597    -3.3647 C.3     
  22 N22           -6.5054    -7.9285    -3.1616 N.3     
  23 C23           -6.6785    -7.0683    -1.9827 C.3     
  24 C24           -5.8781    -5.7779    -2.1741 C.3     
  25 C25           -7.3197    -9.1460    -3.0492 C.3     
  26 O26            0.1914    -2.9234     2.0158 O.2     
  27 N27            2.4269    -3.3567     1.8515 N.am    
  28 C28            2.9891    -2.3611    -0.1266 C.ar    
  29 C29            3.4646    -3.0908     0.9557 C.ar    
  30 C30            3.8323    -1.9789    -1.1455 C.ar    
  31 C31            5.1740    -2.3229    -1.0979 C.ar    
  32 C32            5.6599    -3.0505    -0.0234 C.ar    
  33 C33            4.8141    -3.4338     0.9985 C.ar    
  34 Cl34           7.3402    -3.4824     0.0382 Cl      
  35 C35            2.3408    -5.9046     2.8886 C.ar    
  36 C36            1.0865    -6.3289     2.4755 C.ar    
  37 C37            3.3739    -6.8150     3.0023 C.ar    
  38 C38            3.1584    -8.1476     2.7044 C.ar    
  39 C39            1.9088    -8.5731     2.2924 C.ar    
  40 C40            0.8726    -7.6670     2.1775 C.ar    
  41 H41            1.7429    -9.6147     2.0602 H       
  42 O42            0.0686    -5.4354     2.3633 O.3     
  43 C43           -1.1958    -5.9432     1.9325 C.3     
  44 C44           -2.2093    -4.7990     1.8666 C.3     
  45 C45           -8.7322    -8.7744    -2.5936 C.3     
  46 C46           -9.5804   -10.0425    -2.4765 C.3     
  47 S47            2.6184    -4.2049     3.2609 S.o2    
  48 O48            3.9898    -4.0904     3.6149 O.2     
  49 O49            1.5584    -3.8036     4.1179 O.2     
  50 O50            1.5965    -0.4015    -2.1013 O.3     
  51 C51            2.0589    -0.2755    -4.4700 C.3     
  52 C52            1.5287     0.4613    -3.2384 C.3     
  53 H53            0.7946    -0.7330     2.3307 H       
  54 H54            0.2891     1.6997     2.4242 H       
  55 H55            0.4246     3.0398     0.3664 H       
  56 H56            0.9889    -2.3864    -1.9590 H       
  57 H57            0.8493    -3.8747    -0.9926 H       
  58 H58           -3.2562    -2.0646    -0.5597 H       
  59 H59           -3.4466    -2.1339    -2.3306 H       
  60 H60           -3.6844    -4.4687    -0.3769 H       
  61 H61           -5.0081    -3.7178    -1.3013 H       
  62 H62           -3.8860    -4.3797    -3.4217 H       
  63 H63           -1.9175    -5.7578    -1.5388 H       
  64 H64           -1.9548    -5.9454    -3.3091 H       
  65 H65           -1.4960    -3.5553    -3.6180 H       
  66 H66           -0.2609    -4.2433    -2.5324 H       
  67 H67           -4.6463    -6.4471    -4.4431 H       
  68 H68           -3.2319    -7.2110    -3.6780 H       
  69 H69           -4.9845    -8.8867    -4.2503 H       
  70 H70           -4.7114    -8.7955    -2.4934 H       
  71 H71           -7.7344    -6.8267    -1.8608 H       
  72 H72           -6.3199    -7.5905    -1.0957 H       
  73 H73           -5.9818    -5.1510    -1.2885 H       
  74 H74           -6.2548    -5.2422    -3.0454 H       
  75 H75           -7.3691    -9.6409    -4.0191 H       
  76 H76           -6.8681    -9.8191    -2.3204 H       
  77 H77            3.4487    -1.4122    -1.9810 H       
  78 H78            5.1996    -4.0008     1.8329 H       
  79 H79            4.3508    -6.4851     3.3239 H       
  80 H80            3.9674    -8.8575     2.7932 H       
  81 H81           -0.1033    -7.9999     1.8564 H       
  82 H82           -1.0897    -6.3919     0.9448 H       
  83 H83           -1.5442    -6.6970     2.6385 H       
  84 H84           -2.3154    -4.3502     2.8543 H       
  85 H85           -1.8608    -4.0452     1.1606 H       
  86 H86           -3.1737    -5.1863     1.5380 H       
  87 H87           -8.6828    -8.2795    -1.6237 H       
  88 H88           -9.1838    -8.1014    -3.3224 H       
  89 H89           -9.6298   -10.5374    -3.4464 H       
  90 H90           -9.1288   -10.7156    -1.7477 H       
  91 H91          -10.5867    -9.7778    -2.1519 H       
  92 H92            1.4018    -1.1135    -4.7029 H       
  93 H93            2.0892     0.4089    -5.3178 H       
  94 H94            3.0633    -0.6469    -4.2668 H       
  95 H95            0.4934     0.7565    -3.4093 H       
  96 H96            2.1345     1.3492    -3.0575 H       
@<TRIPOS>BOND
   1    1   31 1
   2    2    3 ar
   3    2    7 ar
   4    3    4 ar
   5    3   50 1
   6    4    5 ar
   7    4    8 1
   8    5    6 ar
   9    5   53 1
  10    6    7 ar
  11    6   54 1
  12    7   55 1
  13    8    9 1
  14    8   10 1
  15    8   28 1
  16    9   26 2
  17    9   27 am
  18   10   11 1
  19   10   56 1
  20   10   57 1
  21   11   12 am
  22   11   13 2
  23   12   14 1
  24   12   18 1
  25   14   15 1
  26   14   58 1
  27   14   59 1
  28   15   16 1
  29   15   60 1
  30   15   61 1
  31   16   17 1
  32   16   19 1
  33   16   62 1
  34   17   18 1
  35   17   63 1
  36   17   64 1
  37   18   65 1
  38   18   66 1
  39   19   20 1
  40   19   24 1
  41   20   21 1
  42   20   67 1
  43   20   68 1
  44   21   22 1
  45   21   69 1
  46   21   70 1
  47   22   23 1
  48   22   25 1
  49   23   24 1
  50   23   71 1
  51   23   72 1
  52   24   73 1
  53   24   74 1
  54   25   45 1
  55   25   75 1
  56   25   76 1
  57   27   47 am
  58   27   29 1
  59   28   29 ar
  60   28   30 ar
  61   29   33 ar
  62   30   31 ar
  63   30   77 1
  64   31   32 ar
  65   32   33 ar
  66   32   34 1
  67   33   78 1
  68   35   36 ar
  69   35   37 ar
  70   35   47 1
  71   36   42 1
  72   36   40 ar
  73   37   38 ar
  74   37   79 1
  75   38   39 ar
  76   38   80 1
  77   39   40 ar
  78   39   41 1
  79   40   81 1
  80   42   43 1
  81   43   44 1
  82   43   82 1
  83   43   83 1
  84   44   84 1
  85   44   85 1
  86   44   86 1
  87   45   46 1
  88   45   87 1
  89   45   88 1
  90   46   89 1
  91   46   90 1
  92   46   91 1
  93   47   48 2
  94   47   49 2
  95   50   52 1
  96   51   52 1
  97   51   92 1
  98   51   93 1
  99   51   94 1
 100   52   95 1
 101   52   96 1

#	End of record

