#	Name: ASD03740253
#	Creating user name:	WinNT
#	Creation time:	15. 06. 2019 20:47

#	Modifying user name:	WinNT
#	Modification time:	15. 06. 2019 20:47

#	Program:	/corina/corina34_cracker 3.40 0067  02.08.2006

@<TRIPOS>MOLECULE
ASD03740253
  65   68    0    0    0
SMALL
NO_CHARGES


@<TRIPOS>ATOM
   1 C1            -0.6993     1.6789    -0.0008 C.ar    
   2 C2            -0.8243     0.3076     0.0944 C.ar    
   3 C3             1.5544     0.1039     0.3869 C.ar    
   4 C4             0.5537     2.2710     0.0981 C.ar    
   5 C5             0.2992    -0.4857     0.2892 C.ar    
   6 C6             1.6754     1.4715     0.2901 C.ar    
   7 C7             1.7543     5.7131    -0.7675 C.3     
   8 C8             3.0010     6.0538    -1.5868 C.3     
   9 C9             1.8539     4.2961    -0.2642 C.2     
  10 C10            4.1812     6.2251    -0.6676 C.2     
  11 C11            1.6594     6.6590     0.4041 C.2     
  12 C12            7.8184     6.0055    -1.3451 C.3     
  13 C13            7.2874     5.0826    -2.4737 C.3     
  14 C14            6.6764     5.9106    -0.3027 C.3     
  15 C15            5.7653     5.3346    -2.4388 C.3     
  16 C16            2.3859     7.0382     5.9400 C.3     
  17 C17            3.8349     8.7497     4.8384 C.3     
  18 C18            0.0130    -2.4638    -2.2889 C.3     
  19 C19            2.6506     7.0387     3.4556 C.3     
  20 C20            2.6953     7.9223     2.2074 C.3     
  21 C21            2.5560     7.9210     4.7020 C.3     
  22 N22            0.6913     3.6564     0.0109 N.pl3   
  23 N23            4.0397     6.7116     0.5171 N.2     
  24 N24            3.0319     3.8035    -0.1361 N.am    
  25 N25            5.4392     5.8534    -1.1024 N.pl3   
  26 N26            2.7859     7.0775     1.0140 N.am    
  27 N27            0.1678    -1.8753     0.3872 N.am    
  28 O28            0.5757     7.0407     0.7946 O.2     
  29 O29            3.5626     2.3431     1.7880 O.2     
  30 O30            4.0943     1.6077    -0.5437 O.2     
  31 O31           -2.0338    -1.9954    -0.6427 O.2     
  32 O32           -0.7072    -4.0497    -0.2677 O.2     
  33 O33            3.2670     4.9959    -2.5099 O.3     
  34 S34            3.2536     2.2514     0.4040 S.o2    
  35 S35           -0.7966    -2.6933    -0.6819 S.o2    
  36 H36           -1.5751     2.2914    -0.1566 H       
  37 H37           -1.7994    -0.1504     0.0176 H       
  38 H38            2.4309    -0.5086     0.5385 H       
  39 H39            0.8677     5.8162    -1.3931 H       
  40 H40            2.8319     6.9798    -2.1364 H       
  41 H41            8.7537     5.6237    -0.9358 H       
  42 H42            7.9383     7.0287    -1.7011 H       
  43 H43            7.7045     5.3734    -3.4378 H       
  44 H44            7.5106     4.0384    -2.2549 H       
  45 H45            6.7834     5.0059     0.2959 H       
  46 H46            6.6735     6.7923     0.3382 H       
  47 H47            5.4935     6.0682    -3.1977 H       
  48 H48            5.2309     4.4010    -2.6146 H       
  49 H49            2.3185     7.6668     6.8280 H       
  50 H50            1.4748     6.4478     5.8428 H       
  51 H51            3.2431     6.3712     6.0313 H       
  52 H52            3.7675     9.3783     5.7264 H       
  53 H53            4.6921     8.0826     4.9296 H       
  54 H54            3.9561     9.3786     3.9564 H       
  55 H55            1.0205    -2.8780    -2.2506 H       
  56 H56           -0.5610    -2.9756    -3.0614 H       
  57 H57            0.0660    -1.4000    -2.5204 H       
  58 H58            1.7801     6.3845     3.4066 H       
  59 H59            3.5566     6.4347     3.5059 H       
  60 H60            1.7894     8.5263     2.1572 H       
  61 H61            3.5658     8.5765     2.2564 H       
  62 H62            1.6988     8.5880     4.6108 H       
  63 H63           -0.0993     4.1990     0.1570 H       
  64 H64            0.6416    -2.3595     1.0815 H       
  65 H65            3.8596     5.2443    -3.2326 H       
@<TRIPOS>BOND
   1    1    2 ar
   2    1    4 ar
   3    1   36 1
   4    2    5 ar
   5    2   37 1
   6    3    5 ar
   7    3    6 ar
   8    3   38 1
   9    4    6 ar
  10    4   22 1
  11    5   27 1
  12    6   34 1
  13    7    8 1
  14    7    9 1
  15    7   11 1
  16    7   39 1
  17    8   10 1
  18    8   33 1
  19    8   40 1
  20    9   22 1
  21    9   24 2
  22   10   23 2
  23   10   25 1
  24   11   26 am
  25   11   28 2
  26   12   13 1
  27   12   14 1
  28   12   41 1
  29   12   42 1
  30   13   15 1
  31   13   43 1
  32   13   44 1
  33   14   25 1
  34   14   45 1
  35   14   46 1
  36   15   25 1
  37   15   47 1
  38   15   48 1
  39   16   21 1
  40   16   49 1
  41   16   50 1
  42   16   51 1
  43   17   21 1
  44   17   52 1
  45   17   53 1
  46   17   54 1
  47   18   35 1
  48   18   55 1
  49   18   56 1
  50   18   57 1
  51   19   20 1
  52   19   21 1
  53   19   58 1
  54   19   59 1
  55   20   26 1
  56   20   60 1
  57   20   61 1
  58   21   62 1
  59   22   63 1
  60   23   26 1
  61   24   34 am
  62   27   35 am
  63   27   64 1
  64   29   34 2
  65   30   34 2
  66   31   35 2
  67   32   35 2
  68   33   65 1

#	End of record

