#	Name: ASD03330636
#	Creating user name:	WinNT
#	Creation time:	15. 06. 2019 20:37

#	Modifying user name:	WinNT
#	Modification time:	15. 06. 2019 20:37

#	Program:	/corina/corina34_cracker 3.40 0067  02.08.2006

@<TRIPOS>MOLECULE
ASD03330636
  61   63    0    0    0
SMALL
NO_CHARGES


@<TRIPOS>ATOM
   1 C1            -0.3224     1.1711     0.8539 C.2     
   2 N2            -0.3518    -0.1677     1.0882 N.pl3   
   3 C3             0.9830     1.5565     0.8976 C.2     
   4 N4             1.7297     0.4566     1.1384 N.2     
   5 C5             0.9374    -0.5838     1.2485 C.2     
   6 C6             1.3701    -1.9753     1.5041 C.ar    
   7 C7             1.4904     2.9279     0.7151 C.2     
   8 O8             0.7146     3.8401     0.5026 O.2     
   9 C9             3.3187     4.5347     0.6020 C.3     
  10 N10            2.8143     3.1713     0.7835 N.am    
  11 C11            3.4923     4.8197    -0.8912 C.3     
  12 C12            2.1239     4.8055    -1.5756 C.3     
  13 C13            4.1408     6.1930    -1.0763 C.3     
  14 C14            4.3856     3.7455    -1.5150 C.3     
  15 C15            4.6479     4.6754     1.2980 C.2     
  16 N16            5.1851     5.8973     1.4841 N.am    
  17 O17            5.2341     3.6890     1.6908 O.2     
  18 C18            6.5098     6.0297     2.0956 C.3     
  19 C19           -1.5621    -0.9906     1.1647 C.3     
  20 C20           -2.4705    -0.6597    -0.0235 C.3     
  21 C21           -3.3809     0.5108     0.3336 C.3     
  22 N22           -2.7024     1.4531     1.2255 N.3     
  23 C23           -1.5202     2.0432     0.5801 C.3     
  24 C24           -3.6257     2.4976     1.6886 C.3     
  25 C25            2.6204    -2.4069     1.0706 C.ar    
  26 C26            3.0217    -3.7197     1.3149 C.ar    
  27 C27            2.1652    -4.5938     1.9939 C.ar    
  28 C28            0.9237    -4.1557     2.4208 C.ar    
  29 C29            0.5265    -2.8557     2.1859 C.ar    
  30 F30            2.5504    -5.8665     2.2325 F       
  31 C31            4.3061    -4.1723     0.8720 C.1     
  32 N32            5.3250    -4.5313     0.5207 N.1     
  33 H33            2.6090     5.2443     1.0272 H       
  34 H34            3.4330     2.4438     0.9530 H       
  35 H35            1.4875     5.5707    -1.1312 H       
  36 H36            2.2476     5.0085    -2.6393 H       
  37 H37            1.6619     3.8271    -1.4437 H       
  38 H38            5.1002     6.2144    -0.5593 H       
  39 H39            4.2963     6.3812    -2.1386 H       
  40 H40            3.4881     6.9618    -0.6628 H       
  41 H41            3.9236     2.7671    -1.3831 H       
  42 H42            4.5093     3.9485    -2.5787 H       
  43 H43            5.3604     3.7556    -1.0274 H       
  44 H44            4.6947     6.6891     1.2132 H       
  45 H45            6.7749     7.0848     2.1634 H       
  46 H46            6.4940     5.5941     3.0946 H       
  47 H47            7.2462     5.5087     1.4836 H       
  48 H48           -1.2883    -2.0451     1.1315 H       
  49 H49           -2.0882    -0.7790     2.0956 H       
  50 H50           -1.8580    -0.3928    -0.8847 H       
  51 H51           -3.0787    -1.5304    -0.2683 H       
  52 H52           -3.6718     1.0293    -0.5800 H       
  53 H53           -4.2748     0.1307     0.8281 H       
  54 H54           -1.3446     3.0406     0.9832 H       
  55 H55           -1.6860     2.1074    -0.4953 H       
  56 H56           -4.4526     2.0377     2.2298 H       
  57 H57           -3.0960     3.1839     2.3494 H       
  58 H58           -4.0136     3.0463     0.8304 H       
  59 H59            3.2768    -1.7278     0.5468 H       
  60 H60            0.2650    -4.8331     2.9438 H       
  61 H61           -0.4435    -2.5201     2.5220 H       
@<TRIPOS>BOND
   1    1    2 1
   2    1    3 2
   3    1   23 1
   4    2   19 1
   5    2    5 1
   6    3    4 1
   7    3    7 1
   8    4    5 2
   9    5    6 1
  10    6   25 ar
  11    6   29 ar
  12    7    8 2
  13    7   10 am
  14    9   10 1
  15    9   11 1
  16    9   15 1
  17    9   33 1
  18   10   34 1
  19   11   12 1
  20   11   13 1
  21   11   14 1
  22   12   35 1
  23   12   36 1
  24   12   37 1
  25   13   38 1
  26   13   39 1
  27   13   40 1
  28   14   41 1
  29   14   42 1
  30   14   43 1
  31   15   16 am
  32   15   17 2
  33   16   18 1
  34   16   44 1
  35   18   45 1
  36   18   46 1
  37   18   47 1
  38   19   20 1
  39   19   48 1
  40   19   49 1
  41   20   21 1
  42   20   50 1
  43   20   51 1
  44   21   22 1
  45   21   52 1
  46   21   53 1
  47   22   23 1
  48   22   24 1
  49   23   54 1
  50   23   55 1
  51   24   56 1
  52   24   57 1
  53   24   58 1
  54   25   26 ar
  55   25   59 1
  56   26   27 ar
  57   26   31 1
  58   27   28 ar
  59   27   30 1
  60   28   29 ar
  61   28   60 1
  62   29   61 1
  63   31   32 3

#	End of record

