#	Name: ASD01820102
#	Creating user name:	WinNT
#	Creation time:	15. 06. 2019 19:36

#	Modifying user name:	WinNT
#	Modification time:	15. 06. 2019 19:36

#	Program:	/corina/corina34_cracker 3.40 0067  02.08.2006

@<TRIPOS>MOLECULE
ASD01820102
  92   93    0    0    0
SMALL
NO_CHARGES


@<TRIPOS>ATOM
   1 C1            -0.0171     1.4063     0.0098 C.ar    
   2 C2             1.1939     2.1352     0.0021 C.ar    
   3 C3             2.3960     1.4434    -0.0131 C.ar    
   4 C4             2.4017     0.0535    -0.0211 C.ar    
   5 C5             1.2418    -0.6668    -0.0139 C.ar    
   6 C6             0.0021    -0.0041     0.0020 C.ar    
   7 C7            -1.2192    -0.7003     0.0104 C.ar    
   8 C8            -2.3982    -0.0119     0.0254 C.ar    
   9 C9            -2.4303     1.3776     0.0332 C.ar    
  10 C10           -1.2473     2.1018     0.0312 C.ar    
  11 N11           -0.0555     4.2364     0.0263 N.am    
  12 C12            1.1333     3.6042     0.0111 C.2     
  13 C13           -1.2267     3.5720     0.0392 C.2     
  14 C14           -0.0755     5.7013     0.0349 C.3     
  15 C15           -0.0965     6.2194    -1.4045 C.3     
  16 C16           -0.1173     7.7493    -1.3956 C.3     
  17 N17           -0.1375     8.2468    -2.7776 N.4     
  18 C18           -0.1574     9.7156    -2.7690 C.3     
  19 C19           -0.1785    10.2338    -4.2084 C.3     
  20 C20           -0.2829    15.8597    -7.0604 C.3     
  21 C21           -0.3039    16.3779    -8.4998 C.3     
  22 N22           -0.3239    17.8468    -8.4912 N.4     
  23 C23           -0.3441    18.3443    -9.8733 C.3     
  24 C24           -0.3641    19.8161    -9.8647 C.1     
  25 C25           -0.3800    20.9900    -9.8578 C.1     
  26 C26           -0.4001    22.4618    -9.8492 C.3     
  27 O27           -0.4197    22.9458   -11.1936 O.3     
  28 C28           -0.4396    24.2873   -11.3629 C.2     
  29 O29           -0.4582    26.4880   -10.9076 O.3     
  30 C30           -0.8797    26.4475   -12.2854 C.3     
  31 C31           -0.4685    25.0127   -12.6948 C.3     
  32 N32           -0.4429    25.1580   -10.4283 N.2     
  33 C33           -1.5231    18.3160    -7.7843 C.3     
  34 C34            0.8755    18.3488    -7.8076 C.3     
  35 O35            2.1625     4.2519    -0.0001 O.2     
  36 O36           -2.2732     4.1913     0.0575 O.2     
  37 C37            1.0617     7.7775    -3.4845 C.3     
  38 C38           -1.3368     7.7448    -3.4613 C.3     
  39 C39           -0.2621    14.3299    -7.0694 C.3     
  40 C40           -0.1993    11.7637    -4.1995 C.3     
  41 C41           -0.2203    12.2819    -5.6389 C.3     
  42 C42           -0.2411    13.8117    -5.6300 C.3     
  43 H43            3.3298     1.9860    -0.0191 H       
  44 H44            3.3466    -0.4694    -0.0336 H       
  45 H45            1.2767    -1.7462    -0.0208 H       
  46 H46           -1.2248    -1.7803     0.0047 H       
  47 H47           -3.3286    -0.5604     0.0310 H       
  48 H48           -3.3784     1.8946     0.0450 H       
  49 H49           -0.9652     6.0495     0.5594 H       
  50 H50            0.8145     6.0738     0.5422 H       
  51 H51            0.7933     5.8712    -1.9291 H       
  52 H52           -0.9864     5.8469    -1.9118 H       
  53 H53           -1.0071     8.0975    -0.8710 H       
  54 H54            0.7727     8.1218    -0.8883 H       
  55 H55           -1.0472    10.0639    -2.2445 H       
  56 H56            0.7325    10.0882    -2.2617 H       
  57 H57            0.7113     9.8856    -4.7330 H       
  58 H58           -1.0684     9.8613    -4.7157 H       
  59 H59            0.6070    16.2322    -6.5531 H       
  60 H60           -1.1727    16.2079    -6.5359 H       
  61 H61            0.5859    16.0297    -9.0244 H       
  62 H62           -1.1939    16.0054    -9.0071 H       
  63 H63            0.5457    17.9961   -10.3978 H       
  64 H64           -1.2340    17.9718   -10.3806 H       
  65 H65           -1.2898    22.8100    -9.3246 H       
  66 H66            0.4899    22.8343    -9.3419 H       
  67 H67           -1.9581    26.5830   -12.3684 H       
  68 H68           -0.3473    27.1906   -12.8790 H       
  69 H69            0.5179    25.0100   -13.1585 H       
  70 H70           -1.2113    24.5719   -13.3597 H       
  71 H71           -1.5081    17.9469    -6.7588 H       
  72 H72           -1.5379    19.4059    -7.7779 H       
  73 H73           -2.4130    17.9435    -8.2916 H       
  74 H74            1.7653    18.0006    -8.3321 H       
  75 H75            0.8607    19.4387    -7.8012 H       
  76 H76            0.8905    17.9796    -6.7821 H       
  77 H77            1.0765     6.6876    -3.4909 H       
  78 H78            1.0467     8.1467    -4.5100 H       
  79 H79            1.9516     8.1500    -2.9772 H       
  80 H80           -2.2266     8.0930    -2.9368 H       
  81 H81           -1.3518     8.1140    -4.4868 H       
  82 H82           -1.3220     6.6549    -3.4677 H       
  83 H83           -1.1520    13.9574    -7.5767 H       
  84 H84            0.6277    13.9817    -7.5939 H       
  85 H85           -1.0890    12.1119    -3.6749 H       
  86 H86            0.6907    12.1362    -3.6922 H       
  87 H87            0.6695    11.9337    -6.1635 H       
  88 H88           -1.1102    11.9094    -6.1462 H       
  89 H89            0.6489    14.1842    -5.1227 H       
  90 H90           -1.1309    14.1599    -5.1054 H       
  91 Br91           8.3466    32.1906     5.5594 Br      
  92 Br92          13.3466    37.1906    10.5594 Br      
@<TRIPOS>BOND
   1    1    6 ar
   2    1    2 ar
   3    1   10 ar
   4    2    3 ar
   5    2   12 1
   6    3    4 ar
   7    3   43 1
   8    4    5 ar
   9    4   44 1
  10    5    6 ar
  11    5   45 1
  12    6    7 ar
  13    7    8 ar
  14    7   46 1
  15    8    9 ar
  16    8   47 1
  17    9   10 ar
  18    9   48 1
  19   10   13 1
  20   11   12 am
  21   11   13 am
  22   11   14 1
  23   12   35 2
  24   13   36 2
  25   14   15 1
  26   14   49 1
  27   14   50 1
  28   15   16 1
  29   15   51 1
  30   15   52 1
  31   16   17 1
  32   16   53 1
  33   16   54 1
  34   17   18 1
  35   17   37 1
  36   17   38 1
  37   18   19 1
  38   18   55 1
  39   18   56 1
  40   19   40 1
  41   19   57 1
  42   19   58 1
  43   20   21 1
  44   20   39 1
  45   20   59 1
  46   20   60 1
  47   21   22 1
  48   21   61 1
  49   21   62 1
  50   22   23 1
  51   22   33 1
  52   22   34 1
  53   23   24 1
  54   23   63 1
  55   23   64 1
  56   24   25 3
  57   25   26 1
  58   26   27 1
  59   26   65 1
  60   26   66 1
  61   27   28 1
  62   28   32 2
  63   28   31 1
  64   29   30 1
  65   29   32 1
  66   30   31 1
  67   30   67 1
  68   30   68 1
  69   31   69 1
  70   31   70 1
  71   33   71 1
  72   33   72 1
  73   33   73 1
  74   34   74 1
  75   34   75 1
  76   34   76 1
  77   37   77 1
  78   37   78 1
  79   37   79 1
  80   38   80 1
  81   38   81 1
  82   38   82 1
  83   39   42 1
  84   39   83 1
  85   39   84 1
  86   40   41 1
  87   40   85 1
  88   40   86 1
  89   41   42 1
  90   41   87 1
  91   41   88 1
  92   42   89 1
  93   42   90 1

#	End of record

