#	Name: ASD03090926
#	Creating user name:	WinNT
#	Creation time:	15. 06. 2019 20:29

#	Modifying user name:	WinNT
#	Modification time:	15. 06. 2019 20:29

#	Program:	/corina/corina34_cracker 3.40 0067  02.08.2006

@<TRIPOS>MOLECULE
ASD03090926
  50   54    0    0    0
SMALL
NO_CHARGES


@<TRIPOS>ATOM
   1 N1            -0.2399     1.6486     0.2109 N.am    
   2 C2            -0.2029     0.3113     0.3745 C.2     
   3 O3             0.8674    -0.2718     0.3879 O.2     
   4 N4            -1.3395    -0.3753     0.5220 N.2     
   5 C5            -1.5279     2.3375     0.0985 C.3     
   6 C6            -2.0007     2.7453     1.4701 C.ar    
   7 C7            -1.4849     3.8812     2.0712 C.ar    
   8 C8            -1.9202     4.2547     3.3312 C.ar    
   9 C9            -2.8690     3.4936     3.9877 C.ar    
  10 C10           -3.3828     2.3597     3.3869 C.ar    
  11 C11           -2.9533     1.9892     2.1259 C.ar    
  12 F12           -0.5573     4.6242     1.4287 F       
  13 S13            0.0774    -2.7090     0.7428 S.3     
  14 C14           -1.3117    -1.7050     0.5756 C.2     
  15 N15           -2.3720    -2.5492     0.5101 N.pl3   
  16 C16           -2.1039    -3.8820     0.5864 C.2     
  17 C17           -0.8308    -4.2303     0.7176 C.2     
  18 C18           -0.2738    -5.6266     0.8235 C.3     
  19 O19           -7.6191    -0.9095     0.0065 O.3     
  20 C20           -8.2294    -2.0565     0.6270 C.3     
  21 O21           -7.2573    -3.1027     0.4432 O.3     
  22 C22           -6.0506    -2.4695     0.3638 C.ar    
  23 C23           -6.2725    -1.1204     0.0952 C.ar    
  24 C24           -4.7566    -2.9419     0.5009 C.ar    
  25 C25           -3.6827    -2.0714     0.3709 C.ar    
  26 C26           -3.9069    -0.7279     0.1036 C.ar    
  27 C27           -5.1984    -0.2552    -0.0331 C.ar    
  28 F28           -8.4467    -1.8212     1.9888 F       
  29 F29           -9.4292    -2.3821    -0.0145 F       
  30 C30            1.0079     2.4140     0.1515 C.3     
  31 C31            2.0138     2.2144     1.2869 C.3     
  32 C32            2.3018     1.6373    -0.1005 C.3     
  33 H33           -1.4124     3.2243    -0.5246 H       
  34 H34           -2.2596     1.6682    -0.3539 H       
  35 H35           -1.5184     5.1402     3.8011 H       
  36 H36           -3.2087     3.7847     4.9707 H       
  37 H37           -4.1235     1.7652     3.9009 H       
  38 H38           -3.3592     1.1059     1.6553 H       
  39 H39           -2.8906    -4.6206     0.5422 H       
  40 H40            0.8106    -5.5786     0.9227 H       
  41 H41           -0.6971    -6.1213     1.6977 H       
  42 H42           -0.5320    -6.1898    -0.0733 H       
  43 H43           -4.5824    -3.9872     0.7094 H       
  44 H44           -3.0713    -0.0513     0.0025 H       
  45 H45           -5.3704     0.7905    -0.2416 H       
  46 H46            0.9272     3.4117    -0.2799 H       
  47 H47            2.5953     3.0808     1.6022 H       
  48 H48            1.7473     1.5136     2.0781 H       
  49 H49            2.2247     0.5569    -0.2221 H       
  50 H50            3.0727     2.1240    -0.6979 H       
@<TRIPOS>BOND
   1    1    2 am
   2    1    5 1
   3    1   30 1
   4    2    3 2
   5    2    4 1
   6    4   14 2
   7    5    6 1
   8    5   33 1
   9    5   34 1
  10    6    7 ar
  11    6   11 ar
  12    7    8 ar
  13    7   12 1
  14    8    9 ar
  15    8   35 1
  16    9   10 ar
  17    9   36 1
  18   10   11 ar
  19   10   37 1
  20   11   38 1
  21   13   14 1
  22   13   17 1
  23   14   15 1
  24   15   16 1
  25   15   25 1
  26   16   17 2
  27   16   39 1
  28   17   18 1
  29   18   40 1
  30   18   41 1
  31   18   42 1
  32   19   20 1
  33   19   23 1
  34   20   21 1
  35   20   28 1
  36   20   29 1
  37   21   22 1
  38   22   23 ar
  39   22   24 ar
  40   23   27 ar
  41   24   25 ar
  42   24   43 1
  43   25   26 ar
  44   26   27 ar
  45   26   44 1
  46   27   45 1
  47   30   31 1
  48   30   32 1
  49   30   46 1
  50   31   32 1
  51   31   47 1
  52   31   48 1
  53   32   49 1
  54   32   50 1

#	End of record

