#	Name: ASD01918593
#	Creating user name:	WinNT
#	Creation time:	15. 06. 2019 20:11

#	Modifying user name:	WinNT
#	Modification time:	15. 06. 2019 20:11

#	Program:	/corina/corina34_cracker 3.40 0067  02.08.2006

@<TRIPOS>MOLECULE
ASD01918593
  37   40    0    0    0
SMALL
NO_CHARGES


@<TRIPOS>ATOM
   1 C1            -0.0184     1.5028     0.0103 C.3     
   2 C2             0.0021    -0.0041     0.0020 C.2     
   3 C3             0.0063    -0.7191    -1.1246 C.2     
   4 S4             0.0316    -2.4258    -0.6885 S.3     
   5 C5             0.0340    -2.0124     0.9704 C.2     
   6 N6             0.0515    -2.9246     2.0175 N.am    
   7 C7             0.0677    -4.2472     1.7589 C.2     
   8 O8             0.0670    -4.6419     0.6084 O.2     
   9 C9             0.0861    -5.2145     2.8693 C.2     
  10 C10            0.1088    -6.5796     2.6202 C.2     
  11 C11            0.1265    -7.4745     3.7064 C.2     
  12 C12            0.1215    -7.0061     4.9997 C.2     
  13 N13            0.0995    -5.6774     5.2695 N.pl3   
  14 N14            0.0898    -4.9430     6.4646 N.2     
  15 C15            0.0675    -3.6735     6.1362 C.2     
  16 N16            0.0624    -3.5558     4.8141 N.2     
  17 C17            0.0872    -4.7572     4.2595 C.2     
  18 C18            0.1502    -8.9334     3.4547 C.2     
  19 C19            1.1605    -9.7941     3.7777 C.2     
  20 C20            0.7808   -11.0724     3.3675 C.2     
  21 C21            1.5993   -12.3274     3.5292 C.3     
  22 N22           -0.4054   -10.9994     2.8192 N.2     
  23 N23           -0.8342    -9.6667     2.8632 N.pl3   
  24 H24           -1.6794    -9.3264     2.5305 H       
  25 N25            0.0228    -0.7233     1.1086 N.2     
  26 H26            1.0042     1.8801     0.0026 H       
  27 H27           -0.5455     1.8639    -0.8728 H       
  28 H28           -0.5286     1.8543     0.9071 H       
  29 H29           -0.0045    -0.3210    -2.1286 H       
  30 H30            0.0520    -2.6098     2.9350 H       
  31 H31            0.1124    -6.9505     1.6059 H       
  32 H32            0.1350    -7.7115     5.8175 H       
  33 H33            0.0545    -2.8499     6.8346 H       
  34 H34            2.0884    -9.5317     4.2641 H       
  35 H35            1.3624   -12.7951     4.4848 H       
  36 H36            1.3680   -13.0189     2.7190 H       
  37 H37            2.6595   -12.0759     3.5007 H       
@<TRIPOS>BOND
   1    1    2 1
   2    1   26 1
   3    1   27 1
   4    1   28 1
   5    2   25 1
   6    2    3 2
   7    3    4 1
   8    3   29 1
   9    4    5 1
  10    5    6 1
  11    5   25 2
  12    6    7 am
  13    6   30 1
  14    7    8 2
  15    7    9 1
  16    9   17 1
  17    9   10 2
  18   10   11 1
  19   10   31 1
  20   11   12 2
  21   11   18 1
  22   12   13 1
  23   12   32 1
  24   13   17 1
  25   13   14 1
  26   14   15 2
  27   15   16 1
  28   15   33 1
  29   16   17 2
  30   18   23 1
  31   18   19 2
  32   19   20 1
  33   19   34 1
  34   20   21 1
  35   20   22 2
  36   21   35 1
  37   21   36 1
  38   21   37 1
  39   22   23 1
  40   23   24 1

#	End of record

