#	Name: ASD01911753
#	Creating user name:	WinNT
#	Creation time:	15. 06. 2019 19:58

#	Modifying user name:	WinNT
#	Modification time:	15. 06. 2019 19:58

#	Program:	/corina/corina34_cracker 3.40 0067  02.08.2006

@<TRIPOS>MOLECULE
ASD01911753
  37   38    0    0    0
SMALL
NO_CHARGES


@<TRIPOS>ATOM
   1 N1            -0.0908     1.4599     0.0488 N.3     
   2 C2             0.0051    -0.0053     0.0913 C.3     
   3 C3            -1.3433    -0.5874     0.4287 C.2     
   4 C4            -2.2894    -0.9371    -0.4516 C.2     
   5 S5            -1.9432    -0.9321     2.0497 S.3     
   6 C6            -3.4534    -1.5218     1.3605 C.2     
   7 N7            -3.3939    -1.4262     0.0593 N.2     
   8 C8            -4.5653    -2.0295     2.1067 C.1     
   9 C9            -5.4768    -2.4457     2.7184 C.1     
  10 C10           -6.5886    -2.9534     3.4645 C.ar    
  11 C11           -7.7376    -3.3939     2.8009 C.ar    
  12 C12           -8.8040    -3.8819     3.5263 C.ar    
  13 C13           -8.7389    -3.9363     4.9077 C.ar    
  14 C14           -7.6051    -3.5016     5.5716 C.ar    
  15 C15           -6.5283    -3.0164     4.8597 C.ar    
  16 C16            1.2414     2.0723    -0.0416 C.3     
  17 C17            1.9253     2.0097     1.3257 C.3     
  18 C18           -1.3444     3.3622    -0.8495 C.3     
  19 C19           -0.9485     1.8994    -1.0599 C.3     
  20 H20            0.3281    -0.3767    -0.8813 H       
  21 H21            0.7286    -0.3002     0.8513 H       
  22 H22           -2.1517    -0.8231    -1.5167 H       
  23 H23           -7.7900    -3.3518     1.7230 H       
  24 H24           -9.6924    -4.2223     3.0152 H       
  25 H25           -9.5773    -4.3195     5.4704 H       
  26 H26           -7.5618    -3.5468     6.6498 H       
  27 H27           -5.6441    -2.6779     5.3792 H       
  28 H28            1.8413     1.5308    -0.7730 H       
  29 H29            1.1428     3.1127    -0.3512 H       
  30 H30            1.3714     2.6220     2.0373 H       
  31 H31            1.9467     0.9772     1.6743 H       
  32 H32            2.9448     2.3854     1.2395 H       
  33 H33           -2.0547     3.6609    -1.6205 H       
  34 H34           -1.8041     3.4767     0.1321 H       
  35 H35           -0.4563     3.9913    -0.9104 H       
  36 H36           -0.4057     1.8015    -2.0001 H       
  37 H37           -1.8457     1.2812    -1.0923 H       
@<TRIPOS>BOND
   1    1    2 1
   2    1   16 1
   3    1   19 1
   4    2    3 1
   5    2   20 1
   6    2   21 1
   7    3    4 2
   8    3    5 1
   9    4    7 1
  10    4   22 1
  11    5    6 1
  12    6    7 2
  13    6    8 1
  14    8    9 3
  15    9   10 1
  16   10   11 ar
  17   10   15 ar
  18   11   12 ar
  19   11   23 1
  20   12   13 ar
  21   12   24 1
  22   13   14 ar
  23   13   25 1
  24   14   15 ar
  25   14   26 1
  26   15   27 1
  27   16   17 1
  28   16   28 1
  29   16   29 1
  30   17   30 1
  31   17   31 1
  32   17   32 1
  33   18   19 1
  34   18   33 1
  35   18   34 1
  36   18   35 1
  37   19   36 1
  38   19   37 1

#	End of record

