#	Name: ASD00170105
#	Creating user name:	WinNT
#	Creation time:	15. 06. 2019 18:31

#	Modifying user name:	WinNT
#	Modification time:	15. 06. 2019 18:31

#	Program:	/corina/corina34_cracker 3.40 0067  02.08.2006

@<TRIPOS>MOLECULE
ASD00170105
  34   36    0    0    0
SMALL
NO_CHARGES


@<TRIPOS>ATOM
   1 C1            -0.0344     1.3437    -0.0671 C.2     
   2 C2            -0.0076     0.0060    -0.0850 C.2     
   3 C3            -1.3206    -0.6100     0.0177 C.2     
   4 C4            -2.3367     0.3110     0.1135 C.2     
   5 S5            -1.6784     1.9385     0.0845 S.3     
   6 N6            -3.6767     0.0018     0.2213 N.pl3   
   7 Br7            1.4971     2.4469    -0.1818 Br      
   8 C8            -1.5309    -2.0124     0.0184 C.2     
   9 O9            -1.7199    -2.6003    -1.0313 O.2     
  10 C10            1.2438    -0.7749    -0.1989 C.ar    
  11 C11            2.1949    -0.7222     0.8228 C.ar    
  12 C12            3.3508    -1.4425     0.7183 C.ar    
  13 C13            3.5817    -2.2332    -0.4119 C.ar    
  14 C14            2.6287    -2.2857    -1.4342 C.ar    
  15 C15            1.4711    -1.5689    -1.3256 C.ar    
  16 C16           -1.5207    -2.7613     1.2943 C.ar    
  17 C17           -1.8350    -4.1209     1.3114 C.ar    
  18 C18           -1.8237    -4.8135     2.5045 C.ar    
  19 C19           -1.5016    -4.1629     3.6825 C.ar    
  20 C20           -1.1891    -2.8151     3.6724 C.ar    
  21 C21           -1.1911    -2.1124     2.4852 C.ar    
  22 C22            4.7934    -2.9883    -0.5226 C.1     
  23 N23            5.7546    -3.5874    -0.6104 N.1     
  24 H24           -3.9683    -0.9210     0.1563 H       
  25 H25           -4.3274     0.7073     0.3622 H       
  26 H26            2.0164    -0.1116     1.6955 H       
  27 H27            4.0863    -1.4011     1.5080 H       
  28 H28            2.8064    -2.8958    -2.3075 H       
  29 H29            0.7349    -1.6095    -2.1147 H       
  30 H30           -2.0869    -4.6298     0.3927 H       
  31 H31           -2.0671    -5.8656     2.5192 H       
  32 H32           -1.4946    -4.7095     4.6139 H       
  33 H33           -0.9389    -2.3131     4.5953 H       
  34 H34           -0.9469    -1.0604     2.4786 H       
@<TRIPOS>BOND
   1    1    2 2
   2    1    7 1
   3    1    5 1
   4    2    3 1
   5    2   10 1
   6    3    4 2
   7    3    8 1
   8    4    5 1
   9    4    6 1
  10    6   24 1
  11    6   25 1
  12    8    9 2
  13    8   16 1
  14   10   11 ar
  15   10   15 ar
  16   11   12 ar
  17   11   26 1
  18   12   13 ar
  19   12   27 1
  20   13   14 ar
  21   13   22 1
  22   14   15 ar
  23   14   28 1
  24   15   29 1
  25   16   17 ar
  26   16   21 ar
  27   17   18 ar
  28   17   30 1
  29   18   19 ar
  30   18   31 1
  31   19   20 ar
  32   19   32 1
  33   20   21 ar
  34   20   33 1
  35   21   34 1
  36   22   23 3

#	End of record

