#	Name: ASD07931729
#	Creating user name:	WinNT
#	Creation time:	15. 06. 2019 21:13

#	Modifying user name:	WinNT
#	Modification time:	15. 06. 2019 21:13

#	Program:	/corina/corina34_cracker 3.40 0067  02.08.2006

@<TRIPOS>MOLECULE
ASD07931729
  57   61    0    0    0
SMALL
NO_CHARGES


@<TRIPOS>ATOM
   1 C1            -0.1815     1.6290    -0.7071 C.2     
   2 C2            -0.2184     0.2793    -0.4874 C.2     
   3 C3             1.0368    -0.4278    -0.2212 C.2     
   4 N4             2.1894     0.2637    -0.1974 N.am    
   5 C5             2.2006     1.6215    -0.4237 C.2     
   6 C6             1.0474     2.2997    -0.6731 C.2     
   7 C7             3.4651    -0.4131     0.0726 C.3     
   8 C8             4.5277     0.1836    -0.8622 C.3     
   9 N9             4.6330     1.6241    -0.5896 N.am    
  10 C10            3.4968     2.3346    -0.3921 C.2     
  11 C11            5.9421     2.2791    -0.5326 C.3     
  12 O12            1.0360    -1.6308    -0.0228 O.2     
  13 N13           -1.4323    -0.4130    -0.5159 N.pl3   
  14 C14           -2.2493    -0.5817    -1.6043 C.2     
  15 C15           -2.0233    -1.0511     0.5284 C.2     
  16 N16           -3.1425    -1.5787     0.1132 N.2     
  17 C17           -3.3060    -1.3062    -1.1902 C.2     
  18 C18           -4.4711    -1.7368    -2.0435 C.3     
  19 O19            3.5410     3.5333    -0.1935 O.2     
  20 C20            6.5979     2.2294    -1.9140 C.3     
  21 C21            5.6565     2.8353    -2.9784 C.3     
  22 C22            5.8799     1.9501    -4.2249 C.3     
  23 C23            6.9299     0.9140    -3.7661 C.3     
  24 O24            6.7917     0.8598    -2.3295 O.3     
  25 C25            6.6365    -0.4340    -4.3726 C.ar    
  26 C26            7.2202    -0.7928    -5.5730 C.ar    
  27 C27            5.7884    -1.3125    -3.7250 C.ar    
  28 C28            5.5178    -2.5514    -4.2808 C.ar    
  29 C29            6.0975    -2.9102    -5.4866 C.ar    
  30 C30            6.9516    -2.0309    -6.1315 C.ar    
  31 Cl31           5.7600    -4.4633    -6.1849 Cl      
  32 C32            6.8311     1.5548     0.4804 C.3     
  33 F33            7.5181    -2.3790    -7.3076 F       
  34 F34            4.6891    -3.4100    -3.6473 F       
  35 H35           -1.0925     2.1724    -0.9097 H       
  36 H36            1.0802     3.3652    -0.8468 H       
  37 H37            3.7552    -0.2513     1.1108 H       
  38 H38            3.3633    -1.4811    -0.1198 H       
  39 H39            5.4891    -0.2954    -0.6769 H       
  40 H40            4.2317     0.0279    -1.8997 H       
  41 H41            5.8157     3.3179    -0.2276 H       
  42 H42           -2.0781    -0.2056    -2.6022 H       
  43 H43           -1.6322    -1.1119     1.5332 H       
  44 H44           -5.2502    -0.9754    -2.0055 H       
  45 H45           -4.1390    -1.8657    -3.0736 H       
  46 H46           -4.8669    -2.6806    -1.6685 H       
  47 H47            7.5489     2.7619    -1.9012 H       
  48 H48            4.6192     2.7762    -2.6489 H       
  49 H49            5.9330     3.8684    -3.1891 H       
  50 H50            4.9530     1.4533    -4.5116 H       
  51 H51            6.2668     2.5455    -5.0518 H       
  52 H52            7.9324     1.2435    -4.0387 H       
  53 H53            7.8858    -0.1068    -6.0758 H       
  54 H54            5.3368    -1.0326    -2.7847 H       
  55 H55            6.3639     1.5903     1.4645 H       
  56 H56            6.9575     0.5160     0.1754 H       
  57 H57            7.8052     2.0422     0.5228 H       
@<TRIPOS>BOND
   1    1    2 2
   2    1    6 1
   3    1   35 1
   4    2    3 1
   5    2   13 1
   6    3    4 am
   7    3   12 2
   8    4    5 1
   9    4    7 1
  10    5    6 2
  11    5   10 1
  12    6   36 1
  13    7    8 1
  14    7   37 1
  15    7   38 1
  16    8    9 1
  17    8   39 1
  18    8   40 1
  19    9   10 am
  20    9   11 1
  21   10   19 2
  22   11   32 1
  23   11   20 1
  24   11   41 1
  25   13   14 1
  26   13   15 1
  27   14   17 2
  28   14   42 1
  29   15   16 2
  30   15   43 1
  31   16   17 1
  32   17   18 1
  33   18   44 1
  34   18   45 1
  35   18   46 1
  36   20   21 1
  37   20   24 1
  38   20   47 1
  39   21   22 1
  40   21   48 1
  41   21   49 1
  42   22   23 1
  43   22   50 1
  44   22   51 1
  45   23   24 1
  46   23   25 1
  47   23   52 1
  48   25   26 ar
  49   25   27 ar
  50   26   30 ar
  51   26   53 1
  52   27   28 ar
  53   27   54 1
  54   28   29 ar
  55   28   34 1
  56   29   30 ar
  57   29   31 1
  58   30   33 1
  59   32   55 1
  60   32   56 1
  61   32   57 1

#	End of record

