#	Name: ASD04590972
#	Creating user name:	WinNT
#	Creation time:	15. 06. 2019 20:51

#	Modifying user name:	WinNT
#	Modification time:	15. 06. 2019 20:51

#	Program:	/corina/corina34_cracker 3.40 0067  02.08.2006

@<TRIPOS>MOLECULE
ASD04590972
  63   68    0    0    0
SMALL
NO_CHARGES


@<TRIPOS>ATOM
   1 N1            -2.3784    -2.7059     0.0204 N.ar    
   2 C2            -1.2116    -2.0737     0.0041 C.ar    
   3 N3            -0.0575    -2.7200    -0.0183 N.ar    
   4 C4            -0.0259    -4.0495    -0.0253 C.ar    
   5 C5            -1.2483    -4.7504    -0.0085 C.ar    
   6 C6            -2.4371    -4.0272     0.0149 C.ar    
   7 N7             0.9981    -4.9637    -0.0469 N.pl3   
   8 C8             0.4952    -6.2533    -0.0449 C.ar    
   9 C9            -0.9090    -6.1790    -0.0211 C.ar    
  10 C10            1.0917    -7.5074    -0.0610 C.ar    
  11 N11            0.3555    -8.5999    -0.0545 N.ar    
  12 C12           -0.9652    -8.5646    -0.0324 C.ar    
  13 C13           -1.6433    -7.3644    -0.0143 C.ar    
  14 N14           -1.2019    -0.6887     0.0103 N.pl3   
  15 C15           -2.4017     0.0177    -0.0793 C.ar    
  16 N16           -3.5395    -0.6297    -0.2706 N.ar    
  17 N17           -4.6659    -0.0209    -0.3592 N.ar    
  18 C18           -4.7648     1.2954    -0.2650 C.ar    
  19 C19           -3.6187     2.0652    -0.0628 C.ar    
  20 C20           -2.4049     1.4080     0.0384 C.ar    
  21 N21           -6.0103     1.9112    -0.3680 N.3     
  22 C22            2.4226    -4.6223    -0.0694 C.3     
  23 C23           -6.2859     2.7418     0.8111 C.3     
  24 C24            2.8018    -3.7989     1.1818 C.3     
  25 C25            2.7339    -3.6760    -1.2500 C.3     
  26 C26            3.2973    -2.4525     0.6090 C.3     
  27 O27            2.6669    -2.3481    -0.6862 O.3     
  28 C28           -7.0722     0.9189    -0.5784 C.3     
  29 C29           -8.3999     1.6365    -0.8316 C.3     
  30 C30           -8.7339     2.5215     0.3725 C.3     
  31 C31           -7.5902     3.5139     0.5994 C.3     
  32 N32           -9.9779     3.2576     0.1107 N.3     
  33 C33          -10.3927     4.0271     1.2913 C.3     
  34 C34           -9.8365     4.1296    -1.0630 C.3     
  35 H35           -3.3899    -4.5354     0.0286 H       
  36 H36            2.1686    -7.5877    -0.0793 H       
  37 H37           -1.5219    -9.4901    -0.0284 H       
  38 H38           -2.7230    -7.3426     0.0044 H       
  39 H39           -0.3609    -0.2099     0.0769 H       
  40 H40           -3.6776     3.1407     0.0168 H       
  41 H41           -1.4871     1.9552     0.1954 H       
  42 H42            3.0298    -5.5254    -0.1307 H       
  43 H43           -6.3797     2.1045     1.6904 H       
  44 H44           -5.4670     3.4459     0.9588 H       
  45 H45            1.9294    -3.6458     1.8171 H       
  46 H46            3.5982    -4.2937     1.7377 H       
  47 H47            3.7323    -3.8725    -1.6408 H       
  48 H48            1.9881    -3.7924    -2.0364 H       
  49 H49            2.9844    -1.6289     1.2509 H       
  50 H50            4.3822    -2.4613     0.5035 H       
  51 H51           -6.8244     0.2989    -1.4399 H       
  52 H52           -7.1623     0.2901     0.3074 H       
  53 H53           -8.3148     2.2548    -1.7252 H       
  54 H54           -9.1908     0.8997    -0.9721 H       
  55 H55           -8.8575     1.8992     1.2588 H       
  56 H56           -7.8025     4.1184     1.4812 H       
  57 H57           -7.4923     4.1617    -0.2717 H       
  58 H58           -9.6120     4.7417     1.5519 H       
  59 H59          -11.3161     4.5624     1.0700 H       
  60 H60          -10.5578     3.3482     2.1279 H       
  61 H61           -9.5973     3.5252    -1.9380 H       
  62 H62          -10.7717     4.6627    -1.2343 H       
  63 H63           -9.0357     4.8479    -0.8877 H       
@<TRIPOS>BOND
   1    1    2 ar
   2    1    6 ar
   3    2    3 ar
   4    2   14 1
   5    3    4 ar
   6    4    5 ar
   7    4    7 1
   8    5    6 ar
   9    5    9 1
  10    6   35 1
  11    7    8 1
  12    7   22 1
  13    8    9 ar
  14    8   10 ar
  15    9   13 ar
  16   10   11 ar
  17   10   36 1
  18   11   12 ar
  19   12   13 ar
  20   12   37 1
  21   13   38 1
  22   14   15 1
  23   14   39 1
  24   15   16 ar
  25   15   20 ar
  26   16   17 ar
  27   17   18 ar
  28   18   19 ar
  29   18   21 1
  30   19   20 ar
  31   19   40 1
  32   20   41 1
  33   21   28 1
  34   21   23 1
  35   22   24 1
  36   22   25 1
  37   22   42 1
  38   23   31 1
  39   23   43 1
  40   23   44 1
  41   24   26 1
  42   24   45 1
  43   24   46 1
  44   25   27 1
  45   25   47 1
  46   25   48 1
  47   26   27 1
  48   26   49 1
  49   26   50 1
  50   28   29 1
  51   28   51 1
  52   28   52 1
  53   29   30 1
  54   29   53 1
  55   29   54 1
  56   30   31 1
  57   30   32 1
  58   30   55 1
  59   31   56 1
  60   31   57 1
  61   32   33 1
  62   32   34 1
  63   33   58 1
  64   33   59 1
  65   33   60 1
  66   34   61 1
  67   34   62 1
  68   34   63 1

#	End of record

