#	Name: ASD01916397
#	Creating user name:	WinNT
#	Creation time:	15. 06. 2019 20:07

#	Modifying user name:	WinNT
#	Modification time:	15. 06. 2019 20:07

#	Program:	/corina/corina34_cracker 3.40 0067  02.08.2006

@<TRIPOS>MOLECULE
ASD01916397
  38   40    0    0    0
SMALL
NO_CHARGES


@<TRIPOS>ATOM
   1 N1            -0.0169     1.3945     0.0097 N.pl3   
   2 N2             0.0021    -0.0041     0.0020 N.2     
   3 C3             1.2312    -0.4347    -0.0120 C.2     
   4 C4             2.1113     0.7294    -0.0142 C.ar    
   5 C5             3.5004     0.8986    -0.0272 C.ar    
   6 C6             4.0269     2.1576    -0.0261 C.ar    
   7 C7             3.1970     3.2721    -0.0118 C.ar    
   8 C8             1.8383     3.1325     0.0016 C.ar    
   9 C9             1.2720     1.8600    -0.0001 C.ar    
  10 C10           -1.2215     2.2281     0.0202 C.3     
  11 C11           -1.6334     2.5110     1.4663 C.3     
  12 C12           -2.8915     3.3816     1.4773 C.3     
  13 C13           -3.3034     3.6645     2.9234 C.3     
  14 C14           -4.5138     4.5021     2.9339 C.1     
  15 C15           -5.4792     5.1701     2.9423 C.1     
  16 C16           -6.6567     5.9849     2.9526 C.ar    
  17 C17           -7.2197     6.3727     4.1690 C.ar    
  18 C18           -8.3574     7.1600     4.1622 C.ar    
  19 C19           -8.8967     7.5350     2.9393 C.ar    
  20 C20           -8.2875     7.1152     1.7712 C.ar    
  21 N21           -7.2014     6.3702     1.8043 N.ar    
  22 H22            1.5433    -1.4685    -0.0200 H       
  23 H23            4.1522     0.0375    -0.0376 H       
  24 H24            5.0988     2.2890    -0.0362 H       
  25 H25            3.6316     4.2608    -0.0108 H       
  26 H26            1.2045     4.0069     0.0134 H       
  27 H27           -1.0165     3.1693    -0.4899 H       
  28 H28           -2.0294     1.7056    -0.4921 H       
  29 H29           -1.8384     1.5698     1.9764 H       
  30 H30           -0.8256     3.0335     1.9786 H       
  31 H31           -2.6865     4.3228     0.9671 H       
  32 H32           -3.6994     2.8591     0.9650 H       
  33 H33           -3.5084     2.7233     3.4335 H       
  34 H34           -2.4955     4.1870     3.4357 H       
  35 H35           -6.7740     6.0625     5.1025 H       
  36 H36           -8.8159     7.4755     5.0877 H       
  37 H37           -9.7844     8.1490     2.9005 H       
  38 H38           -8.7054     7.4054     0.8186 H       
@<TRIPOS>BOND
   1    1    2 1
   2    1    9 1
   3    1   10 1
   4    2    3 2
   5    3    4 1
   6    3   22 1
   7    4    5 ar
   8    4    9 ar
   9    5    6 ar
  10    5   23 1
  11    6    7 ar
  12    6   24 1
  13    7    8 ar
  14    7   25 1
  15    8    9 ar
  16    8   26 1
  17   10   11 1
  18   10   27 1
  19   10   28 1
  20   11   12 1
  21   11   29 1
  22   11   30 1
  23   12   13 1
  24   12   31 1
  25   12   32 1
  26   13   14 1
  27   13   33 1
  28   13   34 1
  29   14   15 3
  30   15   16 1
  31   16   17 ar
  32   16   21 ar
  33   17   18 ar
  34   17   35 1
  35   18   19 ar
  36   18   36 1
  37   19   20 ar
  38   19   37 1
  39   20   21 ar
  40   20   38 1

#	End of record

