#	Name: ASD01230399
#	Creating user name:	WinNT
#	Creation time:	15. 06. 2019 19:14

#	Modifying user name:	WinNT
#	Modification time:	15. 06. 2019 19:14

#	Program:	/corina/corina34_cracker 3.40 0067  02.08.2006

@<TRIPOS>MOLECULE
ASD01230399
  48   51    0    0    0
SMALL
NO_CHARGES


@<TRIPOS>ATOM
   1 S1             0.0839     1.7726     1.3245 S.o2    
   2 N2            -0.1017     0.2575     0.6860 N.am    
   3 C3             0.6450    -0.1837    -0.2971 C.2     
   4 N4             1.6436     0.5174    -0.9109 N.pl3   
   5 C5             1.9814     1.9076    -0.5945 C.3     
   6 C6             1.8086     2.1762     0.9031 C.3     
   7 C7             0.3603    -1.5594    -0.7579 C.2     
   8 C8             1.1316    -2.1038    -1.7616 C.2     
   9 C9             2.1629    -1.3353    -2.3187 C.2     
  10 C10            2.3931    -0.0814    -1.8930 C.2     
  11 C11            3.0241    -1.9219    -3.4075 C.3     
  12 C12           -0.7388    -2.3420    -0.1484 C.ar    
  13 C13           -0.4542    -3.4982     0.5791 C.ar    
  14 C14           -1.4803    -4.2242     1.1457 C.ar    
  15 C15           -2.7957    -3.8061     0.9929 C.ar    
  16 C16           -3.0828    -2.6562     0.2691 C.ar    
  17 C17           -2.0614    -1.9220    -0.2954 C.ar    
  18 O18           -3.8044    -4.5241     1.5526 O.3     
  19 C19           -4.3871    -5.4971     0.8035 C.ar    
  20 C20           -5.4900    -6.1818     1.2920 C.ar    
  21 C21           -6.0824    -7.1733     0.5267 C.ar    
  22 C22           -5.5704    -7.4795    -0.7284 C.ar    
  23 C23           -4.4706    -6.7950    -1.2128 C.ar    
  24 C24           -3.8824    -5.8017    -0.4523 C.ar    
  25 O25           -7.1632    -7.8463     1.0033 O.3     
  26 C26           -7.6354    -7.4794     2.3012 C.3     
  27 F27           -6.1468    -8.4464    -1.4754 F       
  28 O28           -0.8189     2.5847     0.5864 O.2     
  29 O29           -0.0636     1.5906     2.7260 O.2     
  30 H30            3.0167     2.0991    -0.8769 H       
  31 H31            1.3270     2.5735    -1.1570 H       
  32 H32            2.0075     3.2262     1.1176 H       
  33 H33            2.4883     1.5441     1.4746 H       
  34 H34            0.9445    -3.1076    -2.1135 H       
  35 H35            3.2002     0.4782    -2.3422 H       
  36 H36            2.6957    -2.9388    -3.6222 H       
  37 H37            2.9358    -1.3138    -4.3078 H       
  38 H38            4.0636    -1.9372    -3.0800 H       
  39 H39            0.5685    -3.8241     0.6980 H       
  40 H40           -1.2608    -5.1194     1.7086 H       
  41 H41           -4.1070    -2.3342     0.1521 H       
  42 H42           -2.2850    -1.0254    -0.8544 H       
  43 H43           -5.8863    -5.9427     2.2678 H       
  44 H44           -4.0733    -7.0341    -2.1882 H       
  45 H45           -3.0266    -5.2651    -0.8344 H       
  46 H46           -6.8445    -7.6389     3.0341 H       
  47 H47           -7.9225    -6.4279     2.2995 H       
  48 H48           -8.4994    -8.0915     2.5600 H       
@<TRIPOS>BOND
   1    1    2 am
   2    1    6 1
   3    1   28 2
   4    1   29 2
   5    2    3 2
   6    3    4 1
   7    3    7 1
   8    4    5 1
   9    4   10 1
  10    5    6 1
  11    5   30 1
  12    5   31 1
  13    6   32 1
  14    6   33 1
  15    7    8 2
  16    7   12 1
  17    8    9 1
  18    8   34 1
  19    9   10 2
  20    9   11 1
  21   10   35 1
  22   11   36 1
  23   11   37 1
  24   11   38 1
  25   12   13 ar
  26   12   17 ar
  27   13   14 ar
  28   13   39 1
  29   14   15 ar
  30   14   40 1
  31   15   16 ar
  32   15   18 1
  33   16   17 ar
  34   16   41 1
  35   17   42 1
  36   18   19 1
  37   19   20 ar
  38   19   24 ar
  39   20   21 ar
  40   20   43 1
  41   21   22 ar
  42   21   25 1
  43   22   23 ar
  44   22   27 1
  45   23   24 ar
  46   23   44 1
  47   24   45 1
  48   25   26 1
  49   26   46 1
  50   26   47 1
  51   26   48 1

#	End of record

