#	Name: ASD00240018
#	Creating user name:	WinNT
#	Creation time:	15. 06. 2019 18:33

#	Modifying user name:	WinNT
#	Modification time:	15. 06. 2019 18:33

#	Program:	/corina/corina34_cracker 3.40 0067  02.08.2006

@<TRIPOS>MOLECULE
ASD00240018
   8    7    0    0    0
SMALL
NO_CHARGES


@<TRIPOS>ATOM
   1 C1            -0.0144     1.2117     0.0087 C.2     
   2 O2             0.0021    -0.0041     0.0020 O.2     
   3 N3             1.1435     1.9014     0.0014 N.am    
   4 N4            -1.1906     1.8696     0.0179 N.am    
   5 H5             1.9900     1.4279    -0.0093 H       
   6 H6             1.1303     2.8713     0.0067 H       
   7 H7            -2.0240     1.3733     0.0191 H       
   8 H8            -1.2038     2.8395     0.0232 H       
@<TRIPOS>BOND
   1    1    2 2
   2    1    3 am
   3    1    4 am
   4    3    5 1
   5    3    6 1
   6    4    7 1
   7    4    8 1

#	End of record

