#	Name: ASD01148012
#	Creating user name:	WinNT
#	Creation time:	15. 06. 2019 19:01

#	Modifying user name:	WinNT
#	Modification time:	15. 06. 2019 19:01

#	Program:	/corina/corina34_cracker 3.40 0067  02.08.2006

@<TRIPOS>MOLECULE
ASD01148012
  31   31    0    0    0
SMALL
NO_CHARGES


@<TRIPOS>ATOM
   1 C1            -0.0184     1.5028     0.0103 C.2     
   2 C2             0.0021    -0.0041     0.0020 C.3     
   3 C3            -0.2550    -0.5098    -1.4189 C.3     
   4 O4             1.0236     2.1234     0.0037 O.2     
   5 N5            -1.1946     2.1607     0.0195 N.am    
   6 O6            -0.3515    -1.9355    -1.4069 O.3     
   7 C7            -0.5922    -2.5126    -2.6919 C.3     
   8 F8            -1.7975    -2.0216    -3.2052 F       
   9 F9             0.4544    -2.1769    -3.5574 F       
  10 C10           -1.2145     3.6256     0.0275 C.3     
  11 C11           -2.6419     4.1085     0.0369 C.ar    
  12 C12           -3.2910     4.3235     1.2383 C.ar    
  13 C13           -4.6004     4.7665     1.2470 C.ar    
  14 C14           -5.2606     4.9949     0.0541 C.ar    
  15 C15           -4.6113     4.7808    -1.1473 C.ar    
  16 C16           -3.3005     4.3419    -1.1559 C.ar    
  17 N17            1.3145    -0.4785     0.4607 N.3     
  18 H18           -0.7738    -0.3816     0.6680 H       
  19 H19           -1.1871    -0.0857    -1.7924 H       
  20 H20            0.5674    -0.2067    -2.0668 H       
  21 H21           -2.0280     1.6644     0.0207 H       
  22 H22           -0.6522    -3.5968    -2.5977 H       
  23 H23           -0.7014     3.9910     0.9171 H       
  24 H24           -0.7098     4.0007    -0.8628 H       
  25 H25           -2.7751     4.1451     2.1703 H       
  26 H26           -5.1077     4.9338     2.1856 H       
  27 H27           -6.2839     5.3403     0.0609 H       
  28 H28           -5.1273     4.9589    -2.0792 H       
  29 H29           -2.7920     4.1782    -2.0945 H       
  30 H30            1.3326    -1.4853     0.5256 H       
  31 H31            2.0512    -0.1417    -0.1409 H       
@<TRIPOS>BOND
   1    1    2 1
   2    1    4 2
   3    1    5 am
   4    2    3 1
   5    2   17 1
   6    2   18 1
   7    3    6 1
   8    3   19 1
   9    3   20 1
  10    5   10 1
  11    5   21 1
  12    6    7 1
  13    7    8 1
  14    7    9 1
  15    7   22 1
  16   10   11 1
  17   10   23 1
  18   10   24 1
  19   11   12 ar
  20   11   16 ar
  21   12   13 ar
  22   12   25 1
  23   13   14 ar
  24   13   26 1
  25   14   15 ar
  26   14   27 1
  27   15   16 ar
  28   15   28 1
  29   16   29 1
  30   17   30 1
  31   17   31 1

#	End of record

