#	Name: ASD05430003
#	Creating user name:	WinNT
#	Creation time:	15. 06. 2019 20:59

#	Modifying user name:	WinNT
#	Modification time:	15. 06. 2019 20:59

#	Program:	/corina/corina34_cracker 3.40 0067  02.08.2006

@<TRIPOS>MOLECULE
ASD05430003
  65   70    0    0    0
SMALL
NO_CHARGES


@<TRIPOS>ATOM
   1 C1            -0.0494     2.6369    -0.0525 C.ar    
   2 C2             0.1985     1.4292     0.5990 C.ar    
   3 C3            -0.8546     0.6883     1.1200 C.ar    
   4 C4            -2.1492     1.1432     0.9956 C.ar    
   5 C5            -2.4054     2.3539     0.3437 C.ar    
   6 C6            -1.3449     3.1024    -0.1757 C.ar    
   7 C7            -4.5679     0.4736    -0.1247 C.3     
   8 C8            -4.7993     1.9652     0.0651 C.2     
   9 C9            -3.7880     2.8413     0.2093 C.2     
  10 C10           -5.5121    -0.0309    -1.2132 C.3     
  11 C11           -6.9761     0.1453    -0.8184 C.3     
  12 N12           -7.2101     1.5316    -0.4232 N.pl3   
  13 C13           -6.2200     2.3810     0.0790 C.2     
  14 C14           -8.4413     2.3212    -0.4722 C.3     
  15 O15           -8.1574     3.4305     0.4063 O.3     
  16 N16           -6.7421     3.4702     0.5310 N.2     
  17 N17            1.5133     0.9615     0.7281 N.pl3   
  18 C18            2.1148     0.5288     1.8815 C.2     
  19 C19            3.3716     0.1711     1.5555 C.2     
  20 N20            3.5381     0.3777     0.2407 N.2     
  21 C21            2.4305     0.8459    -0.2671 C.2     
  22 C22           -8.7063     2.8070    -1.8739 C.ar    
  23 C23           -8.3679     2.0147    -2.9550 C.ar    
  24 C24           -9.2927     4.0423    -2.0775 C.ar    
  25 C25           -9.5370     4.4885    -3.3624 C.ar    
  26 C26           -9.1937     3.6980    -4.4461 C.ar    
  27 C27           -8.6108     2.4590    -4.2409 C.ar    
  28 F28           -9.4320     4.1332    -5.7027 F       
  29 C29           -9.6261     1.5071     0.0517 C.3     
  30 O30            0.9837     3.3592    -0.5617 O.3     
  31 C31            4.4114    -0.3674     2.5041 C.3     
  32 C32            0.6567     4.5866    -1.2163 C.3     
  33 C33           -5.2275     0.6891    -2.5402 C.3     
  34 O34           -4.7700    -0.3063    -3.4729 O.3     
  35 C35           -5.3333    -1.5683    -3.0536 C.3     
  36 C36           -5.2244    -1.5188    -1.5072 C.3     
  37 H37           -0.6582    -0.2467     1.6236 H       
  38 H38           -2.9662     0.5648     1.4010 H       
  39 H39           -1.5383     4.0379    -0.6794 H       
  40 H40           -3.5351     0.2990    -0.4264 H       
  41 H41           -4.7727    -0.0502     0.8090 H       
  42 H42           -3.9907     3.9020     0.2263 H       
  43 H43           -7.6137    -0.1033    -1.6668 H       
  44 H44           -7.2091    -0.5149     0.0170 H       
  45 H45            1.6670     0.4839     2.8632 H       
  46 H46            2.2720     1.1043    -1.3037 H       
  47 H47           -7.9132     1.0483    -2.7947 H       
  48 H48           -9.5604     4.6587    -1.2320 H       
  49 H49           -9.9958     5.4532    -3.5212 H       
  50 H50           -8.3423     1.8417    -5.0855 H       
  51 H51           -9.4367     1.2129     1.0840 H       
  52 H52          -10.5313     2.1126     0.0066 H       
  53 H53           -9.7543     0.6157    -0.5624 H       
  54 H54            4.3402    -1.4544     2.5422 H       
  55 H55            5.4037    -0.0802     2.1566 H       
  56 H56            4.2422     0.0430     3.4996 H       
  57 H57            1.5699     5.0617    -1.5748 H       
  58 H58           -0.0028     4.3839    -2.0601 H       
  59 H59            0.1536     5.2505    -0.5133 H       
  60 H60           -6.1398     1.1551    -2.9126 H       
  61 H61           -4.4550     1.4441    -2.3945 H       
  62 H62           -6.3758    -1.6448    -3.3626 H       
  63 H63           -4.7519    -2.3995    -3.4527 H       
  64 H64           -4.2223    -1.7941    -1.1784 H       
  65 H65           -5.9745    -2.1594    -1.0434 H       
@<TRIPOS>BOND
   1    1    2 ar
   2    1   30 1
   3    1    6 ar
   4    2    3 ar
   5    2   17 1
   6    3    4 ar
   7    3   37 1
   8    4    5 ar
   9    4   38 1
  10    5    6 ar
  11    5    9 1
  12    6   39 1
  13    7    8 1
  14    7   10 1
  15    7   40 1
  16    7   41 1
  17    8    9 2
  18    8   13 1
  19    9   42 1
  20   10   11 1
  21   10   33 1
  22   10   36 1
  23   11   12 1
  24   11   43 1
  25   11   44 1
  26   12   13 1
  27   12   14 1
  28   13   16 2
  29   14   15 1
  30   14   22 1
  31   14   29 1
  32   15   16 1
  33   17   18 1
  34   17   21 1
  35   18   19 2
  36   18   45 1
  37   19   20 1
  38   19   31 1
  39   20   21 2
  40   21   46 1
  41   22   23 ar
  42   22   24 ar
  43   23   27 ar
  44   23   47 1
  45   24   25 ar
  46   24   48 1
  47   25   26 ar
  48   25   49 1
  49   26   27 ar
  50   26   28 1
  51   27   50 1
  52   29   51 1
  53   29   52 1
  54   29   53 1
  55   30   32 1
  56   31   54 1
  57   31   55 1
  58   31   56 1
  59   32   57 1
  60   32   58 1
  61   32   59 1
  62   33   34 1
  63   33   60 1
  64   33   61 1
  65   34   35 1
  66   35   36 1
  67   35   62 1
  68   35   63 1
  69   36   64 1
  70   36   65 1

#	End of record

