#	Name: ASD01912405
#	Creating user name:	WinNT
#	Creation time:	15. 06. 2019 19:59

#	Modifying user name:	WinNT
#	Modification time:	15. 06. 2019 19:59

#	Program:	/corina/corina34_cracker 3.40 0067  02.08.2006

@<TRIPOS>MOLECULE
ASD01912405
  48   50    0    0    0
SMALL
NO_CHARGES


@<TRIPOS>ATOM
   1 C1            -0.0027     1.4095    -0.0607 C.ar    
   2 C2             0.2513     0.5645     1.0151 C.ar    
   3 C3             1.4493    -0.1250     1.0605 C.ar    
   4 C4             2.3569     0.0543     0.0247 C.ar    
   5 C5             2.0396     0.9085    -1.0119 C.ar    
   6 N6             0.8885     1.5537    -1.0291 N.ar    
   7 N7            -0.6625     0.4193     2.0050 N.pl3   
   8 O8            -0.4772    -0.3967     2.8901 O.2     
   9 O9            -1.6693     1.1049     2.0098 O.2     
  10 C10            3.0204     1.1071    -2.1388 C.3     
  11 N11           -1.2051     2.1042    -0.1220 N.3     
  12 C12           -0.9814     3.5526    -0.0301 C.3     
  13 C13           -2.3288     4.2744     0.0457 C.3     
  14 C14           -3.1501     3.9442    -1.2037 C.3     
  15 C15           -3.3275     2.4265    -1.3019 C.3     
  16 C16           -1.9512     1.7582    -1.3386 C.3     
  17 C17           -4.5222     4.6140    -1.1053 C.3     
  18 C18           -5.3108     4.2959    -2.3068 C.1     
  19 C19           -5.9398     4.0421    -3.2651 C.1     
  20 C20           -6.7070     3.7326    -4.4340 C.ar    
  21 C21           -8.0008     4.2381    -4.5669 C.ar    
  22 C22           -8.7291     3.9300    -5.7020 C.ar    
  23 C23           -8.1413     3.1261    -6.6691 C.ar    
  24 C24           -6.8547     2.6591    -6.4731 C.ar    
  25 N25           -6.1797     2.9711    -5.3857 N.ar    
  26 C26           -6.2136     1.7857    -7.5207 C.3     
  27 F27           -5.1909     4.1428     0.0296 F       
  28 H28            1.6742    -0.7876     1.8832 H       
  29 H29            3.3015    -0.4692     0.0304 H       
  30 H30            2.8270     0.3743    -2.9222 H       
  31 H31            2.9079     2.1121    -2.5455 H       
  32 H32            4.0357     0.9785    -1.7636 H       
  33 H33           -0.3999     3.7742     0.8647 H       
  34 H34           -0.4363     3.8925    -0.9107 H       
  35 H35           -2.8685     3.9452     0.9335 H       
  36 H36           -2.1627     5.3504     0.0981 H       
  37 H37           -2.6288     4.3080    -2.0891 H       
  38 H38           -3.8830     2.0682    -0.4352 H       
  39 H39           -3.8750     2.1822    -2.2122 H       
  40 H40           -1.4016     2.1065    -2.2131 H       
  41 H41           -2.0740     0.6766    -1.3941 H       
  42 H42           -4.3947     5.6939    -1.0298 H       
  43 H43           -8.4276     4.8607    -3.7944 H       
  44 H44           -9.7330     4.3064    -5.8328 H       
  45 H45           -8.6841     2.8675    -7.5662 H       
  46 H46           -5.6847     2.4104    -8.2405 H       
  47 H47           -5.5089     1.1043    -7.0440 H       
  48 H48           -6.9836     1.2108    -8.0352 H       
@<TRIPOS>BOND
   1    1    2 ar
   2    1    6 ar
   3    1   11 1
   4    2    3 ar
   5    2    7 1
   6    3    4 ar
   7    3   28 1
   8    4    5 ar
   9    4   29 1
  10    5    6 ar
  11    5   10 1
  12    7    8 2
  13    7    9 2
  14   10   30 1
  15   10   31 1
  16   10   32 1
  17   11   12 1
  18   11   16 1
  19   12   13 1
  20   12   33 1
  21   12   34 1
  22   13   14 1
  23   13   35 1
  24   13   36 1
  25   14   15 1
  26   14   17 1
  27   14   37 1
  28   15   16 1
  29   15   38 1
  30   15   39 1
  31   16   40 1
  32   16   41 1
  33   17   18 1
  34   17   27 1
  35   17   42 1
  36   18   19 3
  37   19   20 1
  38   20   21 ar
  39   20   25 ar
  40   21   22 ar
  41   21   43 1
  42   22   23 ar
  43   22   44 1
  44   23   24 ar
  45   23   45 1
  46   24   25 ar
  47   24   26 1
  48   26   46 1
  49   26   47 1
  50   26   48 1

#	End of record

