#	Name: ASD00460046
#	Creating user name:	WinNT
#	Creation time:	15. 06. 2019 18:36

#	Modifying user name:	WinNT
#	Modification time:	15. 06. 2019 18:36

#	Program:	/corina/corina34_cracker 3.40 0067  02.08.2006

@<TRIPOS>MOLECULE
ASD00460046
  66   69    0    0    0
SMALL
NO_CHARGES


@<TRIPOS>ATOM
   1 C1             0.0991     1.4008    -0.9314 C.ar    
   2 C2             0.1203     0.0087    -0.9569 C.ar    
   3 C3             1.2844    -0.6781    -0.6689 C.ar    
   4 C4             2.4405     0.0352    -0.3517 C.ar    
   5 C5             2.4145     1.4437    -0.3272 C.ar    
   6 C6             1.2362     2.1158    -0.6192 C.ar    
   7 C7             3.7067    -0.6404    -0.0363 C.2     
   8 N8             4.7631     0.1026     0.2559 N.2     
   9 C9             4.7028     1.4350     0.2697 C.2     
  10 N10            3.5783     2.1185    -0.0085 N.am    
  11 C11            3.5868     3.5831     0.0263 C.3     
  12 C12            3.9484     4.1158    -1.3362 C.ar    
  13 C13            2.9546     4.3735    -2.2620 C.ar    
  14 C14            3.2854     4.8634    -3.5153 C.ar    
  15 C15            4.6188     5.0948    -3.8387 C.ar    
  16 C16            5.6101     4.8344    -2.9062 C.ar    
  17 C17            5.2728     4.3511    -1.6557 C.ar    
  18 O18            5.7112     2.0608     0.5472 O.2     
  19 C19            3.7989    -2.1156    -0.0445 C.ar    
  20 C20            3.1425    -2.8539    -1.0316 C.ar    
  21 C21            4.5475    -2.7770     0.9313 C.ar    
  22 C22            4.6297    -4.1538     0.9174 C.ar    
  23 C23            3.9728    -4.8795    -0.0607 C.ar    
  24 C24            3.2332    -4.2302    -1.0336 C.ar    
  25 C25            4.0681    -6.3834    -0.0700 C.3     
  26 C26            2.6681    -6.9840     0.0717 C.3     
  27 C27            4.6909    -6.8469    -1.3884 C.3     
  28 O28           -1.0110    -0.6789    -1.2665 O.3     
  29 C29           -2.1801     0.0911    -1.5535 C.3     
  30 C30           -3.2990    -0.8132    -1.8647 C.1     
  31 C31           -4.1915    -1.5345    -2.1130 C.1     
  32 O32            4.9485     5.5751    -5.0676 O.3     
  33 C33            6.3370     5.7885    -5.3296 C.3     
  34 O34            2.3090     5.1170    -4.4273 O.3     
  35 C35            0.0123     5.1985    -5.1749 C.3     
  36 C36            0.9626     4.8553    -4.0261 C.3     
  37 H37           -0.8158     1.9259    -1.1628 H       
  38 H38            1.2989    -1.7578    -0.6888 H       
  39 H39            1.2098     3.1953    -0.6024 H       
  40 H40            2.5981     3.9456     0.3075 H       
  41 H41            4.3204     3.9249     0.7565 H       
  42 H42            1.9204     4.1927    -2.0086 H       
  43 H43            6.6458     5.0131    -3.1547 H       
  44 H44            6.0463     4.1485    -0.9297 H       
  45 H45            2.5650    -2.3484    -1.7914 H       
  46 H46            5.0612    -2.2117     1.6949 H       
  47 H47            5.2083    -4.6666     1.6715 H       
  48 H48            2.7227    -4.8027    -1.7939 H       
  49 H49            4.6908    -6.7132     0.7617 H       
  50 H50            2.0454    -6.6542    -0.7600 H       
  51 H51            2.7369    -8.0718     0.0650 H       
  52 H52            2.2244    -6.6538     1.0109 H       
  53 H53            5.6883    -6.4190    -1.4893 H       
  54 H54            4.7598    -7.9347    -1.3951 H       
  55 H55            4.0682    -6.5171    -2.2201 H       
  56 H56           -2.4357     0.7004    -0.6866 H       
  57 H57           -1.9876     0.7388    -2.4088 H       
  58 H58           -4.9896    -2.1796    -2.3350 H       
  59 H59            6.4609     6.1719    -6.3424 H       
  60 H60            6.7345     6.5108    -4.6166 H       
  61 H61            6.8747     4.8457    -5.2298 H       
  62 H62            0.1168     6.2529    -5.4304 H       
  63 H63            0.2575     4.5880    -6.0440 H       
  64 H64           -1.0147     4.9989    -4.8689 H       
  65 H65            0.8581     3.8009    -3.7706 H       
  66 H66            0.7173     5.4658    -3.1570 H       
@<TRIPOS>BOND
   1    1    2 ar
   2    1    6 ar
   3    1   37 1
   4    2    3 ar
   5    2   28 1
   6    3    4 ar
   7    3   38 1
   8    4    5 ar
   9    4    7 1
  10    5    6 ar
  11    5   10 1
  12    6   39 1
  13    7    8 2
  14    7   19 1
  15    8    9 1
  16    9   10 am
  17    9   18 2
  18   10   11 1
  19   11   12 1
  20   11   40 1
  21   11   41 1
  22   12   13 ar
  23   12   17 ar
  24   13   14 ar
  25   13   42 1
  26   14   15 ar
  27   14   34 1
  28   15   16 ar
  29   15   32 1
  30   16   17 ar
  31   16   43 1
  32   17   44 1
  33   19   20 ar
  34   19   21 ar
  35   20   24 ar
  36   20   45 1
  37   21   22 ar
  38   21   46 1
  39   22   23 ar
  40   22   47 1
  41   23   24 ar
  42   23   25 1
  43   24   48 1
  44   25   26 1
  45   25   27 1
  46   25   49 1
  47   26   50 1
  48   26   51 1
  49   26   52 1
  50   27   53 1
  51   27   54 1
  52   27   55 1
  53   28   29 1
  54   29   30 1
  55   29   56 1
  56   29   57 1
  57   30   31 3
  58   31   58 1
  59   32   33 1
  60   33   59 1
  61   33   60 1
  62   33   61 1
  63   34   36 1
  64   35   36 1
  65   35   62 1
  66   35   63 1
  67   35   64 1
  68   36   65 1
  69   36   66 1

#	End of record

