#	Name: ASD00731037
#	Creating user name:	WinNT
#	Creation time:	15. 06. 2019 18:37

#	Modifying user name:	WinNT
#	Modification time:	15. 06. 2019 18:37

#	Program:	/corina/corina34_cracker 3.40 0067  02.08.2006

@<TRIPOS>MOLECULE
ASD00731037
 251  252    0    0    0
SMALL
NO_CHARGES


@<TRIPOS>ATOM
   1 C1            -1.8766    -2.2957    -3.4473 C.2     
   2 O2            -2.3432    -2.7448    -4.4728 O.2     
   3 N3             0.2596    -3.0337    -4.3310 N.am    
   4 C4            -0.3928    -2.3753    -3.1965 C.3     
   5 C5            -4.7038    -0.4849    -2.0013 C.2     
   6 O6            -3.9823     0.2002    -1.3079 O.2     
   7 N7            -2.6845    -1.7206    -2.5346 N.am    
   8 C8            -4.1262    -1.6379    -2.7811 C.3     
   9 C9            -4.7952    -2.9402    -2.3368 C.3     
  10 O10           -4.6614    -3.0856    -0.9216 O.3     
  11 C11           -8.0466     0.6534    -1.0562 C.2     
  12 O12           -8.5687    -0.3626    -1.4638 O.2     
  13 N13           -6.0223    -0.2152    -2.0745 N.am    
  14 C14           -6.5838     0.9056    -1.3164 C.3     
  15 C15           -6.4243     2.1968    -2.1216 C.3     
  16 C16           -4.9524     2.3879    -2.4927 C.3     
  17 O17           -7.2092     2.1152    -3.3130 O.3     
  18 C18          -10.9394     1.9930    -1.3769 C.2     
  19 O19          -10.3093     2.5455    -2.2535 O.2     
  20 N20           -8.7747     1.5568    -0.3705 N.am    
  21 C21          -10.2185     1.3655    -0.2117 C.3     
  22 C22          -10.6803     2.0254     1.0891 C.3     
  23 C23          -10.0753     1.2995     2.2630 C.2     
  24 O24           -9.2821     0.4070     2.0779 O.2     
  25 O25          -10.4175     1.6445     3.5143 O.3     
  26 C26          -14.3894     2.9097    -2.1646 C.2     
  27 O27          -14.7674     2.6791    -1.0355 O.2     
  28 N28          -12.2844     1.9401    -1.4447 N.am    
  29 C29          -12.9853     2.5501    -2.5773 C.3     
  30 C30          -13.0341     1.5580    -3.7411 C.3     
  31 C31          -11.6135     1.2887    -4.2416 C.3     
  32 C32          -11.6623     0.2967    -5.4053 C.3     
  33 N33          -10.3021     0.0388    -5.8845 N.pl3   
  34 C34          -10.0949    -0.8269    -6.9322 C.2     
  35 N35          -11.1087    -1.4183    -7.4992 N.2     
  36 N36           -8.8185    -1.0689    -7.3819 N.pl3   
  37 C37          -17.5036     3.8803    -3.7869 C.2     
  38 O38          -17.0732     3.8624    -4.9206 O.2     
  39 N39          -15.2250     3.4875    -3.0502 N.am    
  40 C40          -16.5514     3.9368    -2.6202 C.3     
  41 C41          -16.4606     5.3747    -2.1053 C.3     
  42 C42          -17.8087     5.7903    -1.5128 C.3     
  43 C43          -18.0929     4.9596    -0.2597 C.3     
  44 C44          -17.7672     7.2742    -1.1424 C.3     
  45 C45          -21.0958     4.2692    -4.3419 C.2     
  46 O46          -21.2648     4.7815    -3.2557 O.2     
  47 N47          -18.8335     3.8495    -3.5705 N.am    
  48 C48          -19.7552     3.6792    -4.6964 C.3     
  49 C49          -19.9184     2.1887    -5.0009 C.3     
  50 C50          -18.5828     1.6170    -5.4810 C.3     
  51 C51          -18.7460     0.1265    -5.7854 C.3     
  52 N52          -17.4672    -0.4209    -6.2451 N.pl3   
  53 C53          -17.3693    -1.7507    -6.5800 C.2     
  54 N54          -16.2316    -2.2377    -6.9890 N.2     
  55 N55          -18.4715    -2.5668    -6.4835 N.pl3   
  56 C56          -24.4856     4.1310    -5.7032 C.2     
  57 O57          -24.1923     3.2600    -6.4946 O.2     
  58 N58          -22.1070     4.2275    -5.2320 N.am    
  59 C59          -23.4103     4.8011    -4.8874 C.3     
  60 C60          -23.4027     6.3013    -5.1875 C.3     
  61 C61          -22.3975     7.0000    -4.2697 C.3     
  62 C62          -22.3899     8.5002    -4.5699 C.3     
  63 C63          -21.3847     9.1989    -3.6521 C.3     
  64 N64          -21.3774    10.6393    -3.9403 N.3     
  65 C65          -27.9989     4.7755    -6.4806 C.2     
  66 O66          -27.9697     5.8726    -5.9645 O.2     
  67 N67          -25.7733     4.4995    -5.5534 N.am    
  68 C68          -26.8187     3.8481    -6.3466 C.3     
  69 C69          -27.2593     2.5594    -5.6494 C.3     
  70 C70          -26.1112     1.5836    -5.6249 C.2     
  71 C71          -25.8774     0.6033    -6.5116 C.2     
  72 N72          -24.7425    -0.0782    -6.1653 N.pl3   
  73 C73          -24.2045     0.4608    -5.0182 C.ar    
  74 C74          -23.0828     0.1592    -4.2531 C.ar    
  75 C75          -22.8017     0.9031    -3.1279 C.ar    
  76 C76          -23.6272     1.9523    -2.7485 C.ar    
  77 C77          -24.7347     2.2656    -3.4853 C.ar    
  78 C78          -25.0350     1.5292    -4.6325 C.ar    
  79 C79          -31.4830     4.4794    -7.5466 C.2     
  80 O80          -31.4208     3.2696    -7.6046 O.2     
  81 N81          -29.0869     4.3858    -7.1741 N.am    
  82 C82          -30.2342     5.2874    -7.3045 C.3     
  83 C83          -30.0051     6.2374    -8.4817 C.3     
  84 C84          -28.8101     7.1440    -8.1804 C.3     
  85 S85          -28.5385     8.2704    -9.5761 S.3     
  86 C86          -27.1067     9.2466    -9.0400 C.3     
  87 C87          -34.8984     5.1643    -8.6554 C.2     
  88 O88          -34.6339     6.3122    -8.9444 O.2     
  89 N89          -32.6690     5.1013    -7.6987 N.am    
  90 C90          -33.8831     4.3158    -7.9341 C.3     
  91 C91          -34.4615     3.8570    -6.5940 C.3     
  92 C92          -37.8674     6.2834    -8.6781 C.2     
  93 O93          -37.6240     6.1826    -7.4989 O.2     
  94 N94          -36.1003     4.6477    -8.9794 N.am    
  95 C95          -37.0873     5.4725    -9.6805 C.3     
  96 C96          -38.0441     4.5695   -10.4615 C.3     
  97 C97          -38.9962     5.4325   -11.2920 C.3     
  98 C98          -39.8695     4.5311   -12.1670 C.3     
  99 C99          -38.8525     3.7155    -9.4827 C.3     
 100 O100         -38.8328     7.1176    -9.0951 O.3     
 101 C101           1.5949    -3.2164    -4.3272 C.2     
 102 O102           2.2564    -2.8358    -3.3846 O.2     
 103 C103          17.5812    -9.2723   -12.0055 C.3     
 104 C104          16.8998    -8.5847   -10.8207 C.3     
 105 C105          15.3933    -8.5039   -11.0753 C.3     
 106 C106          14.7119    -7.8163    -9.8905 C.3     
 107 C107          13.2054    -7.7356   -10.1451 C.3     
 108 C108          12.5240    -7.0480    -8.9603 C.3     
 109 C109          11.0176    -6.9672    -9.2150 C.3     
 110 C110          10.3362    -6.2796    -8.0301 C.3     
 111 C111           8.8297    -6.1988    -8.2848 C.3     
 112 C112           8.1483    -5.5112    -7.0999 C.3     
 113 C113           6.6418    -5.4304    -7.3546 C.3     
 114 C114           5.9604    -4.7428    -6.1698 C.3     
 115 C115           4.4539    -4.6621    -6.4244 C.3     
 116 C116           3.7726    -3.9745    -5.2396 C.3     
 117 C117           2.2661    -3.8937    -5.4942 C.3     
 118 H118          -0.2694    -3.3381    -5.0849 H       
 119 H119           0.0103    -1.3694    -3.0793 H       
 120 H120          -0.2081    -2.9489    -2.2882 H       
 121 H121          -2.3113    -1.3614    -1.7144 H       
 122 H122          -4.3045    -1.4824    -3.8452 H       
 123 H123          -5.8523    -2.9141    -2.6011 H       
 124 H124          -4.3166    -3.7830    -2.8356 H       
 125 H125          -5.0635    -3.8914    -0.5693 H       
 126 H126          -6.5994    -0.7631    -2.6291 H       
 127 H127          -6.0573     1.0022    -0.3669 H       
 128 H128          -6.7607     3.0427    -1.5221 H       
 129 H129          -4.6161     1.5419    -3.0922 H       
 130 H130          -4.8388     3.3077    -3.0664 H       
 131 H131          -4.3537     2.4501    -1.5840 H       
 132 H132          -6.9646     1.3834    -3.8958 H       
 133 H133          -8.3428     2.3336     0.0180 H       
 134 H134         -10.4421     0.2993    -0.1776 H       
 135 H135         -10.3600     3.0672     1.1017 H       
 136 H136         -11.7674     1.9787     1.1541 H       
 137 H137         -10.0032     1.1502     4.2348 H       
 138 H138         -12.7884     1.4982    -0.7435 H       
 139 H139         -12.4565     3.4506    -2.8895 H       
 140 H140         -13.4836     0.6241    -3.4037 H       
 141 H141         -13.6313     1.9770    -4.5509 H       
 142 H142         -11.1640     2.2227    -4.5789 H       
 143 H143         -11.0163     0.8698    -3.4317 H       
 144 H144         -12.1118    -0.6373    -5.0680 H       
 145 H145         -12.2595     0.7157    -6.2151 H       
 146 H146          -9.5476     0.4790    -5.4626 H       
 147 H147         -10.9626    -2.0292    -8.2384 H       
 148 H148          -8.0640    -0.6288    -6.9600 H       
 149 H149          -8.6723    -1.6797    -8.1211 H       
 150 H150         -14.9482     3.6058    -3.9723 H       
 151 H151         -16.9143     3.2877    -1.8233 H       
 152 H152         -15.6909     5.4372    -1.3360 H       
 153 H153         -16.2053     6.0405    -2.9297 H       
 154 H154         -18.5960     5.6210    -2.2472 H       
 155 H155         -18.2155     3.9129    -0.5378 H       
 156 H156         -17.2596     5.0554     0.4364 H       
 157 H157         -19.0060     5.3188     0.2149 H       
 158 H158         -17.5647     7.8660    -2.0351 H       
 159 H159         -18.7276     7.5703    -0.7203 H       
 160 H160         -16.9798     7.4435    -0.4079 H       
 161 H161         -19.1804     3.9402    -2.6692 H       
 162 H162         -19.3550     4.1875    -5.5737 H       
 163 H163         -20.2339     1.6658    -4.0980 H       
 164 H164         -20.6706     2.0570    -5.7787 H       
 165 H165         -18.2673     2.1399    -6.3838 H       
 166 H166         -17.8306     1.7487    -4.7032 H       
 167 H167         -19.0615    -0.3963    -4.8825 H       
 168 H168         -19.4982    -0.0052    -6.5632 H       
 169 H169         -16.6896     0.1549    -6.3131 H       
 170 H170         -16.1625    -3.1759    -7.2253 H       
 171 H171         -19.3182    -2.2044    -6.1792 H       
 172 H172         -18.4025    -3.5050    -6.7198 H       
 173 H173         -21.9719     3.8177    -6.1007 H       
 174 H174         -23.6076     4.6437    -3.8270 H       
 175 H175         -23.1182     6.4623    -6.2274 H       
 176 H176         -24.3979     6.7113    -5.0154 H       
 177 H177         -22.6820     6.8389    -3.2299 H       
 178 H178         -21.4023     6.5900    -4.4418 H       
 179 H179         -22.1054     8.6613    -5.6097 H       
 180 H180         -23.3851     8.9102    -4.3978 H       
 181 H181         -21.6692     9.0379    -2.6123 H       
 182 H182         -20.3896     8.7889    -3.8242 H       
 183 H183         -20.7209    11.1236    -3.3466 H       
 184 H184         -21.1796    10.8122    -4.9145 H       
 185 H185         -26.0080     5.1961    -4.9205 H       
 186 H186         -26.4289     3.6106    -7.3364 H       
 187 H187         -27.5660     2.7854    -4.6281 H       
 188 H188         -28.0971     2.1211    -6.1917 H       
 189 H189         -26.4940     0.3845    -7.3708 H       
 190 H190         -24.3721    -0.8291    -6.6551 H       
 191 H191         -22.4345    -0.6556    -4.5399 H       
 192 H192         -21.9304     0.6671    -2.5349 H       
 193 H193         -23.3927     2.5255    -1.8637 H       
 194 H194         -25.3728     3.0832    -3.1838 H       
 195 H195         -29.1102     3.5083    -7.5870 H       
 196 H196         -30.3477     5.8658    -6.3876 H       
 197 H197         -29.8034     5.6577    -9.3824 H       
 198 H198         -30.8951     6.8480    -8.6343 H       
 199 H199         -29.0118     7.7237    -7.2796 H       
 200 H200         -27.9202     6.5334    -8.0277 H       
 201 H201         -26.8492     9.9694    -9.8143 H       
 202 H202         -27.3510     9.7737    -8.1178 H       
 203 H203         -26.2594     8.5834    -8.8659 H       
 204 H204         -32.7188     6.0689    -7.6523 H       
 205 H205         -33.6399     3.4445    -8.5423 H       
 206 H206         -34.7047     4.7283    -5.9859 H       
 207 H207         -35.3648     3.2726    -6.7692 H       
 208 H208         -33.7272     3.2433    -6.0723 H       
 209 H209         -36.3118     3.7297    -8.7482 H       
 210 H210         -36.5756     6.1431   -10.3710 H       
 211 H211         -37.4717     3.9199   -11.1235 H       
 212 H212         -39.6306     6.0175   -10.6261 H       
 213 H213         -38.4179     6.1045   -11.9261 H       
 214 H214         -39.2351     3.9461   -12.8329 H       
 215 H215         -40.4479     3.8592   -11.5329 H       
 216 H216         -40.5478     5.1459   -12.7587 H       
 217 H217         -39.4250     4.3652    -8.8207 H       
 218 H218         -39.5342     3.0722   -10.0391 H       
 219 H219         -38.1742     3.1007    -8.8910 H       
 220 H220         -39.3058     7.6166    -8.4152 H       
 221 H221          17.1780   -10.2782   -12.1227 H       
 222 H222          17.3964    -8.6987   -12.9138 H       
 223 H223          18.6544    -9.3298   -11.8241 H       
 224 H224          17.0845    -9.1583    -9.9124 H       
 225 H225          17.3029    -7.5788   -10.7034 H       
 226 H226          15.2086    -7.9303   -11.9836 H       
 227 H227          14.9902    -9.5098   -11.1925 H       
 228 H228          14.8966    -8.3899    -8.9822 H       
 229 H229          15.1150    -6.8104    -9.7733 H       
 230 H230          13.0207    -7.1620   -11.0534 H       
 231 H231          12.8023    -8.7415   -10.2624 H       
 232 H232          12.7088    -7.6215    -8.0520 H       
 233 H233          12.9272    -6.0420    -8.8431 H       
 234 H234          10.8328    -6.3936   -10.1232 H       
 235 H235          10.6144    -7.9731    -9.3322 H       
 236 H236          10.5209    -6.8532    -7.1218 H       
 237 H237          10.7393    -5.2737    -7.9129 H       
 238 H238           8.6450    -5.6252    -9.1931 H       
 239 H239           8.4266    -7.2047    -8.4020 H       
 240 H240           8.3330    -6.0848    -6.1917 H       
 241 H241           8.5514    -4.5053    -6.9827 H       
 242 H242           6.4571    -4.8569    -8.2629 H       
 243 H243           6.2387    -6.4363    -7.4718 H       
 244 H244           6.1452    -5.3164    -5.2615 H       
 245 H245           6.3636    -3.7369    -6.0525 H       
 246 H246           4.2692    -4.0885    -7.3327 H       
 247 H247           4.0508    -5.6680    -6.5417 H       
 248 H248           3.9573    -4.5480    -4.3313 H       
 249 H249           4.1757    -2.9685    -5.1224 H       
 250 H250           1.8630    -4.8996    -5.6115 H       
 251 H251           2.0814    -3.3201    -6.4025 H       
@<TRIPOS>BOND
   1    1    2 2
   2    1    4 1
   3    1    7 am
   4    3    4 1
   5    3  101 am
   6    3  118 1
   7    4  119 1
   8    4  120 1
   9    5    6 2
  10    5    8 1
  11    5   13 am
  12    7    8 1
  13    7  121 1
  14    8    9 1
  15    8  122 1
  16    9   10 1
  17    9  123 1
  18    9  124 1
  19   10  125 1
  20   11   12 2
  21   11   14 1
  22   11   20 am
  23   13   14 1
  24   13  126 1
  25   14   15 1
  26   14  127 1
  27   15   16 1
  28   15   17 1
  29   15  128 1
  30   16  129 1
  31   16  130 1
  32   16  131 1
  33   17  132 1
  34   18   19 2
  35   18   21 1
  36   18   28 am
  37   20   21 1
  38   20  133 1
  39   21   22 1
  40   21  134 1
  41   22   23 1
  42   22  135 1
  43   22  136 1
  44   23   24 2
  45   23   25 1
  46   25  137 1
  47   26   27 2
  48   26   29 1
  49   26   39 am
  50   28   29 1
  51   28  138 1
  52   29   30 1
  53   29  139 1
  54   30   31 1
  55   30  140 1
  56   30  141 1
  57   31   32 1
  58   31  142 1
  59   31  143 1
  60   32   33 1
  61   32  144 1
  62   32  145 1
  63   33   34 1
  64   33  146 1
  65   34   35 2
  66   34   36 1
  67   35  147 1
  68   36  148 1
  69   36  149 1
  70   37   38 2
  71   37   40 1
  72   37   47 am
  73   39   40 1
  74   39  150 1
  75   40   41 1
  76   40  151 1
  77   41   42 1
  78   41  152 1
  79   41  153 1
  80   42   43 1
  81   42   44 1
  82   42  154 1
  83   43  155 1
  84   43  156 1
  85   43  157 1
  86   44  158 1
  87   44  159 1
  88   44  160 1
  89   45   46 2
  90   45   48 1
  91   45   58 am
  92   47   48 1
  93   47  161 1
  94   48   49 1
  95   48  162 1
  96   49   50 1
  97   49  163 1
  98   49  164 1
  99   50   51 1
 100   50  165 1
 101   50  166 1
 102   51   52 1
 103   51  167 1
 104   51  168 1
 105   52   53 1
 106   52  169 1
 107   53   54 2
 108   53   55 1
 109   54  170 1
 110   55  171 1
 111   55  172 1
 112   56   57 2
 113   56   59 1
 114   56   67 am
 115   58   59 1
 116   58  173 1
 117   59   60 1
 118   59  174 1
 119   60   61 1
 120   60  175 1
 121   60  176 1
 122   61   62 1
 123   61  177 1
 124   61  178 1
 125   62   63 1
 126   62  179 1
 127   62  180 1
 128   63   64 1
 129   63  181 1
 130   63  182 1
 131   64  183 1
 132   64  184 1
 133   65   66 2
 134   65   68 1
 135   65   81 am
 136   67   68 1
 137   67  185 1
 138   68   69 1
 139   68  186 1
 140   69   70 1
 141   69  187 1
 142   69  188 1
 143   70   71 2
 144   70   78 1
 145   71   72 1
 146   71  189 1
 147   72   73 1
 148   72  190 1
 149   73   74 ar
 150   73   78 ar
 151   74   75 ar
 152   74  191 1
 153   75   76 ar
 154   75  192 1
 155   76   77 ar
 156   76  193 1
 157   77   78 ar
 158   77  194 1
 159   79   80 2
 160   79   82 1
 161   79   89 am
 162   81   82 1
 163   81  195 1
 164   82   83 1
 165   82  196 1
 166   83   84 1
 167   83  197 1
 168   83  198 1
 169   84   85 1
 170   84  199 1
 171   84  200 1
 172   85   86 1
 173   86  201 1
 174   86  202 1
 175   86  203 1
 176   87   88 2
 177   87   90 1
 178   87   94 am
 179   89   90 1
 180   89  204 1
 181   90   91 1
 182   90  205 1
 183   91  206 1
 184   91  207 1
 185   91  208 1
 186   92   93 2
 187   92   95 1
 188   92  100 1
 189   94   95 1
 190   94  209 1
 191   95   96 1
 192   95  210 1
 193   96   97 1
 194   96   99 1
 195   96  211 1
 196   97   98 1
 197   97  212 1
 198   97  213 1
 199   98  214 1
 200   98  215 1
 201   98  216 1
 202   99  217 1
 203   99  218 1
 204   99  219 1
 205  100  220 1
 206  101  102 2
 207  101  117 1
 208  103  104 1
 209  103  221 1
 210  103  222 1
 211  103  223 1
 212  104  105 1
 213  104  224 1
 214  104  225 1
 215  105  106 1
 216  105  226 1
 217  105  227 1
 218  106  107 1
 219  106  228 1
 220  106  229 1
 221  107  108 1
 222  107  230 1
 223  107  231 1
 224  108  109 1
 225  108  232 1
 226  108  233 1
 227  109  110 1
 228  109  234 1
 229  109  235 1
 230  110  111 1
 231  110  236 1
 232  110  237 1
 233  111  112 1
 234  111  238 1
 235  111  239 1
 236  112  113 1
 237  112  240 1
 238  112  241 1
 239  113  114 1
 240  113  242 1
 241  113  243 1
 242  114  115 1
 243  114  244 1
 244  114  245 1
 245  115  116 1
 246  115  246 1
 247  115  247 1
 248  116  117 1
 249  116  248 1
 250  116  249 1
 251  117  250 1
 252  117  251 1

#	End of record

