#	Name: ASD01883981
#	Creating user name:	WinNT
#	Creation time:	15. 06. 2019 19:47

#	Modifying user name:	WinNT
#	Modification time:	15. 06. 2019 19:47

#	Program:	/corina/corina34_cracker 3.40 0067  02.08.2006

@<TRIPOS>MOLECULE
ASD01883981
  42   45    0    0    0
SMALL
NO_CHARGES


@<TRIPOS>ATOM
   1 C1             3.0200    -2.7320    -1.5274 C.3     
   2 C2             2.2456    -3.9865    -1.2148 C.2     
   3 C3             1.7091    -4.8563    -2.1155 C.2     
   4 N4             1.0933    -5.8458    -1.4177 N.2     
   5 C5             1.2278    -5.6157    -0.1298 C.2     
   6 O6             0.8732    -6.1491     1.0695 O.3     
   7 C7             1.7313    -5.5903     2.0808 C.3     
   8 H8             2.6142    -6.2124     2.2274 H       
   9 C9             0.9733    -5.4061     3.3970 C.3     
  10 O10            0.6220    -6.6856     3.9275 O.3     
  11 C11           -0.0607    -6.7000     5.1025 C.ar    
  12 C12           -0.3908    -5.5070     5.7290 C.ar    
  13 C13           -1.0852    -5.5244     6.9231 C.ar    
  14 C14           -1.4509    -6.7293     7.4941 C.ar    
  15 C15           -1.1227    -7.9197     6.8719 C.ar    
  16 C16           -0.4337    -7.9076     5.6746 C.ar    
  17 C17           -2.2080    -6.7453     8.7971 C.3     
  18 C18           -3.5198    -5.9606     8.8615 C.3     
  19 C19           -3.5441    -7.4901     8.8286 C.3     
  20 C20           -1.3461    -6.7867    10.0606 C.3     
  21 F21           -0.5044    -5.6695    10.0876 F       
  22 F22           -2.1725    -6.7753    11.1893 F       
  23 F23           -0.5734    -7.9529    10.0600 F       
  24 C24            2.1163    -4.2243     1.4664 C.3     
  25 N25            1.9516    -4.4732     0.0236 N.pl3   
  26 C26            1.7810    -4.7470    -3.5415 C.1     
  27 N27            1.8380    -4.6603    -4.6727 N.1     
  28 H28            4.0806    -2.9703    -1.6079 H       
  29 H29            2.6689    -2.3140    -2.4709 H       
  30 H30            2.8706    -2.0045    -0.7297 H       
  31 H31            1.6066    -4.8785     4.1102 H       
  32 H32            0.0680    -4.8264     3.2169 H       
  33 H33           -0.1048    -4.5656     5.2838 H       
  34 H34           -1.3424    -4.5959     7.4112 H       
  35 H35           -1.4091    -8.8596     7.3201 H       
  36 H36           -0.1815    -8.8375     5.1868 H       
  37 H37           -3.7690    -5.4735     9.8042 H       
  38 H38           -3.8353    -5.4328     7.9615 H       
  39 H39           -3.8756    -7.9684     7.9070 H       
  40 H40           -3.8093    -8.0091     9.7497 H       
  41 H41            1.4398    -3.4409     1.8080 H       
  42 H42            3.1513    -3.9727     1.6981 H       
@<TRIPOS>BOND
   1    1    2 1
   2    1   28 1
   3    1   29 1
   4    1   30 1
   5    2   25 1
   6    2    3 2
   7    3    4 1
   8    3   26 1
   9    4    5 2
  10    5   25 1
  11    5    6 1
  12    6    7 1
  13    7    8 1
  14    7    9 1
  15    7   24 1
  16    9   10 1
  17    9   31 1
  18    9   32 1
  19   10   11 1
  20   11   16 ar
  21   11   12 ar
  22   12   13 ar
  23   12   33 1
  24   13   14 ar
  25   13   34 1
  26   14   15 ar
  27   14   17 1
  28   15   16 ar
  29   15   35 1
  30   16   36 1
  31   17   19 1
  32   17   18 1
  33   17   20 1
  34   18   19 1
  35   18   37 1
  36   18   38 1
  37   19   39 1
  38   19   40 1
  39   20   21 1
  40   20   22 1
  41   20   23 1
  42   24   25 1
  43   24   41 1
  44   24   42 1
  45   26   27 3

#	End of record

