#	Name: ASD04882017
#	Creating user name:	WinNT
#	Creation time:	15. 06. 2019 20:53

#	Modifying user name:	WinNT
#	Modification time:	15. 06. 2019 20:53

#	Program:	/corina/corina34_cracker 3.40 0067  02.08.2006

@<TRIPOS>MOLECULE
ASD04882017
  81   85    0    0    0
SMALL
NO_CHARGES


@<TRIPOS>ATOM
   1 C1             1.1769    -0.9430     0.0414 C.ar    
   2 C2             0.6671    -1.6848    -1.0081 C.ar    
   3 C3             1.2128    -1.5648    -2.2733 C.ar    
   4 C4             2.2694    -0.7032    -2.4922 C.ar    
   5 C5             2.7842     0.0437    -1.4398 C.ar    
   6 C6             2.2337    -0.0793    -0.1706 C.ar    
   7 N7             3.8532     0.9158    -1.6576 N.3     
   8 C8             5.0317     0.5091    -0.8797 C.3     
   9 C9             6.2015     1.4404    -1.2061 C.3     
  10 N10            5.8222     2.8261    -0.8965 N.3     
  11 C11            4.6437     3.2328    -1.6745 C.3     
  12 C12            3.4739     2.3014    -1.3480 C.3     
  13 C13            6.8880     3.6956    -1.1136 C.ar    
  14 C14            6.8167     4.6403    -2.1305 C.ar    
  15 C15            7.8687     5.5025    -2.3488 C.ar    
  16 C16            9.0113     5.4294    -1.5478 C.ar    
  17 C17            9.0854     4.4803    -0.5239 C.ar    
  18 C18            8.0259     3.6208    -0.3048 C.ar    
  19 N19            8.0961     2.6684     0.7201 N.am    
  20 C20            9.2956     2.2396     1.1605 C.2     
  21 C21            9.3732     1.3349     2.3118 C.2     
  22 O22           10.3143     2.6035     0.6027 O.2     
  23 O23            8.3268     0.8574     3.0168 O.3     
  24 C24           10.5171     0.8232     2.8545 C.2     
  25 C25           10.1252     0.0119     3.9309 C.2     
  26 C26            8.7763     0.0606     3.9951 C.2     
  27 C27           10.1382     6.3522    -1.7825 C.2     
  28 N28           10.5321     6.6284    -3.0415 N.am    
  29 O29           10.7116     6.8637    -0.8400 O.2     
  30 C30            2.8638    -0.5734    -3.8709 C.3     
  31 C31           11.7095     7.4724    -3.2887 C.3     
  32 C32            9.7954     6.0859    -4.1916 C.3     
  33 C33           10.7773     5.3162    -5.0837 C.3     
  34 N34           11.9515     6.1648    -5.3309 N.am    
  35 C35           12.6874     6.6998    -4.1826 C.3     
  36 C36           12.3459     6.4403    -6.5899 C.2     
  37 O37           13.4233     7.2191    -6.8026 O.3     
  38 O38           11.7291     5.9857    -7.5330 O.2     
  39 C39           13.7902     7.4737    -8.1843 C.3     
  40 C40           12.6313     8.1708    -8.8996 C.3     
  41 C41           15.0289     8.3708    -8.2260 C.3     
  42 C42           14.0971     6.1476    -8.8830 C.3     
  43 H43            0.7455    -1.0358     1.0272 H       
  44 H44           -0.1591    -2.3597    -0.8395 H       
  45 H45            0.8124    -2.1459    -3.0908 H       
  46 H46            2.6315     0.4998     0.6496 H       
  47 H47            4.8039     0.5706     0.1845 H       
  48 H48            5.3005    -0.5158    -1.1357 H       
  49 H49            7.0685     1.1586    -0.6086 H       
  50 H50            6.4470     1.3586    -2.2649 H       
  51 H51            4.3750     4.2577    -1.4184 H       
  52 H52            4.8715     3.1713    -2.7386 H       
  53 H53            2.6070     2.5833    -1.9455 H       
  54 H54            3.2284     2.3833    -0.2892 H       
  55 H55            5.9347     4.6984    -2.7511 H       
  56 H56            7.8105     6.2353    -3.1400 H       
  57 H57            9.9674     4.4212     0.0965 H       
  58 H58            7.2815     2.3174     1.1127 H       
  59 H59           11.5275     1.0068     2.5202 H       
  60 H60           10.7787    -0.5481     4.5834 H       
  61 H61            8.1619    -0.4576     4.7165 H       
  62 H62            2.2900     0.1524    -4.4471 H       
  63 H63            3.8978    -0.2379    -3.7907 H       
  64 H64            2.8336    -1.5409    -4.3721 H       
  65 H65           11.4028     8.3904    -3.7900 H       
  66 H66           12.1921     7.7136    -2.3415 H       
  67 H67            9.0143     5.4116    -3.8407 H       
  68 H68            9.3493     6.9029    -4.7587 H       
  69 H69           11.0874     4.4002    -4.5809 H       
  70 H70           10.2966     5.0718    -6.0309 H       
  71 H71           13.4687     7.3752    -4.5312 H       
  72 H72           13.1335     5.8799    -3.6198 H       
  73 H73           12.4127     9.1155    -8.4018 H       
  74 H74           12.9068     8.3619    -9.9368 H       
  75 H75           11.7488     7.5317    -8.8699 H       
  76 H76           15.8546     7.8741    -7.7163 H       
  77 H77           15.3044     8.5618    -9.2631 H       
  78 H78           14.8103     9.3155    -7.7282 H       
  79 H79           13.2147     5.5085    -8.8533 H       
  80 H80           14.3726     6.3387    -9.9202 H       
  81 H81           14.9228     5.6509    -8.3734 H       
@<TRIPOS>BOND
   1    1    2 ar
   2    1    6 ar
   3    1   43 1
   4    2    3 ar
   5    2   44 1
   6    3    4 ar
   7    3   45 1
   8    4    5 ar
   9    4   30 1
  10    5    6 ar
  11    5    7 1
  12    6   46 1
  13    7    8 1
  14    7   12 1
  15    8    9 1
  16    8   47 1
  17    8   48 1
  18    9   10 1
  19    9   49 1
  20    9   50 1
  21   10   11 1
  22   10   13 1
  23   11   12 1
  24   11   51 1
  25   11   52 1
  26   12   53 1
  27   12   54 1
  28   13   14 ar
  29   13   18 ar
  30   14   15 ar
  31   14   55 1
  32   15   16 ar
  33   15   56 1
  34   16   17 ar
  35   16   27 1
  36   17   18 ar
  37   17   57 1
  38   18   19 1
  39   19   20 am
  40   19   58 1
  41   20   21 1
  42   20   22 2
  43   21   23 1
  44   21   24 2
  45   23   26 1
  46   24   25 1
  47   24   59 1
  48   25   26 2
  49   25   60 1
  50   26   61 1
  51   27   28 am
  52   27   29 2
  53   28   31 1
  54   28   32 1
  55   30   62 1
  56   30   63 1
  57   30   64 1
  58   31   35 1
  59   31   65 1
  60   31   66 1
  61   32   33 1
  62   32   67 1
  63   32   68 1
  64   33   34 1
  65   33   69 1
  66   33   70 1
  67   34   35 1
  68   34   36 am
  69   35   71 1
  70   35   72 1
  71   36   37 1
  72   36   38 2
  73   37   39 1
  74   39   40 1
  75   39   41 1
  76   39   42 1
  77   40   73 1
  78   40   74 1
  79   40   75 1
  80   41   76 1
  81   41   77 1
  82   41   78 1
  83   42   79 1
  84   42   80 1
  85   42   81 1

#	End of record

