#	Name: ASD01900949
#	Creating user name:	WinNT
#	Creation time:	15. 06. 2019 19:52

#	Modifying user name:	WinNT
#	Modification time:	15. 06. 2019 19:52

#	Program:	/corina/corina34_cracker 3.40 0067  02.08.2006

@<TRIPOS>MOLECULE
ASD01900949
  71   76    0    0    0
SMALL
NO_CHARGES


@<TRIPOS>ATOM
   1 C1             0.7808     0.0573    -0.1876 C.ar    
   2 C2             1.1516    -1.2497    -0.4153 C.ar    
   3 C3             2.4924    -1.5742    -0.6422 C.ar    
   4 C4             3.4667    -0.5766    -0.6340 C.ar    
   5 C5             3.0976     0.7368    -0.4026 C.ar    
   6 C6             1.7470     1.0607    -0.1848 C.ar    
   7 N7             4.0362     1.7630    -0.3684 N.pl3   
   8 C8             3.6173     3.1194    -0.7390 C.3     
   9 N9             2.3200     3.4313    -0.1380 N.am    
  10 C10            1.3916     2.4732     0.0535 C.2     
  11 C11            4.6623     4.1235    -0.2436 C.3     
  12 C12            3.5107     3.2179    -2.2634 C.3     
  13 C13            3.1423     4.6516    -2.6519 C.3     
  14 N14            4.1705     5.5746    -2.1547 N.3     
  15 C15            4.2603     5.5312    -0.6897 C.3     
  16 C16            2.0384     4.7482     0.2453 C.ar    
  17 C17            2.5751     5.2599     1.4194 C.ar    
  18 C18            2.2969     6.5587     1.7967 C.ar    
  19 C19            1.4810     7.3522     1.0034 C.ar    
  20 C20            0.9445     6.8418    -0.1696 C.ar    
  21 C21            1.2268     5.5452    -0.5514 C.ar    
  22 C22            3.9217     6.9434    -2.6266 C.3     
  23 C23            4.9505     7.8730    -2.0362 C.ar    
  24 C24            6.1586     8.0646    -2.6806 C.ar    
  25 C25            7.1039     8.9163    -2.1409 C.ar    
  26 C26            6.8413     9.5789    -0.9544 C.ar    
  27 C27            5.6295     9.3872    -0.3085 C.ar    
  28 C28            4.6829     8.5376    -0.8543 C.ar    
  29 O29            0.2709     2.7700     0.4202 O.2     
  30 O30            1.2068     8.6308     1.3761 O.3     
  31 C31            0.4615     9.4294     0.4548 C.3     
  32 F32           -0.8142     8.8800     0.2873 F       
  33 F33            0.3466    10.7316     0.9531 F       
  34 F34            1.1223     9.4584    -0.7780 F       
  35 F35            7.7650    10.4113    -0.4260 F       
  36 F36            5.3712    10.0326     0.8499 F       
  37 C37            2.8789    -2.9804    -0.8911 C.2     
  38 O38            4.0430    -3.2643    -1.0884 O.2     
  39 O39            1.9396    -3.9457    -0.8990 O.3     
  40 C40            2.3910    -5.3027    -1.1499 C.3     
  41 C41            1.1921    -6.2527    -1.1205 C.3     
  42 C42            1.4432    -7.7185    -1.4800 C.3     
  43 C43            1.1659    -7.3236    -0.0281 C.3     
  44 H44           -0.2566     0.3040    -0.0163 H       
  45 H45            0.4026    -2.0279    -0.4182 H       
  46 H46            4.5028    -0.8276    -0.8069 H       
  47 H47            4.9522     1.5849    -0.1036 H       
  48 H48            4.7145     4.0875     0.8446 H       
  49 H49            5.6362     3.8726    -0.6640 H       
  50 H50            4.4678     2.9534    -2.7130 H       
  51 H51            2.7395     2.5347    -2.6192 H       
  52 H52            3.0791     4.7289    -3.7373 H       
  53 H53            2.1789     4.9106    -2.2128 H       
  54 H54            3.2922     5.7862    -0.2587 H       
  55 H55            5.0088     6.2473    -0.3503 H       
  56 H56            3.2097     4.6421     2.0374 H       
  57 H57            2.7142     6.9568     2.7098 H       
  58 H58            0.3091     7.4600    -0.7865 H       
  59 H59            0.8129     5.1494    -1.4671 H       
  60 H60            3.9889     6.9706    -3.7141 H       
  61 H61            2.9258     7.2593    -2.3160 H       
  62 H62            6.3641     7.5478    -3.6064 H       
  63 H63            8.0476     9.0645    -2.6448 H       
  64 H64            3.7371     8.3905    -0.3542 H       
  65 H65            2.8693    -5.3515    -2.1282 H       
  66 H66            3.1058    -5.5958    -0.3810 H       
  67 H67            0.2394    -5.8168    -1.4213 H       
  68 H68            0.6555    -8.2471    -2.0170 H       
  69 H69            2.4625    -8.0061    -1.7375 H       
  70 H70            2.0029    -7.3513     0.6697 H       
  71 H71            0.1958    -7.5923     0.3901 H       
@<TRIPOS>BOND
   1    1    2 ar
   2    1    6 ar
   3    1   44 1
   4    2    3 ar
   5    2   45 1
   6    3    4 ar
   7    3   37 1
   8    4    5 ar
   9    4   46 1
  10    5    7 1
  11    5    6 ar
  12    6   10 1
  13    7    8 1
  14    7   47 1
  15    8    9 1
  16    8   12 1
  17    8   11 1
  18    9   10 am
  19    9   16 1
  20   10   29 2
  21   11   15 1
  22   11   48 1
  23   11   49 1
  24   12   13 1
  25   12   50 1
  26   12   51 1
  27   13   14 1
  28   13   52 1
  29   13   53 1
  30   14   15 1
  31   14   22 1
  32   15   54 1
  33   15   55 1
  34   16   17 ar
  35   16   21 ar
  36   17   18 ar
  37   17   56 1
  38   18   19 ar
  39   18   57 1
  40   19   20 ar
  41   19   30 1
  42   20   21 ar
  43   20   58 1
  44   21   59 1
  45   22   23 1
  46   22   60 1
  47   22   61 1
  48   23   24 ar
  49   23   28 ar
  50   24   25 ar
  51   24   62 1
  52   25   26 ar
  53   25   63 1
  54   26   27 ar
  55   26   35 1
  56   27   28 ar
  57   27   36 1
  58   28   64 1
  59   30   31 1
  60   31   32 1
  61   31   33 1
  62   31   34 1
  63   37   38 2
  64   37   39 1
  65   39   40 1
  66   40   41 1
  67   40   65 1
  68   40   66 1
  69   41   42 1
  70   41   43 1
  71   41   67 1
  72   42   43 1
  73   42   68 1
  74   42   69 1
  75   43   70 1
  76   43   71 1

#	End of record

