#	Name: ASD01885282
#	Creating user name:	WinNT
#	Creation time:	15. 06. 2019 19:49

#	Modifying user name:	WinNT
#	Modification time:	15. 06. 2019 19:49

#	Program:	/corina/corina34_cracker 3.40 0067  02.08.2006

@<TRIPOS>MOLECULE
ASD01885282
  54   58    0    0    0
SMALL
NO_CHARGES


@<TRIPOS>ATOM
   1 C1            -0.0164     1.3562     0.0095 C.ar    
   2 C2             0.0021    -0.0041     0.0020 C.ar    
   3 C3             1.2056    -0.7065    -0.0128 C.ar    
   4 C4             2.3987    -0.0485    -0.0201 C.ar    
   5 C5             2.4182     1.3524    -0.0133 C.ar    
   6 C6             1.1966     2.0714     0.0018 C.ar    
   7 C7             3.6403     2.0713    -0.0201 C.ar    
   8 C8             3.5784     3.4584    -0.0121 C.ar    
   9 C9             2.3317     4.0924     0.0021 C.ar    
  10 N10            1.2050     3.4049     0.0084 N.ar    
  11 C11            4.9416     1.3649    -0.0347 C.2     
  12 C12            2.2744     5.5742     0.0110 C.2     
  13 O13            3.3023     6.2219     0.0059 O.2     
  14 N14            1.0821     6.2024     0.0248 N.am    
  15 C15           -1.2996    -0.7634     0.0104 C.3     
  16 N16           -1.7358    -1.0027    -1.3718 N.3     
  17 C17           -2.8644    -1.9354    -1.4121 C.3     
  18 C18           -3.5763    -1.8332    -2.7653 C.3     
  19 S19           -2.4033    -2.3081    -4.0720 S.3     
  20 C20           -0.9681    -1.2588    -3.6878 C.3     
  21 C21           -0.6153    -1.4401    -2.2076 C.3     
  22 C22            5.3334     0.3199     0.8275 C.2     
  23 N23            6.5460    -0.0402     0.5023 N.2     
  24 N24            6.9745     0.7516    -0.5698 N.pl3   
  25 C25            5.9810     1.6024    -0.8903 C.2     
  26 C26            8.2781     0.6658    -1.2326 C.3     
  27 C27           -4.7792    -2.7783    -2.7860 C.3     
  28 C28           -5.6234    -2.8196    -4.0614 C.3     
  29 C29           -4.7067    -3.9939    -3.7124 C.3     
  30 H30           -0.9577     1.8855     0.0168 H       
  31 H31            1.1924    -1.7864    -0.0181 H       
  32 H32            3.3248    -0.6040    -0.0309 H       
  33 H33            4.4863     4.0434    -0.0166 H       
  34 H34            0.2615     5.6853     0.0289 H       
  35 H35            1.0446     7.1717     0.0306 H       
  36 H36           -1.1602    -1.7179     0.5178 H       
  37 H37           -2.0569    -0.1805     0.5346 H       
  38 H38           -2.4988    -2.9525    -1.2711 H       
  39 H39           -3.5657    -1.6900    -0.6145 H       
  40 H40           -3.9095    -0.8081    -2.9273 H       
  41 H41           -0.1208    -1.5568    -4.3054 H       
  42 H42           -1.2157    -0.2148    -3.8801 H       
  43 H43            0.2671    -0.8459    -1.9702 H       
  44 H44           -0.4060    -2.4916    -2.0113 H       
  45 H45            4.7353    -0.1076     1.6186 H       
  46 H46            6.0024     2.3400    -1.6789 H       
  47 H47            8.2200    -0.0436    -2.0581 H       
  48 H48            8.5560     1.6475    -1.6161 H       
  49 H49            9.0283     0.3297    -0.5168 H       
  50 H50           -5.2978    -2.9001    -1.8351 H       
  51 H51           -6.6973    -2.9689    -3.9496 H       
  52 H52           -5.3217    -2.1734    -4.8858 H       
  53 H53           -3.8020    -4.1202    -4.3071 H       
  54 H54           -5.1776    -4.9157    -3.3709 H       
@<TRIPOS>BOND
   1    1    2 ar
   2    1    6 ar
   3    1   30 1
   4    2    3 ar
   5    2   15 1
   6    3    4 ar
   7    3   31 1
   8    4    5 ar
   9    4   32 1
  10    5    7 ar
  11    5    6 ar
  12    6   10 ar
  13    7    8 ar
  14    7   11 1
  15    8    9 ar
  16    8   33 1
  17    9   10 ar
  18    9   12 1
  19   11   22 1
  20   11   25 2
  21   12   13 2
  22   12   14 am
  23   14   34 1
  24   14   35 1
  25   15   16 1
  26   15   36 1
  27   15   37 1
  28   16   17 1
  29   16   21 1
  30   17   18 1
  31   17   38 1
  32   17   39 1
  33   18   19 1
  34   18   27 1
  35   18   40 1
  36   19   20 1
  37   20   21 1
  38   20   41 1
  39   20   42 1
  40   21   43 1
  41   21   44 1
  42   22   23 2
  43   22   45 1
  44   23   24 1
  45   24   25 1
  46   24   26 1
  47   25   46 1
  48   26   47 1
  49   26   48 1
  50   26   49 1
  51   27   28 1
  52   27   29 1
  53   27   50 1
  54   28   29 1
  55   28   51 1
  56   28   52 1
  57   29   53 1
  58   29   54 1

#	End of record

