#	Name: ASD01120307
#	Creating user name:	WinNT
#	Creation time:	15. 06. 2019 18:59

#	Modifying user name:	WinNT
#	Modification time:	15. 06. 2019 18:59

#	Program:	/corina/corina34_cracker 3.40 0067  02.08.2006

@<TRIPOS>MOLECULE
ASD01120307
  35   37    0    0    0
SMALL
NO_CHARGES


@<TRIPOS>ATOM
   1 O1             0.8954     1.6712    -0.8902 O.2     
   2 N2            -0.0107     1.2319    -0.2050 N.pl3   
   3 O3             0.1486     0.2045     0.4295 O.2     
   4 C4            -1.3035     1.9499    -0.1384 C.ar    
   5 C5            -1.4807     3.1194    -0.8550 C.ar    
   6 C6            -2.6856     3.7916    -0.7956 C.ar    
   7 C7            -3.7203     3.2916    -0.0148 C.ar    
   8 C8            -3.5388     2.1164     0.7037 C.ar    
   9 C9            -2.3331     1.4466     0.6356 C.ar    
  10 N10           -4.9403     3.9692     0.0480 N.pl3   
  11 C11           -4.9610     5.3567     0.1612 C.ar    
  12 C12           -3.7858     6.0559     0.3680 C.ar    
  13 C13           -3.8027     7.4382     0.4808 C.ar    
  14 C14           -4.9860     8.1382     0.3896 C.ar    
  15 C15           -6.1843     7.4610     0.1821 C.ar    
  16 C16           -6.1778     6.0581     0.0600 C.ar    
  17 C17           -7.5160     5.6527    -0.1418 C.2     
  18 C18           -8.2928     6.7700    -0.1403 C.2     
  19 N19           -7.4880     7.8790     0.0520 N.pl3   
  20 C20           -9.7486     6.7951    -0.3190 C.2     
  21 O21          -10.3587     5.7565    -0.4858 O.2     
  22 O22          -10.4104     7.9701    -0.2982 O.3     
  23 N23           -4.9830     9.6134     0.5131 N.pl3   
  24 O24           -3.9352    10.2072     0.6951 O.2     
  25 O25           -6.0283    10.2334     0.4327 O.2     
  26 H26           -0.6758     3.5077    -1.4614 H       
  27 H27           -2.8232     4.7050    -1.3551 H       
  28 H28           -4.3410     1.7252     1.3119 H       
  29 H29           -2.1914     0.5329     1.1936 H       
  30 H30           -5.7731     3.4730     0.0127 H       
  31 H31           -2.8497     5.5225     0.4426 H       
  32 H32           -2.8778     7.9719     0.6422 H       
  33 H33           -7.8607     4.6378    -0.2741 H       
  34 H34           -7.7935     8.7987     0.0936 H       
  35 H35          -11.3691     7.9362    -0.4202 H       
@<TRIPOS>BOND
   1    1    2 2
   2    2    3 2
   3    2    4 1
   4    4    5 ar
   5    4    9 ar
   6    5    6 ar
   7    5   26 1
   8    6    7 ar
   9    6   27 1
  10    7    8 ar
  11    7   10 1
  12    8    9 ar
  13    8   28 1
  14    9   29 1
  15   10   11 1
  16   10   30 1
  17   11   12 ar
  18   11   16 ar
  19   12   13 ar
  20   12   31 1
  21   13   14 ar
  22   13   32 1
  23   14   15 ar
  24   14   23 1
  25   15   16 ar
  26   15   19 1
  27   16   17 1
  28   17   18 2
  29   17   33 1
  30   18   19 1
  31   18   20 1
  32   19   34 1
  33   20   21 2
  34   20   22 1
  35   22   35 1
  36   23   24 2
  37   23   25 2

#	End of record

