#	Name: ASD03091947
#	Creating user name:	WinNT
#	Creation time:	15. 06. 2019 20:31

#	Modifying user name:	WinNT
#	Modification time:	15. 06. 2019 20:31

#	Program:	/corina/corina34_cracker 3.40 0067  02.08.2006

@<TRIPOS>MOLECULE
ASD03091947
  54   58    0    0    0
SMALL
NO_CHARGES


@<TRIPOS>ATOM
   1 C1            -0.0150     1.4035     0.0122 C.ar    
   2 C2            -1.2270     2.0727     0.0343 C.ar    
   3 C3            -2.4083     1.3535     0.0344 C.ar    
   4 C4            -2.3906    -0.0317     0.0125 C.ar    
   5 C5            -1.1910    -0.7138    -0.0095 C.ar    
   6 C6             0.0034     0.0001    -0.0096 C.ar    
   7 O7             1.1655     2.0698     0.0167 O.3     
   8 C8             2.2611     1.4540     0.6939 C.3     
   9 N9             2.4082     0.0564     0.2863 N.am    
  10 C10            1.3155    -0.6785    -0.0267 C.2     
  11 C11           -3.6884    -0.7978     0.0134 C.3     
  12 C12           -4.1979    -0.9244    -1.3992 C.ar    
  13 C13           -5.0318     0.0406    -1.9295 C.ar    
  14 C14           -3.8296    -2.0089    -2.1832 C.ar    
  15 C15           -4.3202    -2.0865    -3.4751 C.ar    
  16 C16           -5.1597    -1.0819    -3.9407 C.ar    
  17 N17           -5.4834    -0.0605    -3.1646 N.ar    
  18 O18            1.4104    -1.8567    -0.3116 O.2     
  19 C19            3.7407    -0.5486     0.2168 C.3     
  20 C20            4.5951     0.1755    -0.8440 C.3     
  21 C21            4.4690    -0.3752     1.5611 C.3     
  22 C22            5.7407     0.4482     1.2703 C.3     
  23 C23            5.4064     1.2161    -0.0327 C.3     
  24 O24            4.8243    -1.6528     2.0937 O.3     
  25 N25           -5.6622    -1.1481    -5.2438 N.pl3   
  26 C26           -6.4840    -0.2402    -5.8318 C.2     
  27 C27           -6.7357    -0.6701    -7.0896 C.2     
  28 C28           -6.0498    -1.8752    -7.2793 C.2     
  29 N29           -5.4033    -2.1594    -6.1781 N.2     
  30 Cl30          -1.2636     3.8081     0.0622 Cl      
  31 C31           -3.7266     2.0831     0.0592 C.3     
  32 H32           -1.1794    -1.7937    -0.0263 H       
  33 H33            3.1777     1.9944     0.4577 H       
  34 H34            2.0877     1.4972     1.7691 H       
  35 H35           -3.5236    -1.7912     0.4305 H       
  36 H36           -4.4233    -0.2669     0.6185 H       
  37 H37           -5.3179     0.8886    -1.3250 H       
  38 H38           -3.1749    -2.7747    -1.7941 H       
  39 H39           -4.0538    -2.9164    -4.1128 H       
  40 H40            3.6574    -1.6073    -0.0289 H       
  41 H41            5.2644    -0.5277    -1.3397 H       
  42 H42            3.9563     0.6741    -1.5730 H       
  43 H43            3.8312     0.1591     2.2652 H       
  44 H44            5.9379     1.1458     2.0842 H       
  45 H45            6.5950    -0.2109     1.1161 H       
  46 H46            6.3178     1.4935    -0.5623 H       
  47 H47            4.8001     2.0961     0.1823 H       
  48 H48            5.2871    -1.6105     2.9417 H       
  49 H49           -6.8672     0.6615    -5.3774 H       
  50 H50           -7.3571    -0.1715    -7.8187 H       
  51 H51           -6.0505    -2.4674    -8.1825 H       
  52 H52           -4.0546     2.2755    -0.9624 H       
  53 H53           -4.4705     1.4722     0.5706 H       
  54 H54           -3.6084     3.0294     0.5871 H       
@<TRIPOS>BOND
   1    1    6 ar
   2    1    7 1
   3    1    2 ar
   4    2    3 ar
   5    2   30 1
   6    3    4 ar
   7    3   31 1
   8    4    5 ar
   9    4   11 1
  10    5    6 ar
  11    5   32 1
  12    6   10 1
  13    7    8 1
  14    8    9 1
  15    8   33 1
  16    8   34 1
  17    9   10 am
  18    9   19 1
  19   10   18 2
  20   11   12 1
  21   11   35 1
  22   11   36 1
  23   12   14 ar
  24   12   13 ar
  25   13   17 ar
  26   13   37 1
  27   14   15 ar
  28   14   38 1
  29   15   16 ar
  30   15   39 1
  31   16   17 ar
  32   16   25 1
  33   19   21 1
  34   19   20 1
  35   19   40 1
  36   20   23 1
  37   20   41 1
  38   20   42 1
  39   21   22 1
  40   21   24 1
  41   21   43 1
  42   22   23 1
  43   22   44 1
  44   22   45 1
  45   23   46 1
  46   23   47 1
  47   24   48 1
  48   25   29 1
  49   25   26 1
  50   26   27 2
  51   26   49 1
  52   27   28 1
  53   27   50 1
  54   28   29 2
  55   28   51 1
  56   31   52 1
  57   31   53 1
  58   31   54 1

#	End of record

