#	Name: ASD03540581
#	Creating user name:	WinNT
#	Creation time:	15. 06. 2019 20:43

#	Modifying user name:	WinNT
#	Modification time:	15. 06. 2019 20:43

#	Program:	/corina/corina34_cracker 3.40 0067  02.08.2006

@<TRIPOS>MOLECULE
ASD03540581
  56   60    0    0    0
SMALL
NO_CHARGES


@<TRIPOS>ATOM
   1 N1            -0.0164     1.3608     0.0095 N.pl3   
   2 C2             0.0021    -0.0041     0.0020 C.2     
   3 N3             1.1903    -0.7096    -0.0132 N.am    
   4 C4             2.3778    -0.0689    -0.0205 C.2     
   5 C5             2.3905     1.4059    -0.0126 C.ar    
   6 C6             3.5856     2.1159    -0.0186 C.ar    
   7 C7             3.5564     3.5090    -0.0098 C.ar    
   8 C8             2.3300     4.1837     0.0049 C.ar    
   9 C9             1.1468     3.4801     0.0112 C.ar    
  10 C10            1.1624     2.0911     0.0022 C.ar    
  11 N11           -2.0330     0.6196     0.0248 N.2     
  12 N12           -1.2514    -0.4005     0.0119 N.2     
  13 C13           -1.3340     1.7207     0.0296 C.2     
  14 C14            4.8199     4.2740    -0.0155 C.2     
  15 O15            5.8851     3.6882    -0.0278 O.2     
  16 N16            4.7919     5.6214    -0.0070 N.am    
  17 O17            3.4195    -0.6967    -0.0330 O.2     
  18 C18            1.1602    -2.1743    -0.0209 C.3     
  19 C19            1.1364    -2.6687    -1.4443 C.ar    
  20 C20            2.3223    -2.9201    -2.1086 C.ar    
  21 C21            2.3004    -3.3736    -3.4143 C.ar    
  22 C22            1.0926    -3.5762    -4.0554 C.ar    
  23 C23           -0.0933    -3.3257    -3.3908 C.ar    
  24 C24           -0.0715    -2.8763    -2.0837 C.ar    
  25 C25            6.0450     6.3802    -0.0127 C.3     
  26 C26            5.7342     7.8783    -0.0009 C.3     
  27 C27            7.0430     8.6707    -0.0068 C.3     
  28 S28            6.6745    10.4469     0.0070 S.3     
  29 C29            9.6943    13.1080    -0.0010 C.ar    
  30 C30            8.4245    12.5712     0.0057 C.ar    
  31 C31            8.2750    11.1838    -0.0016 C.ar    
  32 C32            9.4263    10.3953    -0.0154 C.ar    
  33 C33           10.6597    11.0112    -0.0213 C.ar    
  34 N34           10.7591    12.3276    -0.0141 N.ar    
  35 H35            4.5298     1.5916    -0.0295 H       
  36 H36            2.3119     5.2635     0.0116 H       
  37 H37            0.2051     4.0088     0.0233 H       
  38 H38           -1.7237     2.7278     0.0403 H       
  39 H39            3.9419     6.0888     0.0028 H       
  40 H40            2.0474    -2.5586     0.4824 H       
  41 H41            0.2679    -2.5221     0.4996 H       
  42 H42            3.2659    -2.7618    -1.6077 H       
  43 H43            3.2269    -3.5693    -3.9335 H       
  44 H44            1.0755    -3.9298    -5.0757 H       
  45 H45           -1.0370    -3.4837    -3.8918 H       
  46 H46           -0.9981    -2.6842    -1.5632 H       
  47 H47            6.6292     6.1234     0.8710 H       
  48 H48            6.6146     6.1343    -0.9089 H       
  49 H49            5.1500     8.1351    -0.8846 H       
  50 H50            5.1646     8.1242     0.8953 H       
  51 H51            7.6272     8.4139     0.8768 H       
  52 H52            7.6126     8.4248    -0.9030 H       
  53 H53            9.8197    14.1807     0.0000 H       
  54 H54            7.5577    13.2154     0.0167 H       
  55 H55            9.3521     9.3179    -0.0210 H       
  56 H56           11.5561    10.4090    -0.0320 H       
@<TRIPOS>BOND
   1    1    2 1
   2    1   10 1
   3    1   13 1
   4    2    3 1
   5    2   12 2
   6    3    4 am
   7    3   18 1
   8    4    5 1
   9    4   17 2
  10    5    6 ar
  11    5   10 ar
  12    6    7 ar
  13    6   35 1
  14    7    8 ar
  15    7   14 1
  16    8    9 ar
  17    8   36 1
  18    9   10 ar
  19    9   37 1
  20   11   12 1
  21   11   13 2
  22   13   38 1
  23   14   15 2
  24   14   16 am
  25   16   25 1
  26   16   39 1
  27   18   19 1
  28   18   40 1
  29   18   41 1
  30   19   20 ar
  31   19   24 ar
  32   20   21 ar
  33   20   42 1
  34   21   22 ar
  35   21   43 1
  36   22   23 ar
  37   22   44 1
  38   23   24 ar
  39   23   45 1
  40   24   46 1
  41   25   26 1
  42   25   47 1
  43   25   48 1
  44   26   27 1
  45   26   49 1
  46   26   50 1
  47   27   28 1
  48   27   51 1
  49   27   52 1
  50   28   31 1
  51   29   30 ar
  52   29   34 ar
  53   29   53 1
  54   30   31 ar
  55   30   54 1
  56   31   32 ar
  57   32   33 ar
  58   32   55 1
  59   33   34 ar
  60   33   56 1

#	End of record

