#	Name: ASD05062021
#	Creating user name:	WinNT
#	Creation time:	15. 06. 2019 20:56

#	Modifying user name:	WinNT
#	Modification time:	15. 06. 2019 20:56

#	Program:	/corina/corina34_cracker 3.40 0067  02.08.2006

@<TRIPOS>MOLECULE
ASD05062021
  60   63    0    0    0
SMALL
NO_CHARGES


@<TRIPOS>ATOM
   1 C1            -1.8871     1.0771    -0.7299 C.ar    
   2 C2            -1.5992    -0.2683    -0.6312 C.ar    
   3 C3            -0.2840    -0.6970    -0.5995 C.ar    
   4 C4             0.7508     0.2191    -0.6670 C.ar    
   5 C5             0.4771     1.5674    -0.7664 C.ar    
   6 C6            -0.8478     2.0070    -0.7984 C.ar    
   7 C7            -1.1486     3.4494    -0.9053 C.2     
   8 O8            -2.4279     3.8702    -0.9359 O.3     
   9 O9            -0.2423     4.2560    -0.9655 O.2     
  10 C10            0.0229    -2.1684    -0.4905 C.3     
  11 O11            0.1198    -2.7330    -1.7996 O.3     
  12 C12            0.3939    -4.0611    -1.8797 C.ar    
  13 C13            0.5019    -4.6744    -3.1275 C.ar    
  14 C14            0.7804    -6.0239    -3.2130 C.ar    
  15 C15            0.9546    -6.7746    -2.0436 C.ar    
  16 C16            0.8451    -6.1511    -0.7936 C.ar    
  17 C17            0.5714    -4.8021    -0.7192 C.ar    
  18 Br18           1.0790    -7.1580     0.7899 Br      
  19 O19            0.3321    -3.9425    -4.2613 O.3     
  20 C20            0.4565    -4.6349    -5.5051 C.3     
  21 C21            0.2349    -3.6547    -6.6588 C.3     
  22 C22            1.2505    -8.2100    -2.1272 C.2     
  23 C23            1.7400    -8.7362    -3.2789 C.2     
  24 S24            2.3026    -7.8703    -4.7224 S.3     
  25 C25            2.7184    -9.3425    -5.6171 C.2     
  26 N26            2.4264   -10.3769    -4.8203 N.am    
  27 C27            1.9317   -10.1512    -3.6146 C.2     
  28 O28            3.1804    -9.4014    -6.7408 O.2     
  29 O29            1.6473   -11.0505    -2.8453 O.2     
  30 C30            2.6594   -11.7492    -5.2773 C.3     
  31 C31            4.0531   -12.1761    -4.8950 C.2     
  32 C32            4.5320   -13.5231    -5.2443 C.ar    
  33 O33            4.7801   -11.4098    -4.2996 O.2     
  34 C34            5.8247   -13.9231    -4.8913 C.ar    
  35 C35            6.2658   -15.1870    -5.2217 C.ar    
  36 C36            5.4330   -16.0588    -5.9014 C.ar    
  37 C37            4.1525   -15.6703    -6.2547 C.ar    
  38 C38            3.6945   -14.4120    -5.9259 C.ar    
  39 H39           -2.9141     1.4102    -0.7587 H       
  40 H40           -2.4021    -0.9886    -0.5781 H       
  41 H41            1.7751    -0.1223    -0.6414 H       
  42 H42            1.2857     2.2815    -0.8187 H       
  43 H43           -2.5750     4.8234    -1.0066 H       
  44 H44            0.9682    -2.3045     0.0347 H       
  45 H45           -0.7745    -2.6659     0.0617 H       
  46 H46            0.8634    -6.4995    -4.1791 H       
  47 H47            0.4871    -4.3219     0.2445 H       
  48 H48            1.4542    -5.0671    -5.5822 H       
  49 H49           -0.2883    -5.4291    -5.5550 H       
  50 H50            0.3298    -4.1829    -7.6076 H       
  51 H51           -0.7628    -3.2225    -6.5818 H       
  52 H52            0.9798    -2.8605    -6.6090 H       
  53 H53            1.0788    -8.8475    -1.2725 H       
  54 H54            1.9343   -12.4157    -4.8103 H       
  55 H55            2.5497   -11.7948    -6.3608 H       
  56 H56            6.4760   -13.2436    -4.3615 H       
  57 H57            7.2639   -15.4974    -4.9498 H       
  58 H58            5.7844   -17.0474    -6.1577 H       
  59 H59            3.5088   -16.3561    -6.7855 H       
  60 H60            2.6950   -14.1102    -6.2023 H       
@<TRIPOS>BOND
   1    1    2 ar
   2    1    6 ar
   3    1   39 1
   4    2    3 ar
   5    2   40 1
   6    3    4 ar
   7    3   10 1
   8    4    5 ar
   9    4   41 1
  10    5    6 ar
  11    5   42 1
  12    6    7 1
  13    7    8 1
  14    7    9 2
  15    8   43 1
  16   10   11 1
  17   10   44 1
  18   10   45 1
  19   11   12 1
  20   12   13 ar
  21   12   17 ar
  22   13   14 ar
  23   13   19 1
  24   14   15 ar
  25   14   46 1
  26   15   16 ar
  27   15   22 1
  28   16   17 ar
  29   16   18 1
  30   17   47 1
  31   19   20 1
  32   20   21 1
  33   20   48 1
  34   20   49 1
  35   21   50 1
  36   21   51 1
  37   21   52 1
  38   22   23 2
  39   22   53 1
  40   23   24 1
  41   23   27 1
  42   24   25 1
  43   25   26 am
  44   25   28 2
  45   26   27 am
  46   26   30 1
  47   27   29 2
  48   30   31 1
  49   30   54 1
  50   30   55 1
  51   31   32 1
  52   31   33 2
  53   32   34 ar
  54   32   38 ar
  55   34   35 ar
  56   34   56 1
  57   35   36 ar
  58   35   57 1
  59   36   37 ar
  60   36   58 1
  61   37   38 ar
  62   37   59 1
  63   38   60 1

#	End of record

