#	Name: ASD01918461
#	Creating user name:	WinNT
#	Creation time:	15. 06. 2019 20:11

#	Modifying user name:	WinNT
#	Modification time:	15. 06. 2019 20:11

#	Program:	/corina/corina34_cracker 3.40 0067  02.08.2006

@<TRIPOS>MOLECULE
ASD01918461
  40   43    0    0    0
SMALL
NO_CHARGES


@<TRIPOS>ATOM
   1 F1             0.0021    -0.0041     0.0020 F       
   2 C2            -0.0162     1.3468     0.0094 C.ar    
   3 C3            -1.2229     2.0230     0.0304 C.ar    
   4 C4            -1.2427     3.4055     0.0385 C.ar    
   5 C5            -0.0575     4.1177     0.0257 C.ar    
   6 C6             1.1532     3.4489     0.0043 C.ar    
   7 F7             2.3106     4.1456    -0.0086 F       
   8 C8             1.1774     2.0590     0.0019 C.ar    
   9 N9             2.4015     1.3780    -0.0135 N.am    
  10 C10            3.0254     1.0240     1.2559 C.3     
  11 C11            3.6445    -0.3747     1.2339 C.3     
  12 C12            4.4332    -0.5377    -0.0391 C.2     
  13 N13            5.4958    -1.2768    -0.3138 N.2     
  14 C14            5.8223    -1.0967    -1.5713 C.2     
  15 C15            6.9763    -1.7612    -2.2767 C.3     
  16 O16            6.5364    -2.9918    -2.8548 O.3     
  17 C17            7.4618    -3.7207    -3.5324 C.ar    
  18 C18            8.7678    -3.2639    -3.6338 C.ar    
  19 C19            9.7068    -4.0069    -4.3228 C.ar    
  20 C20            9.3457    -5.2049    -4.9113 C.ar    
  21 C21            8.0447    -5.6622    -4.8120 C.ar    
  22 C22            7.1035    -4.9258    -4.1190 C.ar    
  23 O23            4.9663    -0.2271    -2.1308 O.3     
  24 C24            4.0948     0.1391    -1.1862 C.2     
  25 C25            2.9604     1.0671    -1.2057 C.2     
  26 O26            2.5434     1.5394    -2.2469 O.2     
  27 H27           -2.1507     1.4703     0.0401 H       
  28 H28           -2.1863     3.9305     0.0545 H       
  29 H29           -0.0771     5.1975     0.0321 H       
  30 H30            3.8054     1.7515     1.4805 H       
  31 H31            2.2718     1.0637     2.0425 H       
  32 H32            4.3065    -0.4945     2.0915 H       
  33 H33            2.8544    -1.1245     1.2726 H       
  34 H34            7.3493    -1.1037    -3.0620 H       
  35 H35            7.7736    -1.9607    -1.5607 H       
  36 H36            9.0501    -2.3279    -3.1749 H       
  37 H37           10.7236    -3.6517    -4.4020 H       
  38 H38           10.0812    -5.7842    -5.4498 H       
  39 H39            7.7650    -6.5980    -5.2729 H       
  40 H40            6.0884    -5.2856    -4.0379 H       
@<TRIPOS>BOND
   1    1    2 1
   2    2    8 ar
   3    2    3 ar
   4    3    4 ar
   5    3   27 1
   6    4    5 ar
   7    4   28 1
   8    5    6 ar
   9    5   29 1
  10    6    7 1
  11    6    8 ar
  12    8    9 1
  13    9   25 am
  14    9   10 1
  15   10   11 1
  16   10   30 1
  17   10   31 1
  18   11   12 1
  19   11   32 1
  20   11   33 1
  21   12   24 2
  22   12   13 1
  23   13   14 2
  24   14   15 1
  25   14   23 1
  26   15   16 1
  27   15   34 1
  28   15   35 1
  29   16   17 1
  30   17   22 ar
  31   17   18 ar
  32   18   19 ar
  33   18   36 1
  34   19   20 ar
  35   19   37 1
  36   20   21 ar
  37   20   38 1
  38   21   22 ar
  39   21   39 1
  40   22   40 1
  41   23   24 1
  42   24   25 1
  43   25   26 2

#	End of record

