#	Name: ASD00170745
#	Creating user name:	WinNT
#	Creation time:	15. 06. 2019 18:32

#	Modifying user name:	WinNT
#	Modification time:	15. 06. 2019 18:32

#	Program:	/corina/corina34_cracker 3.40 0067  02.08.2006

@<TRIPOS>MOLECULE
ASD00170745
  39   41    0    0    0
SMALL
NO_CHARGES


@<TRIPOS>ATOM
   1 C1            -0.0150     1.2130     0.0019 C.2     
   2 O2             0.6028     1.0969    -1.0411 O.2     
   3 C3             0.5322     0.6439     1.2531 C.ar    
   4 C4             1.6991    -0.1212     1.2235 C.ar    
   5 C5             1.5563    -0.4214     3.5950 C.ar    
   6 C6            -0.1131     0.8745     2.4689 C.ar    
   7 C7             2.2041    -0.6491     2.3938 C.ar    
   8 C8             0.4023     0.3409     3.6320 C.ar    
   9 C9             2.1134    -1.0016     4.8694 C.3     
  10 C10           -1.3710     3.2628     0.1343 C.2     
  11 C11           -1.2564     1.8990     0.0182 C.2     
  12 C12           -2.5462     1.2343    -0.0862 C.2     
  13 C13           -3.5740     2.0883    -0.0475 C.2     
  14 S14           -3.0065     3.7399     0.1182 S.3     
  15 C15           -2.7039    -0.2332    -0.2219 C.ar    
  16 C16           -3.5812    -0.9232     0.6141 C.ar    
  17 C17           -3.7238    -2.2893     0.4831 C.ar    
  18 C18           -2.9982    -2.9746    -0.4750 C.ar    
  19 C19           -2.1262    -2.2957    -1.3068 C.ar    
  20 C20           -1.9801    -0.9283    -1.1896 C.ar    
  21 C21           -4.6715    -3.0364     1.3858 C.3     
  22 F22           -5.9390    -3.0825     0.7955 F       
  23 F23           -4.2002    -4.3391     1.5808 F       
  24 F24           -4.7549    -2.3812     2.6190 F       
  25 N25           -0.3046     4.1298     0.2539 N.pl3   
  26 H26            2.2054    -0.2999     0.2864 H       
  27 H27           -1.0138     1.4697     2.4992 H       
  28 H28            3.1068    -1.2416     2.3721 H       
  29 H29           -0.0986     0.5149     4.5729 H       
  30 H30            2.8086    -0.2921     5.3182 H       
  31 H31            1.2980    -1.2007     5.5649 H       
  32 H32            2.6365    -1.9317     4.6470 H       
  33 H33           -4.6130     1.8004    -0.1101 H       
  34 H34           -4.1476    -0.3894     1.3628 H       
  35 H35           -3.1128    -4.0440    -0.5737 H       
  36 H36           -1.5621    -2.8360    -2.0527 H       
  37 H37           -1.3028    -0.3985    -1.8430 H       
  38 H38            0.5970     3.7813     0.3351 H       
  39 H39           -0.4564     5.0878     0.2567 H       
@<TRIPOS>BOND
   1    1    2 2
   2    1    3 1
   3    1   11 1
   4    3    4 ar
   5    3    6 ar
   6    4    7 ar
   7    4   26 1
   8    5    7 ar
   9    5    8 ar
  10    5    9 1
  11    6    8 ar
  12    6   27 1
  13    7   28 1
  14    8   29 1
  15    9   30 1
  16    9   31 1
  17    9   32 1
  18   10   11 2
  19   10   14 1
  20   10   25 1
  21   11   12 1
  22   12   13 2
  23   12   15 1
  24   13   14 1
  25   13   33 1
  26   15   16 ar
  27   15   20 ar
  28   16   17 ar
  29   16   34 1
  30   17   18 ar
  31   17   21 1
  32   18   19 ar
  33   18   35 1
  34   19   20 ar
  35   19   36 1
  36   20   37 1
  37   21   22 1
  38   21   23 1
  39   21   24 1
  40   25   38 1
  41   25   39 1

#	End of record

