#	Name: ASD05842025
#	Creating user name:	WinNT
#	Creation time:	15. 06. 2019 21:03

#	Modifying user name:	WinNT
#	Modification time:	15. 06. 2019 21:03

#	Program:	/corina/corina34_cracker 3.40 0067  02.08.2006

@<TRIPOS>MOLECULE
ASD05842025
  48   49    0    0    0
SMALL
NO_CHARGES


@<TRIPOS>ATOM
   1 C1            -0.0167     1.3781     0.0096 C.ar    
   2 C2             0.0021    -0.0041     0.0020 C.ar    
   3 C3            -1.1855    -0.7115     0.0095 C.ar    
   4 C4            -2.3919    -0.0367     0.0251 C.ar    
   5 C5            -2.4106     1.3455     0.0336 C.ar    
   6 C6            -1.2230     2.0529     0.0305 C.ar    
   7 C7             1.2780     2.1493     0.0014 C.3     
   8 N8             1.6855     2.4073    -1.3862 N.3     
   9 C9             2.8813     3.2592    -1.4340 C.3     
  10 C10            2.5744     4.6064    -0.7769 C.3     
  11 C11            3.8012     5.4803    -0.8259 C.ar    
  12 C12            4.0112     6.3167    -1.9062 C.ar    
  13 C13            5.1365     7.1183    -1.9512 C.ar    
  14 C14            6.0515     7.0838    -0.9156 C.ar    
  15 C15            5.8410     6.2480     0.1651 C.ar    
  16 C16            4.7135     5.4496     0.2122 C.ar    
  17 C17            1.0673     1.0356    -3.0677 C.2     
  18 C18            1.2332    -0.2352    -3.8605 C.3     
  19 C19            0.1881    -0.2799    -4.9771 C.3     
  20 C20            0.3565    -1.5701    -5.7820 C.3     
  21 C21           -0.6886    -1.6147    -6.8985 C.3     
  22 O22            0.2020     1.8246    -3.3652 O.2     
  23 O23            1.8809     1.2910    -2.0311 O.3     
  24 H24            0.9446    -0.5313    -0.0101 H       
  25 H25           -1.1709    -1.7913     0.0029 H       
  26 H26           -3.3198    -0.5893     0.0302 H       
  27 H27           -3.3531     1.8728     0.0454 H       
  28 H28           -1.2376     3.1328     0.0372 H       
  29 H29            1.1397     3.0971     0.5217 H       
  30 H30            2.0505     1.5679     0.5048 H       
  31 H31            3.6964     2.7715    -0.8993 H       
  32 H32            3.1722     3.4192    -2.4722 H       
  33 H33            1.7593     5.0941    -1.3115 H       
  34 H34            2.2835     4.4464     0.2613 H       
  35 H35            3.2963     6.3437    -2.7153 H       
  36 H36            5.3010     7.7713    -2.7956 H       
  37 H37            6.9311     7.7095    -0.9511 H       
  38 H38            6.5561     6.2208     0.9741 H       
  39 H39            4.5490     4.7967     1.0565 H       
  40 H40            2.2319    -0.2639    -4.2963 H       
  41 H41            1.0991    -1.0939    -3.2027 H       
  42 H42           -0.8106    -0.2512    -4.5413 H       
  43 H43            0.3223     0.5789    -5.6349 H       
  44 H44            1.3552    -1.5987    -6.2178 H       
  45 H45            0.2223    -2.4288    -5.1242 H       
  46 H46           -1.6873    -1.5861    -6.4627 H       
  47 H47           -0.5545    -0.7560    -7.5563 H       
  48 H48           -0.5686    -2.5339    -7.4719 H       
@<TRIPOS>BOND
   1    1    2 ar
   2    1    7 1
   3    1    6 ar
   4    2    3 ar
   5    2   24 1
   6    3    4 ar
   7    3   25 1
   8    4    5 ar
   9    4   26 1
  10    5    6 ar
  11    5   27 1
  12    6   28 1
  13    7    8 1
  14    7   29 1
  15    7   30 1
  16    8    9 1
  17    8   23 1
  18    9   10 1
  19    9   31 1
  20    9   32 1
  21   10   11 1
  22   10   33 1
  23   10   34 1
  24   11   12 ar
  25   11   16 ar
  26   12   13 ar
  27   12   35 1
  28   13   14 ar
  29   13   36 1
  30   14   15 ar
  31   14   37 1
  32   15   16 ar
  33   15   38 1
  34   16   39 1
  35   17   18 1
  36   17   22 2
  37   17   23 1
  38   18   19 1
  39   18   40 1
  40   18   41 1
  41   19   20 1
  42   19   42 1
  43   19   43 1
  44   20   21 1
  45   20   44 1
  46   20   45 1
  47   21   46 1
  48   21   47 1
  49   21   48 1

#	End of record

