#	Name: ASD01150701
#	Creating user name:	WinNT
#	Creation time:	15. 06. 2019 19:04

#	Modifying user name:	WinNT
#	Modification time:	15. 06. 2019 19:04

#	Program:	/corina/corina34_cracker 3.40 0067  02.08.2006

@<TRIPOS>MOLECULE
ASD01150701
  47   51    0    0    0
SMALL
NO_CHARGES


@<TRIPOS>ATOM
   1 C1            -0.0813     1.3455    -0.0331 C.2     
   2 O2            -0.3223     1.0772     1.1254 O.2     
   3 C3             3.2674     3.7254    -0.9979 C.ar    
   4 C4             3.4511     2.3465    -0.9349 C.ar    
   5 C5             2.3413     1.5224    -0.6111 C.ar    
   6 C6             1.1000     2.1445    -0.3697 C.ar    
   7 C7             1.0151     3.5412    -0.4577 C.ar    
   8 N8             2.0641     4.2637    -0.7584 N.ar    
   9 C9             4.8300     1.9442    -1.2280 C.2     
  10 C10            5.6404     2.9579    -1.4957 C.2     
  11 S11            4.7881     4.4989    -1.4194 S.3     
  12 C12            7.0503     2.4522    -1.7891 C.3     
  13 C13            6.8755     0.9516    -2.0962 C.3     
  14 C14            5.5935     0.6222    -1.3065 C.3     
  15 C15           -0.3052     4.2214    -0.2024 C.3     
  16 C16            2.4836     0.0539    -0.5299 C.ar    
  17 C17            2.3047    -0.6005     0.6912 C.ar    
  18 C18            2.4378    -1.9699     0.7626 C.ar    
  19 C19            2.7500    -2.6999    -0.3777 C.ar    
  20 C20            2.9291    -2.0527    -1.5940 C.ar    
  21 C21            2.7916    -0.6842    -1.6751 C.ar    
  22 O22            2.8807    -4.0495    -0.3030 O.3     
  23 C23            3.2027    -4.7380    -1.5131 C.3     
  24 C24           -0.9935     0.8518    -1.1263 C.3     
  25 C25           -1.8389    -0.3895    -0.8342 C.3     
  26 C26           -2.5011     0.9880    -0.9038 C.3     
  27 H27            7.4670     2.9701    -2.6529 H       
  28 H28            7.6913     2.5890    -0.9181 H       
  29 H29            6.7306     0.7855    -3.1637 H       
  30 H30            7.7226     0.3753    -1.7241 H       
  31 H31            5.8444     0.2693    -0.3062 H       
  32 H32            5.0034    -0.1256    -1.8364 H       
  33 H33           -0.4240     4.3944     0.8672 H       
  34 H34           -0.3307     5.1750    -0.7297 H       
  35 H35           -1.1160     3.5867    -0.5600 H       
  36 H36            2.0628    -0.0338     1.5781 H       
  37 H37            2.2997    -2.4767     1.7063 H       
  38 H38            3.1724    -2.6235    -2.4779 H       
  39 H39            2.9267    -0.1823    -2.6218 H       
  40 H40            2.4209    -4.5599    -2.2515 H       
  41 H41            4.1551    -4.3722    -1.8969 H       
  42 H42            3.2777    -5.8070    -1.3140 H       
  43 H43           -0.6210     0.9791    -2.1428 H       
  44 H44           -2.0229    -1.0786    -1.6584 H       
  45 H45           -1.7353    -0.8491     0.1488 H       
  46 H46           -2.8332     1.4347     0.0334 H       
  47 H47           -3.1207     1.2052    -1.7738 H       
@<TRIPOS>BOND
   1    1    2 2
   2    1    6 1
   3    1   24 1
   4    3    4 ar
   5    3    8 ar
   6    3   11 1
   7    4    5 ar
   8    4    9 1
   9    5    6 ar
  10    5   16 1
  11    6    7 ar
  12    7    8 ar
  13    7   15 1
  14    9   10 2
  15    9   14 1
  16   10   11 1
  17   10   12 1
  18   12   13 1
  19   12   27 1
  20   12   28 1
  21   13   14 1
  22   13   29 1
  23   13   30 1
  24   14   31 1
  25   14   32 1
  26   15   33 1
  27   15   34 1
  28   15   35 1
  29   16   17 ar
  30   16   21 ar
  31   17   18 ar
  32   17   36 1
  33   18   19 ar
  34   18   37 1
  35   19   20 ar
  36   19   22 1
  37   20   21 ar
  38   20   38 1
  39   21   39 1
  40   22   23 1
  41   23   40 1
  42   23   41 1
  43   23   42 1
  44   24   25 1
  45   24   26 1
  46   24   43 1
  47   25   26 1
  48   25   44 1
  49   25   45 1
  50   26   46 1
  51   26   47 1

#	End of record

