#	Name: ASD09116082
#	Creating user name:	WinNT
#	Creation time:	15. 06. 2019 21:20

#	Modifying user name:	WinNT
#	Modification time:	15. 06. 2019 21:20

#	Program:	/corina/corina34_cracker 3.40 0067  02.08.2006

@<TRIPOS>MOLECULE
ASD09116082
  48   52    0    0    0
SMALL
NO_CHARGES


@<TRIPOS>ATOM
   1 C1             0.0310     1.3915     0.3178 C.ar    
   2 N2             0.0370     0.0002     0.2509 N.pl3   
   3 N3             1.1604    -0.8314     0.1149 N.2     
   4 C4             0.7222    -2.0672     0.0940 C.2     
   5 N5            -0.6110    -2.0623     0.2089 N.2     
   6 C6            -1.0432    -0.8237     0.3102 C.2     
   7 N7            -2.3606    -0.4299     0.4445 N.pl3   
   8 N8             1.5188    -3.2053    -0.0291 N.pl3   
   9 C9             1.2314     2.1136     0.2488 C.ar    
  10 N10           -1.1109     2.0556     0.4422 N.ar    
  11 C11           -1.1224     3.3759     0.5057 C.ar    
  12 N12           -0.0271     4.0938     0.4501 N.ar    
  13 C13            1.1848     3.5094     0.3189 C.ar    
  14 C14            0.9434    -4.4769     0.0756 C.ar    
  15 C15           -0.1809    -4.6645     0.8691 C.ar    
  16 C16           -0.7560    -5.9191     0.9686 C.ar    
  17 C17           -0.2102    -6.9805     0.2767 C.ar    
  18 C18            0.9287    -6.8032    -0.5121 C.ar    
  19 C19            1.4954    -5.5454    -0.6189 C.ar    
  20 O20           -0.7587    -8.2238     0.3124 O.3     
  21 C21           -0.2568    -9.1925     1.1925 C.3     
  22 C22            1.0265    -9.8851     0.7773 C.3     
  23 C23            2.2179    -8.9219     0.8885 C.3     
  24 C24            2.6078    -8.4721    -0.5389 C.3     
  25 O25            1.4684    -7.8701    -1.1512 O.3     
  26 Cl26          -2.6468     4.1905     0.6684 Cl      
  27 C27            2.4590     4.0934     0.2411 C.2     
  28 C28            3.4717     3.2509     0.1131 C.2     
  29 S29            2.9008     1.5909     0.0805 S.3     
  30 C30            2.6609     5.5857     0.2990 C.3     
  31 H31           -3.0655    -1.0957     0.4708 H       
  32 H32           -2.5806     0.5124     0.5126 H       
  33 H33            2.4716    -3.1156    -0.1872 H       
  34 H34           -0.6061    -3.8312     1.4088 H       
  35 H35           -1.6294    -6.0671     1.5863 H       
  36 H36            2.3702    -5.3966    -1.2344 H       
  37 H37           -0.0858    -8.7155     2.1576 H       
  38 H38           -1.0235    -9.9553     1.3278 H       
  39 H39            1.1972   -10.7447     1.4254 H       
  40 H40            0.9341   -10.2255    -0.2540 H       
  41 H41            1.9348    -8.0536     1.4835 H       
  42 H42            3.0602    -9.4309     1.3570 H       
  43 H43            3.4204    -7.7476    -0.4854 H       
  44 H44            2.9227    -9.3374    -1.1223 H       
  45 H45            4.5085     3.5446     0.0401 H       
  46 H46            2.7956     5.8941     1.3357 H       
  47 H47            3.5454     5.8553    -0.2781 H       
  48 H48            1.7878     6.0870    -0.1187 H       
@<TRIPOS>BOND
   1    1    2 1
   2    1    9 ar
   3    1   10 ar
   4    2    3 1
   5    2    6 1
   6    3    4 2
   7    4    5 1
   8    4    8 1
   9    5    6 2
  10    6    7 1
  11    7   31 1
  12    7   32 1
  13    8   14 1
  14    8   33 1
  15    9   13 ar
  16    9   29 1
  17   10   11 ar
  18   11   12 ar
  19   11   26 1
  20   12   13 ar
  21   13   27 1
  22   14   15 ar
  23   14   19 ar
  24   15   16 ar
  25   15   34 1
  26   16   17 ar
  27   16   35 1
  28   17   18 ar
  29   17   20 1
  30   18   19 ar
  31   18   25 1
  32   19   36 1
  33   20   21 1
  34   21   22 1
  35   21   37 1
  36   21   38 1
  37   22   23 1
  38   22   39 1
  39   22   40 1
  40   23   24 1
  41   23   41 1
  42   23   42 1
  43   24   25 1
  44   24   43 1
  45   24   44 1
  46   27   28 2
  47   27   30 1
  48   28   29 1
  49   28   45 1
  50   30   46 1
  51   30   47 1
  52   30   48 1

#	End of record

