#	Name: ASD01940559
#	Creating user name:	WinNT
#	Creation time:	15. 06. 2019 20:12

#	Modifying user name:	WinNT
#	Modification time:	15. 06. 2019 20:12

#	Program:	/corina/corina34_cracker 3.40 0067  02.08.2006

@<TRIPOS>MOLECULE
ASD01940559
  74   74    0    0    0
SMALL
NO_CHARGES


@<TRIPOS>ATOM
   1 C1            -3.0812     3.8618    -2.0820 C.2     
   2 C2            -2.3883     2.5711    -1.8798 C.ar    
   3 C3            -0.9971     2.5036    -1.9686 C.ar    
   4 C4            -0.3465     1.2931    -1.7790 C.ar    
   5 C5            -1.0761     0.1461    -1.5001 C.ar    
   6 C6            -2.4667     0.2069    -1.4100 C.ar    
   7 C7            -3.1231     1.4221    -1.5947 C.ar    
   8 O8            -2.4392     4.8646    -2.3257 O.2     
   9 N9            -4.4251     3.9250    -2.0015 N.am    
  10 C10           -3.2188    -0.9775    -1.1230 C.1     
  11 C11           -3.8353    -1.9485    -0.8878 C.1     
  12 Si12          -4.8331    -3.5199    -0.5070 Si      
  13 C13           -6.6486    -3.1054    -0.4550 C.3     
  14 C14           -6.9452    -2.2686     0.7912 C.3     
  15 C15           -7.0260    -2.3090    -1.7057 C.3     
  16 C16           -4.5237    -4.7890    -1.8353 C.3     
  17 C17           -4.7749    -4.1620    -3.2082 C.3     
  18 C18           -3.0741    -5.2712    -1.7524 C.3     
  19 C19           -4.3053    -4.2062     1.1426 C.3     
  20 C20           -4.2337    -3.0724     2.1674 C.3     
  21 C21           -5.3207    -5.2515     1.6086 C.3     
  22 C22           -5.1116     5.2036    -2.2018 C.3     
  23 C23           -6.6212     4.9999    -2.0582 C.3     
  24 O24           -6.9242     4.6143    -0.7160 O.3     
  25 C25           -8.3158     4.3977    -0.4736 C.3     
  26 C26           -8.5219     3.9917     0.9871 C.3     
  27 O27           -8.1542     5.0778     1.8398 O.3     
  28 C28           -8.3099     4.8013     3.2331 C.3     
  29 C29           -7.8892     6.0270     4.0465 C.3     
  30 O30           -8.7819     7.1090     3.7737 O.3     
  31 C31           -8.4759     8.3089     4.4869 C.3     
  32 N32            1.0464     1.2285    -1.8695 N.pl3   
  33 H33           -0.4265     3.3945    -2.1856 H       
  34 H34           -0.5666    -0.7948    -1.3531 H       
  35 H35           -4.1994     1.4724    -1.5209 H       
  36 H36           -4.9378     3.1239    -1.8109 H       
  37 H37           -7.2308    -4.0263    -0.4212 H       
  38 H38           -6.2301    -1.4485     0.8567 H       
  39 H39           -7.9557    -1.8653     0.7259 H       
  40 H40           -6.8609    -2.8959     1.6786 H       
  41 H41           -6.3480    -1.4626    -1.8158 H       
  42 H42           -6.9498    -2.9520    -2.5825 H       
  43 H43           -8.0489    -1.9451    -1.6098 H       
  44 H44           -5.1966    -5.6348    -1.6936 H       
  45 H45           -4.2239    -3.2248    -3.2858 H       
  46 H46           -4.4391    -4.8465    -3.9872 H       
  47 H47           -5.8406    -3.9682    -3.3296 H       
  48 H48           -2.4012    -4.4254    -1.8942 H       
  49 H49           -2.8951    -5.7179    -0.7744 H       
  50 H50           -2.8931    -6.0137    -2.5296 H       
  51 H51           -3.3240    -4.6708     1.0456 H       
  52 H52           -5.2402    -2.7148     2.3845 H       
  53 H53           -3.7731    -3.4400     3.0843 H       
  54 H54           -3.6369    -2.2547     1.7634 H       
  55 H55           -5.0587    -5.5911     2.6107 H       
  56 H56           -6.3167    -4.8091     1.6236 H       
  57 H57           -5.3100    -6.0992     0.9234 H       
  58 H58           -4.7691     5.9206    -1.4557 H       
  59 H59           -4.8894     5.5829    -3.1992 H       
  60 H60           -7.1374     5.9305    -2.2942 H       
  61 H61           -6.9492     4.2185    -2.7436 H       
  62 H62           -8.8672     5.3158    -0.6768 H       
  63 H63           -8.6790     3.6038    -1.1261 H       
  64 H64           -9.5700     3.7406     1.1500 H       
  65 H65           -7.9011     3.1251     1.2143 H       
  66 H66           -9.3536     4.5670     3.4426 H       
  67 H67           -7.6847     3.9515     3.5070 H       
  68 H68           -7.9232     5.7870     5.1092 H       
  69 H69           -6.8746     6.3149     3.7713 H       
  70 H70           -8.5221     8.1163     5.5588 H       
  71 H71           -7.4735     8.6441     4.2209 H       
  72 H72           -9.1988     9.0815     4.2252 H       
  73 H73            1.5574     2.0296    -2.0648 H       
  74 H74            1.5024     0.3827    -1.7372 H       
@<TRIPOS>BOND
   1    1    2 1
   2    1    8 2
   3    1    9 am
   4    2    3 ar
   5    2    7 ar
   6    3    4 ar
   7    3   33 1
   8    4    5 ar
   9    4   32 1
  10    5    6 ar
  11    5   34 1
  12    6    7 ar
  13    6   10 1
  14    7   35 1
  15    9   22 1
  16    9   36 1
  17   10   11 3
  18   11   12 1
  19   12   13 1
  20   12   16 1
  21   12   19 1
  22   13   14 1
  23   13   15 1
  24   13   37 1
  25   14   38 1
  26   14   39 1
  27   14   40 1
  28   15   41 1
  29   15   42 1
  30   15   43 1
  31   16   17 1
  32   16   18 1
  33   16   44 1
  34   17   45 1
  35   17   46 1
  36   17   47 1
  37   18   48 1
  38   18   49 1
  39   18   50 1
  40   19   20 1
  41   19   21 1
  42   19   51 1
  43   20   52 1
  44   20   53 1
  45   20   54 1
  46   21   55 1
  47   21   56 1
  48   21   57 1
  49   22   23 1
  50   22   58 1
  51   22   59 1
  52   23   24 1
  53   23   60 1
  54   23   61 1
  55   24   25 1
  56   25   26 1
  57   25   62 1
  58   25   63 1
  59   26   27 1
  60   26   64 1
  61   26   65 1
  62   27   28 1
  63   28   29 1
  64   28   66 1
  65   28   67 1
  66   29   30 1
  67   29   68 1
  68   29   69 1
  69   30   31 1
  70   31   70 1
  71   31   71 1
  72   31   72 1
  73   32   73 1
  74   32   74 1

#	End of record

