#	Name: ASD02198742
#	Creating user name:	WinNT
#	Creation time:	15. 06. 2019 20:20

#	Modifying user name:	WinNT
#	Modification time:	15. 06. 2019 20:20

#	Program:	/corina/corina34_cracker 3.40 0067  02.08.2006

@<TRIPOS>MOLECULE
ASD02198742
  50   54    0    0    0
SMALL
NO_CHARGES


@<TRIPOS>ATOM
   1 C1            -0.0433     1.5018    -0.1148 C.2     
   2 C2            -0.0730     0.1620     0.0977 C.2     
   3 N3             1.0712    -0.5394     0.2605 N.pl3   
   4 N4             2.2357    -0.0046     0.2264 N.2     
   5 C5             2.4071     1.2850     0.0278 C.2     
   6 C6             1.2214     2.1359    -0.1603 C.2     
   7 C7             0.9798    -1.9185     0.4775 C.ar    
   8 C8             1.5814    -2.4900     1.5980 C.ar    
   9 C9             1.4886    -3.8554     1.8100 C.ar    
  10 C10            0.7972    -4.6514     0.9074 C.ar    
  11 C11            0.1984    -4.0798    -0.2085 C.ar    
  12 C12            0.2847    -2.7187    -0.4198 C.ar    
  13 C13            3.7641     1.8673    -0.0054 C.2     
  14 N14            4.3056     2.6071    -1.0189 N.pl3   
  15 N15            5.6078     2.9585    -0.6418 N.2     
  16 C16            5.8521     2.4590     0.5435 C.2     
  17 C17            4.7201     1.7720     0.9820 C.2     
  18 C18            3.6720     2.9520    -2.2194 C.ar    
  19 C19            3.8059     4.2352    -2.7332 C.ar    
  20 C20            3.1802     4.5721    -3.9175 C.ar    
  21 C21            2.4210     3.6332    -4.5915 C.ar    
  22 C22            2.2853     2.3547    -4.0822 C.ar    
  23 C23            2.9132     2.0099    -2.9014 C.ar    
  24 O24            1.3243     3.3390    -0.3486 O.2     
  25 N25            0.7034    -6.0333     1.1215 N.pl3   
  26 C26            1.2411    -6.7154     2.1787 C.2     
  27 C27            0.0539    -6.9242     0.3112 C.2     
  28 C28            0.1847    -8.1554     0.8486 C.2     
  29 C29            0.9385    -8.0228     2.0343 C.2     
  30 F30           -0.3169    -9.3043     0.3450 F       
  31 F31            1.2926    -9.0220     2.8719 F       
  32 O32            2.2583    -1.7087     2.4802 O.3     
  33 C33            2.8492    -2.3624     3.6051 C.3     
  34 H34           -0.9547     2.0654    -0.2493 H       
  35 H35           -1.0228    -0.3505     0.1377 H       
  36 H36            1.9541    -4.3005     2.6769 H       
  37 H37           -0.3391    -4.7011    -0.9095 H       
  38 H38           -0.1819    -2.2767    -1.2877 H       
  39 H39            6.7760     2.5648     1.0927 H       
  40 H40            4.6147     1.2525     1.9230 H       
  41 H41            4.3985     4.9690    -2.2071 H       
  42 H42            3.2838     5.5700    -4.3174 H       
  43 H43            1.9327     3.8990    -5.5174 H       
  44 H44            1.6914     1.6237    -4.6108 H       
  45 H45            2.8071     1.0112    -2.5043 H       
  46 H46            1.8097    -6.2826     2.9885 H       
  47 H47           -0.4727    -6.6838    -0.6005 H       
  48 H48            3.5693    -3.1033     3.2579 H       
  49 H49            3.3573    -1.6259     4.2277 H       
  50 H50            2.0718    -2.8564     4.1880 H       
@<TRIPOS>BOND
   1    1    2 2
   2    1    6 1
   3    1   34 1
   4    2    3 1
   5    2   35 1
   6    3    4 1
   7    3    7 1
   8    4    5 2
   9    5    6 1
  10    5   13 1
  11    6   24 2
  12    7    8 ar
  13    7   12 ar
  14    8    9 ar
  15    8   32 1
  16    9   10 ar
  17    9   36 1
  18   10   11 ar
  19   10   25 1
  20   11   12 ar
  21   11   37 1
  22   12   38 1
  23   13   14 1
  24   13   17 2
  25   14   15 1
  26   14   18 1
  27   15   16 2
  28   16   17 1
  29   16   39 1
  30   17   40 1
  31   18   19 ar
  32   18   23 ar
  33   19   20 ar
  34   19   41 1
  35   20   21 ar
  36   20   42 1
  37   21   22 ar
  38   21   43 1
  39   22   23 ar
  40   22   44 1
  41   23   45 1
  42   25   27 1
  43   25   26 1
  44   26   29 2
  45   26   46 1
  46   27   28 2
  47   27   47 1
  48   28   29 1
  49   28   30 1
  50   29   31 1
  51   32   33 1
  52   33   48 1
  53   33   49 1
  54   33   50 1

#	End of record

