#	Name: ASD09790018
#	Creating user name:	WinNT
#	Creation time:	15. 06. 2019 21:24

#	Modifying user name:	WinNT
#	Modification time:	15. 06. 2019 21:24

#	Program:	/corina/corina34_cracker 3.40 0067  02.08.2006

@<TRIPOS>MOLECULE
ASD09790018
  36   39    0    0    0
SMALL
NO_CHARGES


@<TRIPOS>ATOM
   1 C1            -0.2541     2.1069    -0.5399 C.2     
   2 C2            -0.4532     0.6710    -0.2435 C.ar    
   3 C3             0.5839    -0.0306     0.3906 C.ar    
   4 O4             1.7336     0.5847     0.7327 O.3     
   5 C5             2.0771     1.7866     0.2274 C.ar    
   6 C6             1.1276     2.6040    -0.4114 C.ar    
   7 C7            -1.6388     0.0246    -0.5852 C.ar    
   8 C8            -1.7897    -1.3159    -0.3001 C.ar    
   9 C9            -0.7663    -2.0140     0.3225 C.ar    
  10 C10            0.4103    -1.3831     0.6668 C.ar    
  11 C11            1.4928     3.8588    -0.9150 C.ar    
  12 C12            3.3864     2.2340     0.3344 C.ar    
  13 C13            3.7444     3.4735    -0.1731 C.ar    
  14 C14            2.8030     4.2862    -0.7942 C.ar    
  15 O15           -1.1736     2.8317    -0.8741 O.2     
  16 O16            0.5688     4.6490    -1.5170 O.3     
  17 O17            5.0291     3.8982    -0.0628 O.3     
  18 C18            5.2887     4.8232     0.8822 C.2     
  19 C19            6.6379     5.4154     0.9850 C.ar    
  20 O20            4.4131     5.1699     1.6495 O.2     
  21 C21            7.6515     5.0297     0.1056 C.ar    
  22 N22            8.8540     5.5577     0.1975 N.ar    
  23 C23            6.9207     6.3775     1.9626 C.ar    
  24 C24            8.2006     6.9009     2.0165 C.ar    
  25 C25            9.1504     6.4619     1.1119 C.ar    
  26 H26           -2.4350     0.5700    -1.0700 H       
  27 H27           -2.7066    -1.8229    -0.5618 H       
  28 H28           -0.8924    -3.0641     0.5407 H       
  29 H29            1.1988    -1.9400     1.1510 H       
  30 H30            4.1291     1.6145     0.8151 H       
  31 H31            3.0944     5.2510    -1.1822 H       
  32 H32            0.1085     5.2469    -0.9122 H       
  33 H33            7.4474     4.2919    -0.6561 H       
  34 H34            6.1595     6.7028     2.6563 H       
  35 H35            8.4551     7.6448     2.7570 H       
  36 H36           10.1500     6.8686     1.1521 H       
@<TRIPOS>BOND
   1    1    2 1
   2    1    6 1
   3    1   15 2
   4    2    3 ar
   5    2    7 ar
   6    3    4 1
   7    3   10 ar
   8    4    5 1
   9    5   12 ar
  10    5    6 ar
  11    6   11 ar
  12    7    8 ar
  13    7   26 1
  14    8    9 ar
  15    8   27 1
  16    9   10 ar
  17    9   28 1
  18   10   29 1
  19   11   14 ar
  20   11   16 1
  21   12   13 ar
  22   12   30 1
  23   13   14 ar
  24   13   17 1
  25   14   31 1
  26   16   32 1
  27   17   18 1
  28   18   19 1
  29   18   20 2
  30   19   23 ar
  31   19   21 ar
  32   21   22 ar
  33   21   33 1
  34   22   25 ar
  35   23   24 ar
  36   23   34 1
  37   24   25 ar
  38   24   35 1
  39   25   36 1

#	End of record

