#	Name: ASD01152581
#	Creating user name:	WinNT
#	Creation time:	15. 06. 2019 19:06

#	Modifying user name:	WinNT
#	Modification time:	15. 06. 2019 19:06

#	Program:	/corina/corina34_cracker 3.40 0067  02.08.2006

@<TRIPOS>MOLECULE
ASD01152581
  46   48    0    0    0
SMALL
NO_CHARGES


@<TRIPOS>ATOM
   1 C1             0.4616     1.1158     0.7528 C.2     
   2 N2             0.3480    -0.1614     0.5710 N.2     
   3 N3            -0.8543    -0.8216     0.3367 N.am    
   4 C4            -2.0324    -0.1676     0.2781 C.2     
   5 C5            -2.0215     1.3356     0.4770 C.3     
   6 C6            -0.6677     1.9711     0.7322 C.2     
   7 C7            -2.9267     1.6637     1.6660 C.3     
   8 O8            -0.5554     3.1677     0.9040 O.2     
   9 C9             1.8266     1.7054     0.9983 C.3     
  10 C10           -0.8406    -2.2095     0.1555 C.ar    
  11 O11           -3.0682    -0.7631     0.0724 O.2     
  12 C12           -3.0365     3.1592     1.8161 C.ar    
  13 C13           -1.7308    -3.0103     0.8566 C.ar    
  14 C14            0.0607    -2.7864    -0.7311 C.ar    
  15 C15            0.0748    -4.1559    -0.9104 C.ar    
  16 C16           -0.8069    -4.9566    -0.2097 C.ar    
  17 C17           -1.7139    -4.3858     0.6741 C.ar    
  18 C18           -4.0392     3.8478     1.1591 C.ar    
  19 C19           -2.1380     3.8413     2.6152 C.ar    
  20 C20           -2.2385     5.2128     2.7536 C.ar    
  21 C21           -4.1403     5.2194     1.2963 C.ar    
  22 C22           -3.2382     5.9032     2.0918 C.ar    
  23 Cl23          -3.3651     7.6258     2.2651 Cl      
  24 O24            2.8052     0.6642     0.9819 O.3     
  25 N25           -2.6099    -5.1969     1.3793 N.am    
  26 C26           -2.2251    -6.4177     1.8012 C.2     
  27 O27           -1.1320    -6.8473     1.4983 O.2     
  28 C28           -3.1529    -7.2489     2.6494 C.3     
  29 H29           -2.4536     1.7974    -0.4107 H       
  30 H30           -3.9173     1.2420     1.4958 H       
  31 H31           -2.5017     1.2376     2.5748 H       
  32 H32            2.0548     2.4308     0.2174 H       
  33 H33            1.8392     2.2006     1.9692 H       
  34 H34           -2.4350    -2.5641     1.5431 H       
  35 H35            0.7506    -2.1632    -1.2807 H       
  36 H36            0.7763    -4.6018    -1.6000 H       
  37 H37           -0.7938    -6.0270    -0.3527 H       
  38 H38           -4.7433     3.3139     0.5381 H       
  39 H39           -1.3576     3.3022     3.1318 H       
  40 H40           -1.5369     5.7454     3.3785 H       
  41 H41           -4.9235     5.7573     0.7827 H       
  42 H42            3.7093     0.9717     1.1336 H       
  43 H43           -3.5080    -4.8805     1.5644 H       
  44 H44           -4.0807    -6.7016     2.8163 H       
  45 H45           -3.3709    -8.1863     2.1377 H       
  46 H46           -2.6781    -7.4598     3.6076 H       
@<TRIPOS>BOND
   1    1    2 2
   2    1    9 1
   3    1    6 1
   4    2    3 1
   5    3    4 am
   6    3   10 1
   7    4    5 1
   8    4   11 2
   9    5    6 1
  10    5    7 1
  11    5   29 1
  12    6    8 2
  13    7   12 1
  14    7   30 1
  15    7   31 1
  16    9   24 1
  17    9   32 1
  18    9   33 1
  19   10   13 ar
  20   10   14 ar
  21   12   18 ar
  22   12   19 ar
  23   13   17 ar
  24   13   34 1
  25   14   15 ar
  26   14   35 1
  27   15   16 ar
  28   15   36 1
  29   16   17 ar
  30   16   37 1
  31   17   25 1
  32   18   21 ar
  33   18   38 1
  34   19   20 ar
  35   19   39 1
  36   20   22 ar
  37   20   40 1
  38   21   22 ar
  39   21   41 1
  40   22   23 1
  41   24   42 1
  42   25   26 am
  43   25   43 1
  44   26   27 2
  45   26   28 1
  46   28   44 1
  47   28   45 1
  48   28   46 1

#	End of record

