#	Name: ASD01100019
#	Creating user name:	WinNT
#	Creation time:	15. 06. 2019 18:58

#	Modifying user name:	WinNT
#	Modification time:	15. 06. 2019 18:58

#	Program:	/corina/corina34_cracker 3.40 0067  02.08.2006

@<TRIPOS>MOLECULE
ASD01100019
  37   38    0    0    0
SMALL
NO_CHARGES


@<TRIPOS>ATOM
   1 C1             1.5001    -0.3402    -1.9562 C.ar    
   2 C2             2.0128    -1.6125    -1.7758 C.ar    
   3 C3             3.1934    -1.7892    -1.0766 C.ar    
   4 C4             3.8601    -0.6948    -0.5587 C.ar    
   5 C5             3.3473     0.5762    -0.7393 C.ar    
   6 C6             2.1676     0.7535    -1.4379 C.ar    
   7 C7             4.0744     1.7690    -0.1740 C.3     
   8 C8             3.1642     2.4991     0.8157 C.3     
   9 C9             2.8697     1.5857     2.0072 C.3     
  10 C10            3.8605     3.7698     1.3071 C.3     
  11 Cl11           1.1746    -2.9867    -2.4260 Cl      
  12 C12            4.4516     2.7044    -1.2937 C.2     
  13 N13            5.2279     3.7773    -1.0429 N.am    
  14 O14            4.0566     2.4918    -2.4206 O.2     
  15 C15            5.4944     4.7012    -2.0597 C.ar    
  16 C16            6.7123     5.3748    -2.1008 C.ar    
  17 C17            6.9295     6.2800    -3.1270 C.ar    
  18 C18            5.9385     6.4834    -4.0688 C.ar    
  19 N19            4.7953     5.8292    -4.0018 N.ar    
  20 C20            4.5502     4.9555    -3.0460 C.ar    
  21 H21            0.5808    -0.2012    -2.5058 H       
  22 H22            3.5939    -2.7822    -0.9351 H       
  23 H23            4.7815    -0.8327    -0.0125 H       
  24 H24            1.7675     1.7467    -1.5786 H       
  25 H25            4.9759     1.4351     0.3398 H       
  26 H26            2.2295     2.7648     0.3218 H       
  27 H27            3.8043     1.3200     2.5011 H       
  28 H28            2.2212     2.1058     2.7122 H       
  29 H29            2.3736     0.6804     1.6571 H       
  30 H30            4.1023     4.4045     0.4546 H       
  31 H31            3.1978     4.3084     1.9846 H       
  32 H32            4.7773     3.5019     1.8322 H       
  33 H33            5.6019     3.9090    -0.1576 H       
  34 H34            7.4689     5.1963    -1.3510 H       
  35 H35            7.8623     6.8207    -3.1900 H       
  36 H36            6.1025     7.1881    -4.8706 H       
  37 H37            3.6019     4.4391    -3.0241 H       
@<TRIPOS>BOND
   1    1    2 ar
   2    1    6 ar
   3    1   21 1
   4    2    3 ar
   5    2   11 1
   6    3    4 ar
   7    3   22 1
   8    4    5 ar
   9    4   23 1
  10    5    6 ar
  11    5    7 1
  12    6   24 1
  13    7    8 1
  14    7   12 1
  15    7   25 1
  16    8    9 1
  17    8   10 1
  18    8   26 1
  19    9   27 1
  20    9   28 1
  21    9   29 1
  22   10   30 1
  23   10   31 1
  24   10   32 1
  25   12   13 am
  26   12   14 2
  27   13   15 1
  28   13   33 1
  29   15   16 ar
  30   15   20 ar
  31   16   17 ar
  32   16   34 1
  33   17   18 ar
  34   17   35 1
  35   18   19 ar
  36   18   36 1
  37   19   20 ar
  38   20   37 1

#	End of record

