#	Name: ASD01813626
#	Creating user name:	WinNT
#	Creation time:	15. 06. 2019 19:30

#	Modifying user name:	WinNT
#	Modification time:	15. 06. 2019 19:30

#	Program:	/corina/corina34_cracker 3.40 0067  02.08.2006

@<TRIPOS>MOLECULE
ASD01813626
  45   48    0    0    0
SMALL
NO_CHARGES


@<TRIPOS>ATOM
   1 C1             0.0979     1.4754     0.3560 C.ar    
   2 C2             0.0799     0.0882     0.3482 C.ar    
   3 C3             1.2501    -0.6307     0.2176 C.ar    
   4 C4             2.4672     0.0383     0.0917 C.ar    
   5 C5             2.4807     1.4430     0.1001 C.ar    
   6 C6             1.2891     2.1559     0.2330 C.ar    
   7 N7             3.6443    -0.6677    -0.0386 N.pl3   
   8 C8             4.8373    -0.0728    -0.1610 C.2     
   9 C9             4.9774     1.3006    -0.1658 C.2     
  10 C10            3.7745     2.1383    -0.0339 C.2     
  11 O11            3.8448     3.3548    -0.0328 O.2     
  12 C12            6.3052     1.9159    -0.3014 C.2     
  13 O13            6.4289     3.2582    -0.3048 O.3     
  14 O14            7.2919     1.2143    -0.4105 O.2     
  15 C15            3.5871    -2.1316    -0.0427 C.3     
  16 C16            3.4445    -2.6248    -1.4595 C.ar    
  17 C17            4.5602    -2.7693    -2.2641 C.ar    
  18 N18            4.4486    -3.1994    -3.5041 N.ar    
  19 C19            3.2707    -3.5095    -4.0294 C.ar    
  20 C20            2.1053    -3.3874    -3.2761 C.ar    
  21 C21            2.1934    -2.9436    -1.9677 C.ar    
  22 F22            1.2170    -1.9813     0.2121 F       
  23 C23            3.1938    -3.9901    -5.4310 C.ar    
  24 C24            4.3589    -4.1117    -6.1841 C.ar    
  25 C25            4.2715    -4.5616    -7.4909 C.ar    
  26 C26            3.0201    -4.8749    -8.0008 C.ar    
  27 C27            1.9042    -4.7303    -7.1961 C.ar    
  28 N28            2.0163    -4.3055    -5.9546 N.ar    
  29 C29            0.5425    -5.0694    -7.7456 C.3     
  30 F30            0.2618    -6.4173    -7.4972 F       
  31 F31           -0.4232    -4.2699    -7.1248 F       
  32 F32            0.5248    -4.8359    -9.1248 F       
  33 H33           -0.8270     2.0243     0.4545 H       
  34 H34           -0.8602    -0.4345     0.4458 H       
  35 H35            1.3005     3.2358     0.2390 H       
  36 H36            5.7197    -0.6878    -0.2588 H       
  37 H37            7.3224     3.6165    -0.3964 H       
  38 H38            4.5033    -2.5322     0.3910 H       
  39 H39            2.7314    -2.4634     0.5454 H       
  40 H40            5.5360    -2.5260    -1.8704 H       
  41 H41            1.1469    -3.6397    -3.7054 H       
  42 H42            1.3073    -2.8392    -1.3592 H       
  43 H43            5.3172    -3.8585    -5.7552 H       
  44 H44            5.1576    -4.6658    -8.0995 H       
  45 H45            2.9180    -5.2279    -9.0164 H       
@<TRIPOS>BOND
   1    1    2 ar
   2    1    6 ar
   3    1   33 1
   4    2    3 ar
   5    2   34 1
   6    3    4 ar
   7    3   22 1
   8    4    5 ar
   9    4    7 1
  10    5    6 ar
  11    5   10 1
  12    6   35 1
  13    7    8 1
  14    7   15 1
  15    8    9 2
  16    8   36 1
  17    9   10 1
  18    9   12 1
  19   10   11 2
  20   12   13 1
  21   12   14 2
  22   13   37 1
  23   15   16 1
  24   15   38 1
  25   15   39 1
  26   16   17 ar
  27   16   21 ar
  28   17   18 ar
  29   17   40 1
  30   18   19 ar
  31   19   20 ar
  32   19   23 1
  33   20   21 ar
  34   20   41 1
  35   21   42 1
  36   23   24 ar
  37   23   28 ar
  38   24   25 ar
  39   24   43 1
  40   25   26 ar
  41   25   44 1
  42   26   27 ar
  43   26   45 1
  44   27   28 ar
  45   27   29 1
  46   29   30 1
  47   29   31 1
  48   29   32 1

#	End of record

