#	Name: ASD05730032
#	Creating user name:	WinNT
#	Creation time:	15. 06. 2019 21:02

#	Modifying user name:	WinNT
#	Modification time:	15. 06. 2019 21:02

#	Program:	/corina/corina34_cracker 3.40 0067  02.08.2006

@<TRIPOS>MOLECULE
ASD05730032
  58   61    0    0    0
SMALL
NO_CHARGES


@<TRIPOS>ATOM
   1 C1             0.2014     1.5489    -0.1399 C.ar    
   2 C2             0.3958     0.1675    -0.2486 C.ar    
   3 N3            -0.6504    -0.6984    -0.3437 N.2     
   4 C4            -1.7628    -0.6731     0.3009 C.2     
   5 C5            -2.1670     0.3328     1.2950 C.ar    
   6 C6            -1.8568     1.6843     1.1038 C.ar    
   7 N7            -1.0927     2.0784     0.0040 N.pl3   
   8 C8             1.2899     2.4033    -0.1182 C.ar    
   9 C9             2.5768     1.8943    -0.1723 C.ar    
  10 C10            2.7790     0.5272    -0.2480 C.ar    
  11 C11            1.6993    -0.3357    -0.2855 C.ar    
  12 F12            4.0362     0.0339    -0.2854 F       
  13 C13           -2.8715    -0.0559     2.4358 C.ar    
  14 C14           -3.2795     0.8943     3.3514 C.ar    
  15 C15           -2.9965     2.2335     3.1417 C.ar    
  16 C16           -2.2879     2.6293     2.0222 C.ar    
  17 Cl17          -4.1516     0.4074     4.7713 Cl      
  18 C18           -1.6279     3.0237    -0.9790 C.3     
  19 N19           -2.6601    -1.6823     0.0352 N.pl3   
  20 C20           -2.3268    -2.7199    -0.9438 C.3     
  21 C21           -1.5380    -3.8579    -0.2697 C.3     
  22 C22           -2.3117     2.2517    -2.1092 C.3     
  23 C23           -3.6149    -3.3867    -1.4793 C.3     
  24 C24           -3.2131    -4.8797    -1.5806 C.3     
  25 N25           -2.3527    -5.0813    -0.3919 N.am    
  26 C26           -2.3203    -6.1618     0.4130 C.2     
  27 N27           -3.1327    -7.2090     0.1682 N.am    
  28 O28           -1.5583    -6.1920     1.3599 O.2     
  29 C29           -3.0975    -8.3836     1.0430 C.3     
  30 C30           -4.0076    -8.1478     2.2502 C.3     
  31 C31           -3.5842    -9.6106     0.2693 C.3     
  32 F32           -1.3911     1.3817    -2.7031 F       
  33 F33           -3.3816     1.5149    -1.5899 F       
  34 H34            1.1353     3.4705    -0.0592 H       
  35 H35            3.4233     2.5647    -0.1559 H       
  36 H36            1.8636    -1.4015    -0.3442 H       
  37 H37           -3.0975    -1.0988     2.6021 H       
  38 H38           -3.3303     2.9719     3.8557 H       
  39 H39           -2.0711     3.6752     1.8625 H       
  40 H40           -2.3530     3.6787    -0.4959 H       
  41 H41           -0.8140     3.6220    -1.3883 H       
  42 H42           -3.5132    -1.7066     0.4963 H       
  43 H43           -1.7498    -2.2938    -1.7646 H       
  44 H44           -0.5819    -3.9967    -0.7745 H       
  45 H45           -1.3749    -3.6241     0.7823 H       
  46 H46           -2.6824     2.9536    -2.8562 H       
  47 H47           -4.4382    -3.2553    -0.7772 H       
  48 H48           -3.8758    -2.9899    -2.4604 H       
  49 H49           -4.0943    -5.5194    -1.5305 H       
  50 H50           -2.6529    -5.0660    -2.4969 H       
  51 H51           -3.7407    -7.1850    -0.5873 H       
  52 H52           -2.0763    -8.5513     1.3852 H       
  53 H53           -3.6609    -7.2737     2.8013 H       
  54 H54           -5.0288    -7.9801     1.9080 H       
  55 H55           -3.9814    -9.0217     2.9011 H       
  56 H56           -2.9359    -9.7785    -0.5906 H       
  57 H57           -3.5580   -10.4845     0.9203 H       
  58 H58           -4.6054    -9.4428    -0.0728 H       
@<TRIPOS>BOND
   1    1    2 ar
   2    1    8 ar
   3    1    7 1
   4    2    3 1
   5    2   11 ar
   6    3    4 2
   7    4    5 1
   8    4   19 1
   9    5    6 ar
  10    5   13 ar
  11    6    7 1
  12    6   16 ar
  13    7   18 1
  14    8    9 ar
  15    8   34 1
  16    9   10 ar
  17    9   35 1
  18   10   11 ar
  19   10   12 1
  20   11   36 1
  21   13   14 ar
  22   13   37 1
  23   14   15 ar
  24   14   17 1
  25   15   16 ar
  26   15   38 1
  27   16   39 1
  28   18   22 1
  29   18   40 1
  30   18   41 1
  31   19   20 1
  32   19   42 1
  33   20   21 1
  34   20   23 1
  35   20   43 1
  36   21   25 1
  37   21   44 1
  38   21   45 1
  39   22   32 1
  40   22   33 1
  41   22   46 1
  42   23   24 1
  43   23   47 1
  44   23   48 1
  45   24   25 1
  46   24   49 1
  47   24   50 1
  48   25   26 am
  49   26   27 am
  50   26   28 2
  51   27   29 1
  52   27   51 1
  53   29   30 1
  54   29   31 1
  55   29   52 1
  56   30   53 1
  57   30   54 1
  58   30   55 1
  59   31   56 1
  60   31   57 1
  61   31   58 1

#	End of record

