#	Name: ASD01478028
#	Creating user name:	WinNT
#	Creation time:	15. 06. 2019 19:21

#	Modifying user name:	WinNT
#	Modification time:	15. 06. 2019 19:21

#	Program:	/corina/corina34_cracker 3.40 0067  02.08.2006

@<TRIPOS>MOLECULE
ASD01478028
  78   80    0    0    0
SMALL
NO_CHARGES


@<TRIPOS>ATOM
   1 C1             0.5133     0.7625     2.3384 C.3     
   2 C2             0.4469    -0.7550     2.6040 C.3     
   3 C3             1.9126     1.2410     2.6128 C.3     
   4 O4             2.7444     1.2385     1.4350 O.3     
   5 C5             2.6230     0.1049     0.5523 C.3     
   6 C6             2.5187    -1.2006     1.2919 C.3     
   7 C7             1.0281    -1.5308     1.5084 C.3     
   8 C8            -0.9547     2.5973     2.7560 C.2     
   9 O9            -0.4173     1.4512     3.2147 O.3     
  10 N10           -1.8259     3.2860     3.5196 N.am    
  11 O11           -0.6543     3.0107     1.6536 O.2     
  12 C12           -3.6386     4.2141     2.1653 C.3     
  13 C13           -2.4107     4.5331     3.0205 C.3     
  14 C14           -2.8267     5.4104     4.2030 C.3     
  15 C15           -3.3219     6.7624     3.6855 C.3     
  16 N16           -3.5813     7.6538     4.8188 N.am    
  17 S17           -2.4136     8.7148     5.3220 S.o2    
  18 C18           -2.6498    10.2136     4.4262 C.ar    
  19 C19           -3.4750    11.1992     4.9354 C.ar    
  20 C20           -3.6619    12.3752     4.2350 C.ar    
  21 C21           -3.0207    12.5668     3.0198 C.ar    
  22 C22           -2.1932    11.5763     2.5110 C.ar    
  23 C23           -2.0052    10.4044     3.2180 C.ar    
  24 O24           -2.6995     9.0108     6.6820 O.2     
  25 O25           -1.1710     8.1794     4.8878 O.2     
  26 C26           -4.8737     7.6065     5.5071 C.3     
  27 C27           -5.9811     8.0360     4.5426 C.3     
  28 C28           -7.3433     7.8439     5.2122 C.3     
  29 C29           -5.7957     9.5101     4.1771 C.3     
  30 O30           -3.8749     4.7654     4.9291 O.3     
  31 O31           -3.2032    13.7226     2.3287 O.3     
  32 C32           -2.5115    13.8509     1.0849 C.3     
  33 C33           -3.2110     3.4543     0.9361 C.ar    
  34 C34           -3.1568     2.0733     0.9612 C.ar    
  35 C35           -2.7645     1.3763    -0.1663 C.ar    
  36 C36           -2.4269     2.0604    -1.3191 C.ar    
  37 C37           -2.4819     3.4414    -1.3445 C.ar    
  38 C38           -2.8784     4.1382    -0.2183 C.ar    
  39 H39            0.2559     0.9631     1.2984 H       
  40 H40            0.9896    -0.9779     3.5226 H       
  41 H41           -0.5956    -1.0471     2.7306 H       
  42 H42            1.8661     2.2557     3.0083 H       
  43 H43            2.3648     0.5935     3.3640 H       
  44 H44            1.7325     0.2324    -0.0633 H       
  45 H45            3.4962     0.0713    -0.0991 H       
  46 H46            2.9866    -1.9913     0.7053 H       
  47 H47            3.0179    -1.1147     2.2571 H       
  48 H48            0.9297    -2.5924     1.7350 H       
  49 H49            0.4804    -1.3138     0.5913 H       
  50 H50           -2.0657     2.9561     4.3997 H       
  51 H51           -4.3361     3.6077     2.7430 H       
  52 H52           -4.1251     5.1429     1.8674 H       
  53 H53           -1.6746     5.0632     2.4161 H       
  54 H54           -1.9708     5.5642     4.8601 H       
  55 H55           -2.5622     7.2053     3.0414 H       
  56 H56           -4.2413     6.6196     3.1178 H       
  57 H57           -3.9742    11.0494     5.8813 H       
  58 H58           -4.3068    13.1446     4.6330 H       
  59 H59           -1.6929    11.7231     1.5652 H       
  60 H60           -1.3611     9.6331     2.8224 H       
  61 H61           -5.0653     6.5901     5.8509 H       
  62 H62           -4.8547     8.2819     6.3624 H       
  63 H63           -5.9315     7.4286     3.6389 H       
  64 H64           -7.3928     8.4513     6.1159 H       
  65 H65           -8.1322     8.1498     4.5251 H       
  66 H66           -7.4753     6.7937     5.4726 H       
  67 H67           -4.8224     9.6481     3.7064 H       
  68 H68           -6.5806     9.8142     3.4846 H       
  69 H69           -5.8522    10.1181     5.0800 H       
  70 H70           -4.7002     4.6766     4.4330 H       
  71 H71           -2.7440    14.8175     0.6379 H       
  72 H72           -1.4376    13.7793     1.2573 H       
  73 H73           -2.8252    13.0539     0.4107 H       
  74 H74           -3.4206     1.5388     1.8619 H       
  75 H75           -2.7215     0.2973    -0.1464 H       
  76 H76           -2.1197     1.5159    -2.1997 H       
  77 H77           -2.2178     3.9759    -2.2450 H       
  78 H78           -2.9250     5.2170    -0.2393 H       
@<TRIPOS>BOND
   1    1    2 1
   2    1    3 1
   3    1    9 1
   4    1   39 1
   5    2    7 1
   6    2   40 1
   7    2   41 1
   8    3    4 1
   9    3   42 1
  10    3   43 1
  11    4    5 1
  12    5    6 1
  13    5   44 1
  14    5   45 1
  15    6    7 1
  16    6   46 1
  17    6   47 1
  18    7   48 1
  19    7   49 1
  20    8    9 1
  21    8   10 am
  22    8   11 2
  23   10   13 1
  24   10   50 1
  25   12   13 1
  26   12   33 1
  27   12   51 1
  28   12   52 1
  29   13   14 1
  30   13   53 1
  31   14   15 1
  32   14   30 1
  33   14   54 1
  34   15   16 1
  35   15   55 1
  36   15   56 1
  37   16   17 am
  38   16   26 1
  39   17   18 1
  40   17   24 2
  41   17   25 2
  42   18   19 ar
  43   18   23 ar
  44   19   20 ar
  45   19   57 1
  46   20   21 ar
  47   20   58 1
  48   21   22 ar
  49   21   31 1
  50   22   23 ar
  51   22   59 1
  52   23   60 1
  53   26   27 1
  54   26   61 1
  55   26   62 1
  56   27   28 1
  57   27   29 1
  58   27   63 1
  59   28   64 1
  60   28   65 1
  61   28   66 1
  62   29   67 1
  63   29   68 1
  64   29   69 1
  65   30   70 1
  66   31   32 1
  67   32   71 1
  68   32   72 1
  69   32   73 1
  70   33   34 ar
  71   33   38 ar
  72   34   35 ar
  73   34   74 1
  74   35   36 ar
  75   35   75 1
  76   36   37 ar
  77   36   76 1
  78   37   38 ar
  79   37   77 1
  80   38   78 1

#	End of record

