#	Name: ASD03330445
#	Creating user name:	WinNT
#	Creation time:	15. 06. 2019 20:37

#	Modifying user name:	WinNT
#	Modification time:	15. 06. 2019 20:37

#	Program:	/corina/corina34_cracker 3.40 0067  02.08.2006

@<TRIPOS>MOLECULE
ASD03330445
  51   53    0    0    0
SMALL
NO_CHARGES


@<TRIPOS>ATOM
   1 C1            -0.0179     1.4655     0.0101 C.3     
   2 N2             0.0021    -0.0041     0.0020 N.3     
   3 C3             0.4494    -0.5231    -1.3031 C.3     
   4 C4             1.7237     0.1898    -1.6760 C.2     
   5 N5             2.1518     1.3316    -1.0766 N.pl3   
   6 C6             1.4184     2.0045    -0.0007 C.3     
   7 C7             2.6414    -0.1380    -2.6195 C.2     
   8 N8             3.6168     0.7988    -2.5860 N.2     
   9 C9             3.3277     1.6846    -1.6592 C.2     
  10 C10            4.1449     2.8672    -1.3090 C.ar    
  11 C11            2.5861    -1.3041    -3.5187 C.2     
  12 O12            1.6514    -2.0795    -3.4521 O.2     
  13 C13            3.5160    -2.6708    -5.3088 C.3     
  14 N14            3.5711    -1.5114    -4.4149 N.am    
  15 C15           -1.3129    -0.5504     0.3632 C.3     
  16 C16            5.1558     3.2993    -2.1679 C.ar    
  17 C17            5.9145     4.4028    -1.8356 C.ar    
  18 C18            5.6748     5.0801    -0.6533 C.ar    
  19 C19            4.6742     4.6564     0.2029 C.ar    
  20 C20            3.9041     3.5583    -0.1212 C.ar    
  21 C21            2.6707    -2.3279    -6.5371 C.3     
  22 O22            3.3188    -1.3006    -7.2898 O.3     
  23 C23            4.9329    -3.0408    -5.7520 C.3     
  24 C24            5.7423    -3.5033    -4.5388 C.3     
  25 C25            7.1592    -3.8733    -4.9820 C.3     
  26 H26           -0.5467     1.8255    -0.8724 H       
  27 H27           -0.5297     1.8160     0.9063 H       
  28 H28            0.6347    -1.5947    -1.2296 H       
  29 H29           -0.3141    -0.3315    -2.0571 H       
  30 H30            1.4064     3.0795    -0.1803 H       
  31 H31            1.8965     1.7963     0.9564 H       
  32 H32            3.0679    -3.5140    -4.7832 H       
  33 H33            4.3165    -0.8930    -4.4680 H       
  34 H34           -2.0700    -0.1513    -0.3117 H       
  35 H35           -1.2897    -1.6371     0.2814 H       
  36 H36           -1.5545    -0.2682     1.3879 H       
  37 H37            5.3444     2.7710    -3.0908 H       
  38 H38            6.6974     4.7383    -2.4997 H       
  39 H39            6.2716     5.9431    -0.3975 H       
  40 H40            4.4921     5.1892     1.1245 H       
  41 H41            3.1230     3.2287     0.5478 H       
  42 H42            2.5557    -3.2161    -7.1585 H       
  43 H43            1.6889    -1.9792    -6.2167 H       
  44 H44            2.8378    -1.0324    -8.0847 H       
  45 H45            4.8856    -3.8457    -6.4855 H       
  46 H46            5.4130    -2.1700    -6.1986 H       
  47 H47            5.7896    -2.6984    -3.8053 H       
  48 H48            5.2623    -4.3740    -4.0922 H       
  49 H49            7.1119    -4.6782    -5.7155 H       
  50 H50            7.6393    -3.0026    -5.4286 H       
  51 H51            7.7359    -4.2028    -4.1177 H       
@<TRIPOS>BOND
   1    1    2 1
   2    1    6 1
   3    1   26 1
   4    1   27 1
   5    2    3 1
   6    2   15 1
   7    3    4 1
   8    3   28 1
   9    3   29 1
  10    4    5 1
  11    4    7 2
  12    5    6 1
  13    5    9 1
  14    6   30 1
  15    6   31 1
  16    7    8 1
  17    7   11 1
  18    8    9 2
  19    9   10 1
  20   10   16 ar
  21   10   20 ar
  22   11   12 2
  23   11   14 am
  24   13   14 1
  25   13   21 1
  26   13   23 1
  27   13   32 1
  28   14   33 1
  29   15   34 1
  30   15   35 1
  31   15   36 1
  32   16   17 ar
  33   16   37 1
  34   17   18 ar
  35   17   38 1
  36   18   19 ar
  37   18   39 1
  38   19   20 ar
  39   19   40 1
  40   20   41 1
  41   21   22 1
  42   21   42 1
  43   21   43 1
  44   22   44 1
  45   23   24 1
  46   23   45 1
  47   23   46 1
  48   24   25 1
  49   24   47 1
  50   24   48 1
  51   25   49 1
  52   25   50 1
  53   25   51 1

#	End of record

