#	Name: ASD05130107
#	Creating user name:	WinNT
#	Creation time:	15. 06. 2019 20:56

#	Modifying user name:	WinNT
#	Modification time:	15. 06. 2019 20:56

#	Program:	/corina/corina34_cracker 3.40 0067  02.08.2006

@<TRIPOS>MOLECULE
ASD05130107
  77   81    0    0    0
SMALL
NO_CHARGES


@<TRIPOS>ATOM
   1 N1            -0.1616     1.5506     0.1048 N.am    
   2 C2             0.0496     0.4223     0.8111 C.2     
   3 O3             1.1163     0.2435     1.3666 O.2     
   4 N4            -0.9216    -0.5078     0.9017 N.am    
   5 C5            -0.6674    -1.7245     1.5445 C.ar    
   6 C6            -1.6790    -2.3637     2.2495 C.ar    
   7 C7            -1.4251    -3.5645     2.8824 C.ar    
   8 C8            -0.1649    -4.1304     2.8152 C.ar    
   9 C9             0.8444    -3.4963     2.1146 C.ar    
  10 C10            0.5951    -2.2980     1.4741 C.ar    
  11 C11           -2.5221    -4.2588     3.6475 C.3     
  12 N12           -3.2468    -5.1671     2.7487 N.3     
  13 C13           -4.1637    -6.0334     3.5027 C.3     
  14 C14           -4.9552    -6.9065     2.5261 C.3     
  15 N15           -4.0216    -7.7066     1.7211 N.3     
  16 C16           -3.1048    -6.8402     0.9671 C.3     
  17 C17           -2.3133    -5.9671     1.9437 C.3     
  18 C18           -4.7464    -8.6148     0.8223 C.3     
  19 C19            0.8130     2.5565     0.0837 C.ar    
  20 C20            0.4379     3.8858    -0.0879 C.ar    
  21 C21            1.3982     4.8817    -0.1093 C.ar    
  22 C22            2.7330     4.5622     0.0400 C.ar    
  23 C23            3.1171     3.2329     0.2129 C.ar    
  24 C24            2.1500     2.2291     0.2393 C.ar    
  25 C25            3.7754     5.6503     0.0156 C.3     
  26 F26           -0.8668     4.2043    -0.2345 F       
  27 N27            6.3806     2.2140     1.8360 N.am    
  28 C28            5.0783     2.5277     1.6899 C.2     
  29 C29            4.5494     2.8885     0.3726 C.2     
  30 C30            5.3864     2.9050    -0.7096 C.2     
  31 C31            6.7500     2.5716    -0.5306 C.ar    
  32 C32            7.6421     2.5759    -1.6100 C.ar    
  33 N33            8.9063     2.2636    -1.4264 N.ar    
  34 C34            9.3885     1.9359    -0.2323 C.ar    
  35 C35            8.5739     1.9070     0.8907 C.ar    
  36 C36            7.2287     2.2282     0.7528 C.ar    
  37 O37            4.3380     2.5113     2.6572 O.2     
  38 N38           10.7325     1.6162    -0.1060 N.pl3   
  39 C39           11.2790     1.2529     1.2038 C.3     
  40 C40            6.8986     1.8603     3.1599 C.3     
  41 C41            6.7729     0.3500     3.3699 C.3     
  42 H42           -0.9869     1.6644    -0.3921 H       
  43 H43           -1.7967    -0.3338     0.5212 H       
  44 H44           -2.6631    -1.9220     2.3029 H       
  45 H45            0.0313    -5.0694     3.3113 H       
  46 H46            1.8276    -3.9404     2.0645 H       
  47 H47            1.3827    -1.8055     0.9233 H       
  48 H48           -2.0876    -4.8299     4.4680 H       
  49 H49           -3.2124    -3.5161     4.0474 H       
  50 H50           -3.5907    -6.6698     4.1771 H       
  51 H51           -4.8528    -5.4179     4.0808 H       
  52 H52           -5.6151    -7.5704     3.0846 H       
  53 H53           -5.5492    -6.2709     1.8694 H       
  54 H54           -2.4157    -7.4558     0.3890 H       
  55 H55           -3.6778    -6.2039     0.2927 H       
  56 H56           -1.6534    -5.3032     1.3853 H       
  57 H57           -1.7193    -6.6027     2.6004 H       
  58 H58           -5.3779    -8.0336     0.1503 H       
  59 H59           -4.0317    -9.1948     0.2383 H       
  60 H60           -5.3672    -9.2899     1.4112 H       
  61 H61            1.1028     5.9118    -0.2434 H       
  62 H62            2.4427     1.1987     0.3770 H       
  63 H63            3.9385     6.0200     1.0279 H       
  64 H64            4.7090     5.2504    -0.3800 H       
  65 H65            3.4325     6.4677    -0.6188 H       
  66 H66            5.0114     3.1685    -1.6875 H       
  67 H67            7.2904     2.8364    -2.5973 H       
  68 H68            8.9782     1.6387     1.8556 H       
  69 H69           11.3103     1.6331    -0.8849 H       
  70 H70           12.3429     1.0364     1.1063 H       
  71 H71           11.1390     2.0813     1.8984 H       
  72 H72           10.7619     0.3708     1.5814 H       
  73 H73            7.9469     2.1508     3.2294 H       
  74 H74            6.3254     2.3826     3.9259 H       
  75 H75            7.1584     0.0868     4.3549 H       
  76 H76            5.7247     0.0595     3.3005 H       
  77 H77            7.3462    -0.1723     2.6040 H       
@<TRIPOS>BOND
   1    1    2 am
   2    1   19 1
   3    1   42 1
   4    2    3 2
   5    2    4 am
   6    4    5 1
   7    4   43 1
   8    5    6 ar
   9    5   10 ar
  10    6    7 ar
  11    6   44 1
  12    7    8 ar
  13    7   11 1
  14    8    9 ar
  15    8   45 1
  16    9   10 ar
  17    9   46 1
  18   10   47 1
  19   11   12 1
  20   11   48 1
  21   11   49 1
  22   12   13 1
  23   12   17 1
  24   13   14 1
  25   13   50 1
  26   13   51 1
  27   14   15 1
  28   14   52 1
  29   14   53 1
  30   15   16 1
  31   15   18 1
  32   16   17 1
  33   16   54 1
  34   16   55 1
  35   17   56 1
  36   17   57 1
  37   18   58 1
  38   18   59 1
  39   18   60 1
  40   19   20 ar
  41   19   24 ar
  42   20   21 ar
  43   20   26 1
  44   21   22 ar
  45   21   61 1
  46   22   23 ar
  47   22   25 1
  48   23   24 ar
  49   23   29 1
  50   24   62 1
  51   25   63 1
  52   25   64 1
  53   25   65 1
  54   27   28 am
  55   27   36 1
  56   27   40 1
  57   28   29 1
  58   28   37 2
  59   29   30 2
  60   30   31 1
  61   30   66 1
  62   31   32 ar
  63   31   36 ar
  64   32   33 ar
  65   32   67 1
  66   33   34 ar
  67   34   35 ar
  68   34   38 1
  69   35   36 ar
  70   35   68 1
  71   38   39 1
  72   38   69 1
  73   39   70 1
  74   39   71 1
  75   39   72 1
  76   40   41 1
  77   40   73 1
  78   40   74 1
  79   41   75 1
  80   41   76 1
  81   41   77 1

#	End of record

