#	Name: ASD01140551
#	Creating user name:	WinNT
#	Creation time:	15. 06. 2019 19:01

#	Modifying user name:	WinNT
#	Modification time:	15. 06. 2019 19:01

#	Program:	/corina/corina34_cracker 3.40 0067  02.08.2006

@<TRIPOS>MOLECULE
ASD01140551
 174  174    0    0    0
SMALL
NO_CHARGES


@<TRIPOS>ATOM
   1 O1            -1.2948     2.2535     0.8519 O.3     
   2 O2            -2.1423    -0.4508     6.6793 O.2     
   3 O3            -0.5729    -0.8565     2.7756 O.2     
   4 O4             0.8851     1.9673     1.0761 O.2     
   5 O5             2.2688    -0.5572     7.3072 O.2     
   6 O6            -4.8225     0.3997     3.2318 O.2     
   7 O7            -8.5976    -0.7499     0.8571 O.2     
   8 O8           -14.4986     0.4281     4.0242 O.3     
   9 O9             0.6157     5.8799     2.9423 O.2     
  10 O10            4.2883     4.0734     4.6845 O.2     
  11 O11            1.8018     3.6717     8.3906 O.2     
  12 O12            4.7748     7.3022     3.0202 O.3     
  13 O13            2.8953     2.5515    10.8651 O.3     
  14 O14          -11.7463     0.4761     4.1591 O.2     
  15 O15           -7.6127    -5.1839    -0.1077 O.3     
  16 O16           -5.6470    -4.9031     0.8622 O.2     
  17 N17           -2.4207    -1.0084     4.0368 N.am    
  18 N18           -0.1911    -1.5300     6.8435 N.am    
  19 N19           -3.6079    -0.1968     1.4738 N.am    
  20 N20            1.5480     4.4918     1.4580 N.am    
  21 N21           -7.1228    -0.6331     2.5103 N.am    
  22 N22            1.6016     0.9974     8.7789 N.am    
  23 N23          -10.7573    -0.1899     2.2882 N.am    
  24 N24            3.7282     3.5157     7.2667 N.am    
  25 N25            2.8371     5.7779     4.5572 N.am    
  26 C26           -1.6725    -1.9451     4.9067 C.3     
  27 C27           -2.4101     0.4373     2.0299 C.3     
  28 C28           -2.5257    -3.1855     5.1795 C.3     
  29 C29            0.1114     4.7173    -0.5220 C.3     
  30 C30            0.2002     4.2166     0.9211 C.3     
  31 C31            0.0573    -0.8159     8.1119 C.3     
  32 C32           -1.4564     0.8111     0.8933 C.3     
  33 C33            0.0690    -1.8162     9.2696 C.3     
  34 C34           -1.3294    -2.4122     9.4428 C.3     
  35 C35           -1.3613    -1.2493     6.2067 C.2     
  36 C36           -1.7229    -0.5221     2.9671 C.2     
  37 C37           -6.0013    -0.8115     1.5847 C.3     
  38 C38           -9.5443    -0.5782     3.0121 C.3     
  39 C39           -1.3199     4.5448    -1.0344 C.3     
  40 C40           -9.7576    -1.9432     3.6696 C.3     
  41 C41            3.5065     4.8870     6.7657 C.3     
  42 C42           -0.0442     2.7300     0.9556 C.2     
  43 C43            4.5851     5.8175     7.3239 C.3     
  44 C44           -8.5481    -2.2834     4.5426 C.3     
  45 C45            1.3942    -0.1252     8.0278 C.2     
  46 C46           -4.7691    -0.1592     2.1568 C.2     
  47 C47           -1.7015    -4.2092     5.9628 C.3     
  48 C48           -3.7563    -2.7883     5.9973 C.3     
  49 C49            1.0687     3.9105    -1.4015 C.3     
  50 C50            4.4148     5.9444     8.8391 C.3     
  51 C51           -2.0334     0.3241    -0.4374 C.3     
  52 C52           -5.7400    -2.3053     1.3819 C.3     
  53 C53            2.9697     5.6965     3.0843 C.3     
  54 C54            2.9412     1.6136     8.6383 C.3     
  55 C55           -8.3886    -0.6600     2.0484 C.2     
  56 C56            1.6213     5.3690     2.4967 C.2     
  57 C57           -1.2846    -3.5204    10.4967 C.3     
  58 C58           -2.2980    -1.3175     9.8947 C.3     
  59 C59            3.5813     4.8730     5.2606 C.2     
  60 C60          -14.0024     1.4640     3.1741 C.3     
  61 C61          -15.1640     2.0854     2.3960 C.3     
  62 C62           -2.2604     5.4480    -0.2340 C.3     
  63 C63          -12.9876     0.8755     2.1920 C.3     
  64 C64          -16.1156     2.7825     3.3704 C.3     
  65 C65            2.7737     3.0092     8.0948 C.2     
  66 C66          -17.2772     3.4039     2.5923 C.3     
  67 C67           -8.4861    -1.3169     5.7271 C.3     
  68 C68           -8.6801    -3.7170     5.0606 C.3     
  69 C69           -6.9441    -2.9439     0.6867 C.3     
  70 C70          -11.7866     0.3733     2.9513 C.2     
  71 C71            5.5848     6.7418     9.4188 C.3     
  72 C72            3.1024     6.6684     9.1460 C.3     
  73 C73            3.4556     7.0402     2.5374 C.3     
  74 C74            3.6251     1.6736    10.0056 C.3     
  75 C75          -18.2288     4.1010     3.5667 C.3     
  76 C76          -19.3903     4.7224     2.7886 C.3     
  77 C77          -20.3419     5.4195     3.7630 C.3     
  78 C78           -6.6868    -4.4153     0.4870 C.2     
  79 C79          -21.5035     6.0409     2.9849 C.3     
  80 H80           -0.7453    -2.2396     4.4152 H       
  81 H81           -2.6952     1.3368     2.5756 H       
  82 H82           -2.8440    -3.6228     4.2332 H       
  83 H83            0.3858     5.7715    -0.5583 H       
  84 H84           -0.5466     4.7237     1.5319 H       
  85 H85           -0.7277    -0.0776     8.2751 H       
  86 H86           -0.4874     0.3416     1.0628 H       
  87 H87            0.7797    -2.6138     9.0534 H       
  88 H88            0.3629    -1.3065    10.1872 H       
  89 H89           -1.6676    -2.8272     8.4933 H       
  90 H90           -3.3411    -0.7582     4.2136 H       
  91 H91           -6.2442    -0.3518     0.6267 H       
  92 H92            0.4464    -2.1659     6.4826 H       
  93 H93           -9.3257     0.1644     3.7794 H       
  94 H94           -1.3637     4.8180    -2.0887 H       
  95 H95           -1.6257     3.5054    -0.9154 H       
  96 H96           -3.5652    -0.6438     0.6140 H       
  97 H97          -10.6548    -1.9124     4.2878 H       
  98 H98           -9.8741    -2.7040     2.8977 H       
  99 H99            2.5235     5.2366     7.0812 H       
 100 H100           5.5699     5.4064     7.1022 H       
 101 H101           4.4900     6.8011     6.8640 H       
 102 H102          -7.6366    -2.1930     3.9518 H       
 103 H103           2.3398     4.0693     1.0901 H       
 104 H104          -1.4563    -3.8037     6.9444 H       
 105 H105          -2.2791    -5.1258     6.0824 H       
 106 H106          -0.7819    -4.4274     5.4198 H       
 107 H107          -4.3435    -2.0590     5.4392 H       
 108 H108          -4.3641    -3.6720     6.1916 H       
 109 H109          -3.4380    -2.3510     6.9436 H       
 110 H110           0.7943     2.8562    -1.3651 H       
 111 H111           1.0054     4.2671    -2.4296 H       
 112 H112           2.0884     4.0333    -1.0364 H       
 113 H113           4.3949     4.9508     9.2870 H       
 114 H114          -1.3540     0.5904    -1.2471 H       
 115 H115          -2.1547    -0.7587    -0.4063 H       
 116 H116          -3.0024     0.7935    -0.6069 H       
 117 H117          -4.8515    -2.4383     0.7647 H       
 118 H118          -5.5846    -2.7817     2.3499 H       
 119 H119           3.6821     4.9136     2.8239 H       
 120 H120           3.5453     1.0228     7.9497 H       
 121 H121          -6.9543    -0.4957     3.4556 H       
 122 H122           0.9199     1.3647     9.3631 H       
 123 H123          -0.9464    -3.1054    11.4462 H       
 124 H124          -2.2808    -3.9450    10.6201 H       
 125 H125          -0.5945    -4.3003    10.1747 H       
 126 H126          -2.3300    -0.5280     9.1439 H       
 127 H127          -3.2943    -1.7421    10.0181 H       
 128 H128          -1.9599    -0.9024    10.8442 H       
 129 H129         -10.8196    -0.3382     1.3316 H       
 130 H130           4.5130     3.0024     7.0185 H       
 131 H131         -13.5194     2.2308     3.7798 H       
 132 H132         -14.7759     2.8135     1.6837 H       
 133 H133         -15.7017     1.3035     1.8598 H       
 134 H134          -3.2801     5.3252    -0.5991 H       
 135 H135          -2.2166     5.1748     0.8203 H       
 136 H136          -1.9546     6.4874    -0.3531 H       
 137 H137         -13.4453     0.0491     1.6483 H       
 138 H138         -12.6755     1.6458     1.4868 H       
 139 H139         -16.5037     2.0544     4.0828 H       
 140 H140         -15.5779     3.5645     3.9067 H       
 141 H141           2.2629     6.4278     4.9918 H       
 142 H142         -16.8891     4.1320     1.8800 H       
 143 H143         -17.8149     2.6220     2.0561 H       
 144 H144          -7.5861    -1.5135     6.3097 H       
 145 H145          -8.4635    -0.2914     5.3584 H       
 146 H146          -9.3646    -1.4572     6.3569 H       
 147 H147          -8.7243    -4.4056     4.2168 H       
 148 H148          -7.8184    -3.9593     5.6826 H       
 149 H149          -9.5916    -3.8074     5.6514 H       
 150 H150          -7.8327    -2.8110     1.3039 H       
 151 H151          -7.0996    -2.4675    -0.2813 H       
 152 H152           2.2688     6.1003     8.7330 H       
 153 H153           5.5535     7.7623     9.0372 H       
 154 H154           2.9810     6.7588    10.2254 H       
 155 H155           3.1222     7.6620     8.6981 H       
 156 H156           5.5101     6.7581    10.5062 H       
 157 H157           6.5244     6.2731     9.1262 H       
 158 H158           2.7835     7.8318     2.8688 H       
 159 H159           3.4675     7.0062     1.4480 H       
 160 H160           4.6430     2.0448     9.8868 H       
 161 H161           3.6511     0.6755    10.4430 H       
 162 H162         -18.6168     3.3729     4.2791 H       
 163 H163         -17.6911     4.8829     4.1030 H       
 164 H164         -19.0022     5.4505     2.0763 H       
 165 H165         -19.9280     3.9404     2.2524 H       
 166 H166         -20.7300     4.6914     4.4754 H       
 167 H167         -19.8042     6.2014     4.2993 H       
 168 H168         -14.9420    -0.2898     3.5517 H       
 169 H169           5.1471     8.1399     2.7127 H       
 170 H170           3.2728     2.6380    11.7512 H       
 171 H171         -22.1814     6.5375     3.6791 H       
 172 H172         -21.1154     6.7689     2.2726 H       
 173 H173         -22.0412     5.2589     2.4487 H       
 174 H174          -7.4025    -6.1218    -0.2137 H       
@<TRIPOS>BOND
   1    1   32 1
   2    1   42 1
   3    2   35 2
   4    3   36 2
   5    4   42 2
   6    5   45 2
   7    6   46 2
   8    7   55 2
   9    8  168 1
  10    8   60 1
  11    9   56 2
  12   10   59 2
  13   11   65 2
  14   12   73 1
  15   12  169 1
  16   13   74 1
  17   13  170 1
  18   14   70 2
  19   15   78 1
  20   15  174 1
  21   16   78 2
  22   17   26 1
  23   17   36 am
  24   17   90 1
  25   18   31 1
  26   18   35 am
  27   18   92 1
  28   19   46 am
  29   19   96 1
  30   19   27 1
  31   20   30 1
  32   20   56 am
  33   20  103 1
  34   21   55 am
  35   21  121 1
  36   21   37 1
  37   22   45 am
  38   22   54 1
  39   22  122 1
  40   23   70 am
  41   23  129 1
  42   23   38 1
  43   24   41 1
  44   24   65 am
  45   24  130 1
  46   25   53 1
  47   25   59 am
  48   25  141 1
  49   26   28 1
  50   26   35 1
  51   26   80 1
  52   27   32 1
  53   27   36 1
  54   27   81 1
  55   28   47 1
  56   28   48 1
  57   28   82 1
  58   29   30 1
  59   29   39 1
  60   29   49 1
  61   29   83 1
  62   30   42 1
  63   30   84 1
  64   31   33 1
  65   31   45 1
  66   31   85 1
  67   32   51 1
  68   32   86 1
  69   33   34 1
  70   33   87 1
  71   33   88 1
  72   34   57 1
  73   34   58 1
  74   34   89 1
  75   37   46 1
  76   37   52 1
  77   37   91 1
  78   38   40 1
  79   38   55 1
  80   38   93 1
  81   39   62 1
  82   39   94 1
  83   39   95 1
  84   40   44 1
  85   40   97 1
  86   40   98 1
  87   41   43 1
  88   41   59 1
  89   41   99 1
  90   43   50 1
  91   43  100 1
  92   43  101 1
  93   44   67 1
  94   44   68 1
  95   44  102 1
  96   47  104 1
  97   47  105 1
  98   47  106 1
  99   48  107 1
 100   48  108 1
 101   48  109 1
 102   49  110 1
 103   49  111 1
 104   49  112 1
 105   50   71 1
 106   50   72 1
 107   50  113 1
 108   51  114 1
 109   51  115 1
 110   51  116 1
 111   52   69 1
 112   52  117 1
 113   52  118 1
 114   53   56 1
 115   53   73 1
 116   53  119 1
 117   54   65 1
 118   54   74 1
 119   54  120 1
 120   57  123 1
 121   57  124 1
 122   57  125 1
 123   58  126 1
 124   58  127 1
 125   58  128 1
 126   60   61 1
 127   60   63 1
 128   60  131 1
 129   61   64 1
 130   61  132 1
 131   61  133 1
 132   62  134 1
 133   62  135 1
 134   62  136 1
 135   63   70 1
 136   63  137 1
 137   63  138 1
 138   64   66 1
 139   64  139 1
 140   64  140 1
 141   66   75 1
 142   66  142 1
 143   66  143 1
 144   67  144 1
 145   67  145 1
 146   67  146 1
 147   68  147 1
 148   68  148 1
 149   68  149 1
 150   69   78 1
 151   69  150 1
 152   69  151 1
 153   71  153 1
 154   71  156 1
 155   71  157 1
 156   72  152 1
 157   72  154 1
 158   72  155 1
 159   73  158 1
 160   73  159 1
 161   74  160 1
 162   74  161 1
 163   75   76 1
 164   75  162 1
 165   75  163 1
 166   76   77 1
 167   76  164 1
 168   76  165 1
 169   77   79 1
 170   77  166 1
 171   77  167 1
 172   79  171 1
 173   79  172 1
 174   79  173 1

#	End of record

