#	Name: ASD07930779
#	Creating user name:	WinNT
#	Creation time:	15. 06. 2019 21:13

#	Modifying user name:	WinNT
#	Modification time:	15. 06. 2019 21:13

#	Program:	/corina/corina34_cracker 3.40 0067  02.08.2006

@<TRIPOS>MOLECULE
ASD07930779
  46   49    0    0    0
SMALL
NO_CHARGES


@<TRIPOS>ATOM
   1 C1             1.4358     0.1434     1.1350 C.3     
   2 N2             1.9276    -1.5575    -1.2683 N.2     
   3 N3            -0.0800    -2.5859    -0.6575 N.pl3   
   4 C4            -0.4091    -3.7236     0.2075 C.3     
   5 C5            -0.6440    -3.2201     1.6384 C.3     
   6 S6             0.8413    -2.3155     2.1766 S.o2    
   7 N7             1.1119    -1.2675     0.9097 N.am    
   8 C8             1.0148    -1.7970    -0.3693 C.2     
   9 C9             0.7499    -4.7223     0.2012 C.3     
  10 C10           -1.6579    -4.3973    -0.3003 C.ar    
  11 N11           -2.7191    -4.4747     0.4797 N.ar    
  12 C12           -3.8374    -5.0575     0.0749 C.ar    
  13 C13           -3.9264    -5.6114    -1.1980 C.ar    
  14 C14           -2.8296    -5.5454    -2.0385 C.ar    
  15 C15           -1.6784    -4.9205    -1.5780 C.ar    
  16 O16            0.5455    -1.4721     3.2813 O.2     
  17 O17            1.9772    -3.1694     2.1830 O.2     
  18 N18           -4.9322    -5.1167     0.9302 N.pl3   
  19 C19           -4.8954    -4.4511     2.1616 C.ar    
  20 C20           -5.5625    -4.9823     3.2607 C.ar    
  21 C21           -5.5222    -4.3172     4.4813 C.ar    
  22 C22           -4.8178    -3.1282     4.5971 C.ar    
  23 C23           -4.1562    -2.6032     3.5026 C.ar    
  24 C24           -4.1883    -3.2628     2.2889 C.ar    
  25 O25           -6.3117    -6.1153     3.4045 O.3     
  26 C26           -6.3890    -6.3467     4.8237 C.3     
  27 O27           -6.2460    -5.0316     5.3921 O.3     
  28 F28           -7.6286    -6.8979     5.1652 F       
  29 F29           -5.3465    -7.1799     5.2435 F       
  30 H30            2.5168     0.2602     1.2118 H       
  31 H31            1.0642     0.7391     0.3012 H       
  32 H32            0.9673     0.4805     2.0596 H       
  33 H33            1.8437    -1.9359    -2.1575 H       
  34 H34           -0.6287    -2.3907    -1.4332 H       
  35 H35           -1.5066    -2.5540     1.6566 H       
  36 H36           -0.8190    -4.0670     2.3019 H       
  37 H37            1.6520    -4.2345     0.5705 H       
  38 H38            0.5047    -5.5676     0.8442 H       
  39 H39            0.9188    -5.0764    -0.8158 H       
  40 H40           -4.8391    -6.0867    -1.5255 H       
  41 H41           -2.8693    -5.9667    -3.0322 H       
  42 H42           -0.8049    -4.8523    -2.2094 H       
  43 H43           -5.7214    -5.6191     0.6738 H       
  44 H44           -4.7863    -2.6109     5.5447 H       
  45 H45           -3.6090    -1.6769     3.5976 H       
  46 H46           -3.6702    -2.8493     1.4362 H       
@<TRIPOS>BOND
   1    1    7 1
   2    1   30 1
   3    1   31 1
   4    1   32 1
   5    2    8 2
   6    2   33 1
   7    3    4 1
   8    3    8 1
   9    3   34 1
  10    4    5 1
  11    4    9 1
  12    4   10 1
  13    5    6 1
  14    5   35 1
  15    5   36 1
  16    6    7 am
  17    6   16 2
  18    6   17 2
  19    7    8 1
  20    9   37 1
  21    9   38 1
  22    9   39 1
  23   10   11 ar
  24   10   15 ar
  25   11   12 ar
  26   12   13 ar
  27   12   18 1
  28   13   14 ar
  29   13   40 1
  30   14   15 ar
  31   14   41 1
  32   15   42 1
  33   18   19 1
  34   18   43 1
  35   19   20 ar
  36   19   24 ar
  37   20   21 ar
  38   20   25 1
  39   21   22 ar
  40   21   27 1
  41   22   23 ar
  42   22   44 1
  43   23   24 ar
  44   23   45 1
  45   24   46 1
  46   25   26 1
  47   26   27 1
  48   26   28 1
  49   26   29 1

#	End of record

