#	Name: ASD02038025
#	Creating user name:	WinNT
#	Creation time:	15. 06. 2019 20:16

#	Modifying user name:	WinNT
#	Modification time:	15. 06. 2019 20:16

#	Program:	/corina/corina34_cracker 3.40 0067  02.08.2006

@<TRIPOS>MOLECULE
ASD02038025
  52   55    0    0    0
SMALL
NO_CHARGES


@<TRIPOS>ATOM
   1 C1            -0.0176     1.4478     0.0100 C.3     
   2 O2             0.0021    -0.0041     0.0020 O.3     
   3 N3            -1.2414    -1.9783     0.0033 N.am    
   4 C4            -1.1891    -0.6316     0.0100 C.2     
   5 C5            -1.3758    -5.3877    -0.2133 C.3     
   6 O6            -0.5166    -6.1963    -1.0195 O.3     
   7 C7            -0.4459    -7.5188    -0.7118 C.ar    
   8 C8             0.3690    -8.3608    -1.4542 C.ar    
   9 C9            -1.1845    -8.0245     0.3483 C.ar    
  10 C10           -1.1126    -9.3672     0.6623 C.ar    
  11 C11           -0.3012   -10.2115    -0.0838 C.ar    
  12 C12            0.4411    -9.7037    -1.1416 C.ar    
  13 N13           -0.2260   -11.5738     0.2313 N.am    
  14 C14            0.8003   -12.3211    -0.2148 C.2     
  15 C15            1.8962   -11.7071    -1.0436 C.3     
  16 C16            1.3199   -10.6225    -1.9500 C.3     
  17 O17           -2.2170     0.0163     0.0233 O.2     
  18 O18            0.8428   -13.5029     0.0546 O.2     
  19 C19            2.0329     2.2149    -1.2027 C.ar    
  20 C20            1.3962     1.9694    -0.0007 C.ar    
  21 C21           -2.3022    -2.9969     0.0079 C.3     
  22 C22           -1.3247    -3.9403    -0.7066 C.3     
  23 C23           -0.2628    -3.0759    -0.0186 C.3     
  24 C24            3.3297     2.6935    -1.2132 C.ar    
  25 C25            3.9903     2.9265    -0.0203 C.ar    
  26 C26            3.3524     2.6805     1.1827 C.ar    
  27 C27            2.0558     2.2026     1.1919 C.ar    
  28 C28            4.0239     2.9607    -2.5238 C.3     
  29 Cl29           5.6191     3.5269    -0.0326 Cl      
  30 H30           -0.5448     1.8089    -0.8731 H       
  31 H31           -0.5278     1.7993     0.9068 H       
  32 H32           -2.3977    -5.7600    -0.2848 H       
  33 H33           -1.0455    -5.4296     0.8246 H       
  34 H34            0.9468    -7.9660    -2.2768 H       
  35 H35           -1.8156    -7.3676     0.9284 H       
  36 H36           -1.6869    -9.7604     1.4881 H       
  37 H37           -0.9182   -11.9814     0.7750 H       
  38 H38            2.6438   -11.2651    -0.3849 H       
  39 H39            2.3645   -12.4794    -1.6538 H       
  40 H40            0.7290   -11.0857    -2.7401 H       
  41 H41            2.1342   -10.0499    -2.3940 H       
  42 H42            1.5186     2.0287    -2.1340 H       
  43 H43           -2.5770    -3.3328     1.0078 H       
  44 H44           -3.1663    -2.7264    -0.5988 H       
  45 H45           -1.3348    -3.8549    -1.7932 H       
  46 H46            0.6051    -2.8730    -0.6461 H       
  47 H47            0.0089    -3.4314     0.9754 H       
  48 H48            3.8675     2.8626     2.1143 H       
  49 H49            1.5577     2.0109     2.1308 H       
  50 H50            3.8356     3.9893    -2.8316 H       
  51 H51            5.0965     2.8077    -2.4047 H       
  52 H52            3.6417     2.2785    -3.2831 H       
@<TRIPOS>BOND
   1    1    2 1
   2    1   20 1
   3    1   30 1
   4    1   31 1
   5    2    4 1
   6    3    4 am
   7    3   21 1
   8    3   23 1
   9    4   17 2
  10    5    6 1
  11    5   22 1
  12    5   32 1
  13    5   33 1
  14    6    7 1
  15    7    8 ar
  16    7    9 ar
  17    8   12 ar
  18    8   34 1
  19    9   10 ar
  20    9   35 1
  21   10   11 ar
  22   10   36 1
  23   11   12 ar
  24   11   13 1
  25   12   16 1
  26   13   14 am
  27   13   37 1
  28   14   15 1
  29   14   18 2
  30   15   16 1
  31   15   38 1
  32   15   39 1
  33   16   40 1
  34   16   41 1
  35   19   20 ar
  36   19   24 ar
  37   19   42 1
  38   20   27 ar
  39   21   22 1
  40   21   43 1
  41   21   44 1
  42   22   23 1
  43   22   45 1
  44   23   46 1
  45   23   47 1
  46   24   25 ar
  47   24   28 1
  48   25   26 ar
  49   25   29 1
  50   26   27 ar
  51   26   48 1
  52   27   49 1
  53   28   50 1
  54   28   51 1
  55   28   52 1

#	End of record

