#	Name: ASD01140559
#	Creating user name:	WinNT
#	Creation time:	15. 06. 2019 19:01

#	Modifying user name:	WinNT
#	Modification time:	15. 06. 2019 19:01

#	Program:	/corina/corina34_cracker 3.40 0067  02.08.2006

@<TRIPOS>MOLECULE
ASD01140559
  64   68    0    0    0
SMALL
NO_CHARGES


@<TRIPOS>ATOM
   1 C1            -0.2925     1.5123    -0.3494 C.3     
   2 C2            -0.2152    -0.0146    -0.2865 C.3     
   3 C3             0.4425    -0.4381     1.0282 C.3     
   4 C4             1.8531     0.1493     1.1064 C.3     
   5 C5             1.7748     1.6763     1.0426 C.3     
   6 C6             1.1204     2.0963    -0.2761 C.3     
   7 C7             1.9512     1.5644    -1.4446 C.3     
   8 C8             3.1871     2.2608     1.1183 C.3     
   9 C9             4.0198     1.7364    -0.0534 C.3     
  10 C10            3.3670     2.1570    -1.3708 C.3     
  11 C11            2.1252     1.4610    -3.9661 C.3     
  12 C12            1.2702     1.9032    -2.7663 C.3     
  13 C13            3.4724     2.1444    -3.8364 C.3     
  14 C14            4.4981     1.8406    -4.9235 C.3     
  15 C15            4.1474     1.6017    -2.5476 C.3     
  16 C16            5.5802     2.1218    -2.7055 C.3     
  17 C17            5.8734     1.8802    -4.2114 C.3     
  18 C18           -0.3901     0.0770     2.2040 C.3     
  19 H19            1.1801     2.0457     1.8781 H       
  20 H20            3.3144     3.2444    -1.4249 H       
  21 C21            3.2758     3.6572    -3.7195 C.3     
  22 C22            4.4394     2.8889    -6.0045 C.2     
  23 O23            5.1688     3.8500    -5.9538 O.2     
  24 C24            3.4704     2.7379    -7.1487 C.3     
  25 O25            0.5166    -1.8640     1.0859 O.3     
  26 H26            2.0188     0.4795    -1.3636 H       
  27 H27            4.1263     0.5120    -2.5361 H       
  28 H28            1.0683     3.1838    -0.3270 H       
  29 N29            3.6070     3.8784    -8.0580 N.pl3   
  30 N30            3.5115     5.2305    -7.7044 N.2     
  31 C31            3.8528     3.8120    -9.3833 C.2     
  32 C32            3.9066     5.0786    -9.8567 C.2     
  33 C33            3.6894     5.9488    -8.7834 C.2     
  34 H34           -0.7626     1.8142    -1.2854 H       
  35 H35           -0.8824     1.8813     0.4896 H       
  36 H36           -1.2207    -0.4319    -0.3407 H       
  37 H37            0.3769    -0.3832    -1.1242 H       
  38 H38            2.3204    -0.1516     2.0441 H       
  39 H39            2.4469    -0.2193     0.2700 H       
  40 H40            3.1334     3.3483     1.0679 H       
  41 H41            3.6536     1.9633     2.0574 H       
  42 H42            5.0264     2.1508     0.0019 H       
  43 H43            4.0714     0.6487    -0.0045 H       
  44 H44            2.2553     0.3789    -3.9499 H       
  45 H45            1.6439     1.7637    -4.8960 H       
  46 H46            0.3054     1.3980    -2.8103 H       
  47 H47            1.1105     2.9801    -2.8197 H       
  48 H48            4.3196     0.8515    -5.3454 H       
  49 H49            5.6332     3.1842    -2.4677 H       
  50 H50            6.2685     1.5511    -2.0821 H       
  51 H51            6.3909     0.9301    -4.3441 H       
  52 H52            6.4778     2.6948    -4.6103 H       
  53 H53           -1.3949    -0.3420     2.1487 H       
  54 H54            0.0784    -0.2247     3.1407 H       
  55 H55           -0.4471     1.1646     2.1600 H       
  56 H56            2.6285     3.8749    -2.8700 H       
  57 H57            4.2424     4.1390    -3.5727 H       
  58 H58            2.8163     4.0354    -4.6327 H       
  59 H59            3.6857     1.8154    -7.6879 H       
  60 H60            2.4524     2.7026    -6.7605 H       
  61 H61           -0.3431    -2.3046     1.0419 H       
  62 H62            3.9839     2.9098    -9.9622 H       
  63 H63            4.0877     5.3667   -10.8816 H       
  64 H64            3.6731     7.0274    -8.8359 H       
@<TRIPOS>BOND
   1    1    2 1
   2    1    6 1
   3    1   34 1
   4    1   35 1
   5    2    3 1
   6    2   36 1
   7    2   37 1
   8    3    4 1
   9    3   18 1
  10    3   25 1
  11    4    5 1
  12    4   38 1
  13    4   39 1
  14    5    6 1
  15    5    8 1
  16    5   19 1
  17    6    7 1
  18    6   28 1
  19    7   10 1
  20    7   26 1
  21    7   12 1
  22    8    9 1
  23    8   40 1
  24    8   41 1
  25    9   10 1
  26    9   42 1
  27    9   43 1
  28   10   15 1
  29   10   20 1
  30   11   12 1
  31   11   13 1
  32   11   44 1
  33   11   45 1
  34   12   46 1
  35   12   47 1
  36   13   15 1
  37   13   21 1
  38   13   14 1
  39   14   17 1
  40   14   22 1
  41   14   48 1
  42   15   16 1
  43   15   27 1
  44   16   17 1
  45   16   49 1
  46   16   50 1
  47   17   51 1
  48   17   52 1
  49   18   53 1
  50   18   54 1
  51   18   55 1
  52   21   56 1
  53   21   57 1
  54   21   58 1
  55   22   23 2
  56   22   24 1
  57   24   29 1
  58   24   59 1
  59   24   60 1
  60   25   61 1
  61   29   31 1
  62   29   30 1
  63   30   33 2
  64   31   32 2
  65   31   62 1
  66   32   33 1
  67   32   63 1
  68   33   64 1

#	End of record

