#	Name: ASD03090620
#	Creating user name:	WinNT
#	Creation time:	15. 06. 2019 20:29

#	Modifying user name:	WinNT
#	Modification time:	15. 06. 2019 20:29

#	Program:	/corina/corina34_cracker 3.40 0067  02.08.2006

@<TRIPOS>MOLECULE
ASD03090620
  40   41    0    0    0
SMALL
NO_CHARGES


@<TRIPOS>ATOM
   1 N1            -0.0162     1.3436     0.0094 N.am    
   2 C2             0.0197     0.1477     0.6300 C.2     
   3 O3             1.0733    -0.2850     1.0557 O.2     
   4 N4            -1.1123    -0.5685     0.7788 N.am    
   5 S5            -2.4201    -2.8295     1.6863 S.3     
   6 C6            -1.0753    -1.8024     1.4192 C.2     
   7 N7            -0.0152    -2.3676     1.9132 N.2     
   8 N8            -0.1548    -3.4949     2.4640 N.2     
   9 C9            -1.3532    -3.9855     2.4845 C.2     
  10 C10           -1.7627    -5.3065     3.0831 C.3     
  11 F11           -0.6640    -5.8887     3.7242 F       
  12 F12           -2.7886    -5.0997     4.0115 F       
  13 F13           -2.2158    -6.1574     2.0693 F       
  14 C14            1.1451     2.1276    -0.0710 C.ar    
  15 C15            1.0448     3.5109    -0.1996 C.ar    
  16 C16            2.1922     4.2822    -0.2787 C.ar    
  17 C17            3.4390     3.6766    -0.2299 C.ar    
  18 C18            3.5377     2.2984    -0.1017 C.ar    
  19 C19            2.3934     1.5263    -0.0167 C.ar    
  20 O20            4.5657     4.4341    -0.3081 O.3     
  21 C21            4.3903     5.8462    -0.4394 C.3     
  22 C22            5.7592     6.5257    -0.5118 C.3     
  23 O23           -0.1785     4.1032    -0.2478 O.3     
  24 C24           -0.2056     5.5258    -0.3805 C.3     
  25 C25           -1.6576     6.0070    -0.4170 C.3     
  26 Cl26           5.0996     1.5431    -0.0414 Cl      
  27 H27           -0.8437     1.6606    -0.3851 H       
  28 H28           -1.9528    -0.2233     0.4393 H       
  29 H29            2.1162     5.3549    -0.3788 H       
  30 H30            2.4721     0.4543     0.0878 H       
  31 H31            3.8301     6.0597    -1.3497 H       
  32 H32            3.8414     6.2259     0.4224 H       
  33 H33            5.6254     7.6028    -0.6120 H       
  34 H34            6.3194     6.3122     0.3986 H       
  35 H35            6.3081     6.1460    -1.3736 H       
  36 H36            0.3063     5.9797     0.4680 H       
  37 H37            0.2960     5.8142    -1.3042 H       
  38 H38           -1.6783     7.0921    -0.5182 H       
  39 H39           -2.1695     5.5531    -1.2655 H       
  40 H40           -2.1592     5.7186     0.5067 H       
@<TRIPOS>BOND
   1    1    2 am
   2    1   14 1
   3    1   27 1
   4    2    3 2
   5    2    4 am
   6    4    6 1
   7    4   28 1
   8    5    6 1
   9    5    9 1
  10    6    7 2
  11    7    8 1
  12    8    9 2
  13    9   10 1
  14   10   11 1
  15   10   12 1
  16   10   13 1
  17   14   15 ar
  18   14   19 ar
  19   15   16 ar
  20   15   23 1
  21   16   17 ar
  22   16   29 1
  23   17   18 ar
  24   17   20 1
  25   18   19 ar
  26   18   26 1
  27   19   30 1
  28   20   21 1
  29   21   22 1
  30   21   31 1
  31   21   32 1
  32   22   33 1
  33   22   34 1
  34   22   35 1
  35   23   24 1
  36   24   25 1
  37   24   36 1
  38   24   37 1
  39   25   38 1
  40   25   39 1
  41   25   40 1

#	End of record

