#	Name: ASD01912487
#	Creating user name:	WinNT
#	Creation time:	15. 06. 2019 19:59

#	Modifying user name:	WinNT
#	Modification time:	15. 06. 2019 19:59

#	Program:	/corina/corina34_cracker 3.40 0067  02.08.2006

@<TRIPOS>MOLECULE
ASD01912487
  47   50    0    0    0
SMALL
NO_CHARGES


@<TRIPOS>ATOM
   1 C1            -0.0161     1.3325     0.0094 C.2     
   2 O2             0.0021    -0.0041     0.0020 O.3     
   3 N3            -1.1317    -0.4349     0.0113 N.2     
   4 C4            -1.9878     0.5533     0.0253 C.2     
   5 N5            -1.2728     1.7010     0.0291 N.2     
   6 C6            -3.4674     0.4371     0.0397 C.ar    
   7 C7            -4.0696    -0.8188     0.0396 C.ar    
   8 C8            -5.4485    -0.9209     0.0530 C.ar    
   9 C9            -6.2290     0.2233     0.0666 C.ar    
  10 C10           -5.6341     1.4718     0.0667 C.ar    
  11 C11           -4.2586     1.5841     0.0592 C.ar    
  12 F12           -6.0350    -2.1380     0.0525 F       
  13 C13            1.1840     2.2440     0.0028 C.3     
  14 C14            2.1157     2.0508     1.2130 C.3     
  15 N15            3.2270     2.1689     0.2492 N.am    
  16 C16            2.3529     1.7237    -0.8533 C.3     
  17 C17            4.5207     2.5360     0.3396 C.2     
  18 C18            5.3910     2.5384    -0.8907 C.3     
  19 O19            4.9844     2.8644     1.4110 O.2     
  20 C20            6.8033     2.9916    -0.5155 C.3     
  21 C21            7.6869     2.9940    -1.7646 C.3     
  22 C22            7.7434     1.5825    -2.3521 C.3     
  23 C23            6.3310     1.1293    -2.7274 C.3     
  24 C24            5.4474     1.1269    -1.4783 C.3     
  25 C25            8.6269     1.5849    -3.6012 C.3     
  26 H26           -3.4609    -1.7108     0.0287 H       
  27 H27           -7.3058     0.1402     0.0767 H       
  28 H28           -6.2472     2.3608     0.0773 H       
  29 H29           -3.7958     2.5600     0.0596 H       
  30 H30            0.9257     3.2852    -0.1904 H       
  31 H31            2.0722     2.8659     1.9354 H       
  32 H32            2.0375     1.0667     1.6750 H       
  33 H33            2.3444     0.6434    -0.9984 H       
  34 H34            2.4987     2.2775    -1.7807 H       
  35 H35            4.9740     3.2230    -1.6294 H       
  36 H36            6.7631     3.9972    -0.0969 H       
  37 H37            7.2203     2.3070     0.2231 H       
  38 H38            7.2699     3.6786    -2.5032 H       
  39 H39            8.6931     3.3169    -1.4972 H       
  40 H40            8.1603     0.8979    -1.6135 H       
  41 H41            5.9140     1.8139    -3.4660 H       
  42 H42            6.3712     0.1237    -3.1459 H       
  43 H43            5.8644     0.4423    -0.7396 H       
  44 H44            4.4413     0.8041    -1.7456 H       
  45 H45            9.6331     1.9078    -3.3339 H       
  46 H46            8.6672     0.5793    -4.0198 H       
  47 H47            8.2099     2.2695    -4.3398 H       
@<TRIPOS>BOND
   1    1    2 1
   2    1   13 1
   3    1    5 2
   4    2    3 1
   5    3    4 2
   6    4    5 1
   7    4    6 1
   8    6    7 ar
   9    6   11 ar
  10    7    8 ar
  11    7   26 1
  12    8    9 ar
  13    8   12 1
  14    9   10 ar
  15    9   27 1
  16   10   11 ar
  17   10   28 1
  18   11   29 1
  19   13   14 1
  20   13   16 1
  21   13   30 1
  22   14   15 1
  23   14   31 1
  24   14   32 1
  25   15   16 1
  26   15   17 am
  27   16   33 1
  28   16   34 1
  29   17   18 1
  30   17   19 2
  31   18   20 1
  32   18   24 1
  33   18   35 1
  34   20   21 1
  35   20   36 1
  36   20   37 1
  37   21   22 1
  38   21   38 1
  39   21   39 1
  40   22   23 1
  41   22   25 1
  42   22   40 1
  43   23   24 1
  44   23   41 1
  45   23   42 1
  46   24   43 1
  47   24   44 1
  48   25   45 1
  49   25   46 1
  50   25   47 1

#	End of record

