#	Name: ASD08770047
#	Creating user name:	WinNT
#	Creation time:	15. 06. 2019 21:19

#	Modifying user name:	WinNT
#	Modification time:	15. 06. 2019 21:19

#	Program:	/corina/corina34_cracker 3.40 0067  02.08.2006

@<TRIPOS>MOLECULE
ASD08770047
   5    4    0    0    0
SMALL
NO_CHARGES


@<TRIPOS>ATOM
   1 N1            -0.0144     1.2138     0.0087 N.pl3   
   2 O2             0.0021    -0.0041     0.0020 O.2     
   3 O3             1.0320     1.8371     0.0021 O.2     
   4 O4            -1.2502     1.9051     0.0183 O.3     
   5 H5            -2.0247     1.3261     0.0189 H       
@<TRIPOS>BOND
   1    1    2 2
   2    1    3 2
   3    1    4 1
   4    4    5 1

#	End of record

