#	Name: ASD01881448
#	Creating user name:	WinNT
#	Creation time:	15. 06. 2019 19:42

#	Modifying user name:	WinNT
#	Modification time:	15. 06. 2019 19:42

#	Program:	/corina/corina34_cracker 3.40 0067  02.08.2006

@<TRIPOS>MOLECULE
ASD01881448
  53   57    0    0    0
SMALL
NO_CHARGES


@<TRIPOS>ATOM
   1 C1             0.8031     0.2734     3.1166 C.3     
   2 C2             1.4591     9.6345     5.3284 C.ar    
   3 C3             1.7914     8.3518     4.9453 C.ar    
   4 C4             0.1286     9.9830     5.5130 C.ar    
   5 C5            -0.8745     9.0404     5.3123 C.ar    
   6 C6            -0.5482     7.7554     4.9289 C.ar    
   7 C7             0.7891     7.4035     4.7430 C.ar    
   8 C8             1.1436     6.0253     4.3310 C.2     
   9 C9             1.7319     5.7938     3.1017 C.2     
  10 C10            0.8882     4.9327     5.1951 C.2     
  11 C11            1.2110     3.6812     4.8188 C.2     
  12 N12            1.7872     3.4427     3.6043 N.pl3   
  13 C13            2.0565     4.4756     2.7391 C.2     
  14 C14            2.2089     2.3113     2.9746 C.2     
  15 N15            2.6896     2.6640     1.8105 N.2     
  16 N16            2.6059     3.9392     1.6602 N.2     
  17 C17            2.1355     0.9083     3.5200 C.3     
  18 F18           -2.1688     9.3828     5.4933 F       
  19 O19           -0.1950    11.2476     5.8909 O.3     
  20 C20            0.8031    12.1638     5.9708 C.ar    
  21 C21            1.1647    12.9245     4.8616 C.ar    
  22 C22            1.4882    12.3715     7.1659 C.ar    
  23 C23            2.1848    13.8457     4.9837 C.ar    
  24 N24            2.8143    14.0093     6.1317 N.ar    
  25 C25            2.4965    13.3120     7.2063 C.ar    
  26 C26            0.5839    -1.1975     3.4761 C.3     
  27 C27           -0.1677    -0.1037     4.2374 C.3     
  28 C28            3.2494    13.5411     8.4915 C.3     
  29 C29            4.7484    13.3611     8.2435 C.3     
  30 C30            2.0203     6.9380     2.1643 C.3     
  31 F31            3.3419     7.3624     2.3394 F       
  32 F32            1.8372     6.5159     0.8432 F       
  33 F33            1.1497     7.9978     2.4403 F       
  34 H34            0.3762     0.6316     2.1798 H       
  35 H35            2.2358    10.3674     5.4893 H       
  36 H36            2.8273     8.0821     4.8017 H       
  37 H37           -1.3267     7.0233     4.7734 H       
  38 H38            0.4330     5.1041     6.1594 H       
  39 H39            1.0124     2.8556     5.4862 H       
  40 H40            2.2101     0.9367     4.6071 H       
  41 H41            2.9569     0.3175     3.1147 H       
  42 H42            0.6540    12.7950     3.9189 H       
  43 H43            1.2331    11.8042     8.0488 H       
  44 H44            2.4719    14.4399     4.1287 H       
  45 H45            0.0125    -1.8069     2.7761 H       
  46 H46            1.3889    -1.7129     4.0000 H       
  47 H47            0.1427     0.1005     5.2621 H       
  48 H48           -1.2337     0.0064     4.0381 H       
  49 H49            3.0591    14.5532     8.8485 H       
  50 H50            2.9162    12.8229     9.2407 H       
  51 H51            5.0815    14.0793     7.4943 H       
  52 H52            5.2929    13.5268     9.1731 H       
  53 H53            4.9386    12.3490     7.8864 H       
@<TRIPOS>BOND
   1    1   26 1
   2    1   17 1
   3    1   27 1
   4    1   34 1
   5    2    3 ar
   6    2    4 ar
   7    2   35 1
   8    3    7 ar
   9    3   36 1
  10    4    5 ar
  11    4   19 1
  12    5    6 ar
  13    5   18 1
  14    6    7 ar
  15    6   37 1
  16    7    8 1
  17    8    9 2
  18    8   10 1
  19    9   30 1
  20    9   13 1
  21   10   11 2
  22   10   38 1
  23   11   12 1
  24   11   39 1
  25   12   13 1
  26   12   14 1
  27   13   16 2
  28   14   15 2
  29   14   17 1
  30   15   16 1
  31   17   40 1
  32   17   41 1
  33   19   20 1
  34   20   21 ar
  35   20   22 ar
  36   21   23 ar
  37   21   42 1
  38   22   25 ar
  39   22   43 1
  40   23   24 ar
  41   23   44 1
  42   24   25 ar
  43   25   28 1
  44   26   27 1
  45   26   45 1
  46   26   46 1
  47   27   47 1
  48   27   48 1
  49   28   29 1
  50   28   49 1
  51   28   50 1
  52   29   51 1
  53   29   52 1
  54   29   53 1
  55   30   31 1
  56   30   32 1
  57   30   33 1

#	End of record

