#	Name: ASD01811468
#	Creating user name:	WinNT
#	Creation time:	15. 06. 2019 19:26

#	Modifying user name:	WinNT
#	Modification time:	15. 06. 2019 19:26

#	Program:	/corina/corina34_cracker 3.40 0067  02.08.2006

@<TRIPOS>MOLECULE
ASD01811468
  59   62    0    0    0
SMALL
NO_CHARGES


@<TRIPOS>ATOM
   1 C1             0.4221     1.4464     0.0333 C.2     
   2 C2             0.2154    -0.0164     0.0132 C.ar    
   3 C3             1.3122    -0.8776    -0.0753 C.ar    
   4 C4             1.1202    -2.2444    -0.0947 C.ar    
   5 C5            -0.1552    -2.7700    -0.0264 C.ar    
   6 C6            -1.2599    -1.9210     0.0628 C.ar    
   7 C7            -1.0737    -0.5408     0.0882 C.ar    
   8 O8             1.5480     1.9001     0.0784 O.2     
   9 O9            -0.6378     2.2770    -0.0040 O.3     
  10 C10            2.7074    -0.3131    -0.1503 C.3     
  11 C11           -0.3549    -4.2636    -0.0487 C.3     
  12 C12            0.0240    -4.9158    -1.3888 C.3     
  13 C13            0.6321    -6.0651    -0.5678 C.3     
  14 C14            0.8107    -5.0503     0.5738 C.3     
  15 C15           -6.2898    -2.4052     0.2564 C.3     
  16 C16           -4.8051    -2.6694     0.2167 C.2     
  17 C17           -4.2519    -3.9031     0.2608 C.2     
  18 C18           -5.0410    -5.1863     0.3474 C.3     
  19 C19           -6.4621    -4.8626     0.8240 C.3     
  20 N20           -6.9693    -3.7014     0.0780 N.am    
  21 C21           -2.6251    -2.4862     0.1359 C.2     
  22 N22           -3.7885    -1.7690     0.1345 N.pl3   
  23 N23           -2.9258    -3.7655     0.2130 N.2     
  24 C24           -8.0284    -3.8190    -0.7473 C.2     
  25 O25           -8.5767    -4.8949    -0.8827 O.2     
  26 O26           -8.4788    -2.7443    -1.4217 O.3     
  27 C27           -9.6233    -2.9446    -2.2926 C.3     
  28 C28          -10.8122    -3.4395    -1.4665 C.3     
  29 C29           -9.9875    -1.6213    -2.9686 C.3     
  30 C30           -9.2761    -3.9841    -3.3601 C.3     
  31 H31            1.9712    -2.9058    -0.1640 H       
  32 H32           -1.9247     0.1201     0.1616 H       
  33 H33           -0.4526     3.2259     0.0112 H       
  34 H34            3.0621    -0.0862     0.8551 H       
  35 H35            3.3706    -1.0438    -0.6133 H       
  36 H36            2.6987     0.5991    -0.7470 H       
  37 H37           -1.3344    -4.5653     0.3223 H       
  38 H38           -0.8364    -5.2146    -1.9876 H       
  39 H39            0.7604    -4.3484    -1.9578 H       
  40 H40           -0.0770    -6.8604    -0.3380 H       
  41 H41            1.5733    -6.4392    -0.9707 H       
  42 H42            1.7623    -4.5196     0.5413 H       
  43 H43            0.5855    -5.4577     1.5594 H       
  44 H44           -6.5640    -1.9718     1.2183 H       
  45 H45           -6.5676    -1.7265    -0.5500 H       
  46 H46           -5.0835    -5.6560    -0.6353 H       
  47 H47           -4.5629    -5.8619     1.0567 H       
  48 H48           -7.1101    -5.7209     0.6466 H       
  49 H49           -6.4453    -4.6319     1.8892 H       
  50 H50           -3.8731    -0.8040     0.0840 H       
  51 H51          -11.0596    -2.6989    -0.7059 H       
  52 H52          -11.6714    -3.5899    -2.1202 H       
  53 H53          -10.5527    -4.3823    -0.9848 H       
  54 H54           -9.1405    -1.2687    -3.5571 H       
  55 H55          -10.8467    -1.7717    -3.6223 H       
  56 H56          -10.2349    -0.8807    -2.2081 H       
  57 H57           -9.0165    -4.9269    -2.8785 H       
  58 H58          -10.1352    -4.1345    -4.0139 H       
  59 H59           -8.4290    -3.6316    -3.9487 H       
@<TRIPOS>BOND
   1    1    2 1
   2    1    8 2
   3    1    9 1
   4    2    3 ar
   5    2    7 ar
   6    3    4 ar
   7    3   10 1
   8    4    5 ar
   9    4   31 1
  10    5    6 ar
  11    5   11 1
  12    6    7 ar
  13    6   21 1
  14    7   32 1
  15    9   33 1
  16   10   34 1
  17   10   35 1
  18   10   36 1
  19   11   12 1
  20   11   14 1
  21   11   37 1
  22   12   13 1
  23   12   38 1
  24   12   39 1
  25   13   14 1
  26   13   40 1
  27   13   41 1
  28   14   42 1
  29   14   43 1
  30   15   16 1
  31   15   20 1
  32   15   44 1
  33   15   45 1
  34   16   17 2
  35   16   22 1
  36   17   18 1
  37   17   23 1
  38   18   19 1
  39   18   46 1
  40   18   47 1
  41   19   20 1
  42   19   48 1
  43   19   49 1
  44   20   24 am
  45   21   22 1
  46   21   23 2
  47   22   50 1
  48   24   25 2
  49   24   26 1
  50   26   27 1
  51   27   28 1
  52   27   30 1
  53   27   29 1
  54   28   51 1
  55   28   52 1
  56   28   53 1
  57   29   54 1
  58   29   55 1
  59   29   56 1
  60   30   57 1
  61   30   58 1
  62   30   59 1

#	End of record

