#	Name: ASD01913503
#	Creating user name:	WinNT
#	Creation time:	15. 06. 2019 20:01

#	Modifying user name:	WinNT
#	Modification time:	15. 06. 2019 20:01

#	Program:	/corina/corina34_cracker 3.40 0067  02.08.2006

@<TRIPOS>MOLECULE
ASD01913503
  39   41    0    0    0
SMALL
NO_CHARGES


@<TRIPOS>ATOM
   1 C1            -0.6723     1.3759    -0.9553 C.ar    
   2 C2            -0.7269    -0.0154    -0.9870 C.ar    
   3 C3            -0.0947    -0.6762    -2.0375 C.ar    
   4 N4             0.5301     0.0364    -2.9601 N.ar    
   5 C5             0.5590     1.3524    -2.8943 C.ar    
   6 N6            -0.0267     2.0146    -1.9168 N.ar    
   7 C7            -1.4523    -2.1204    -0.0470 C.ar    
   8 C8            -0.3042    -2.8892     0.1487 C.ar    
   9 C9            -0.3971    -4.2648     0.0910 C.ar    
  10 N10           -1.5538    -4.8573    -0.1460 N.ar    
  11 C11           -2.6672    -4.1643    -0.3374 C.ar    
  12 C12           -2.6547    -2.7782    -0.2946 C.ar    
  13 N13           -3.8631    -4.8356    -0.5846 N.am    
  14 C14           -3.8648    -6.1744    -0.7396 C.2     
  15 N15           -1.3982    -0.7300     0.0096 N.pl3   
  16 C16           -5.1126    -6.8737    -1.1125 C.ar    
  17 O17           -2.8403    -6.8068    -0.5728 O.2     
  18 C18           -6.2908    -6.1484    -1.3046 C.ar    
  19 C19           -7.4575    -6.7999    -1.6529 C.ar    
  20 C20           -7.4685    -8.1710    -1.8138 C.ar    
  21 C21           -6.2970    -8.9092    -1.6243 C.ar    
  22 C22           -5.1148    -8.2572    -1.2787 C.ar    
  23 C23           -6.3101   -10.3314    -1.7905 C.1     
  24 C24           -2.0448    -0.0161     1.1134 C.3     
  25 Cl25           1.0256    -5.2299     0.3326 Cl      
  26 N26           -6.3205   -11.4597    -1.9224 N.1     
  27 H27           -1.1537     1.9253    -0.1597 H       
  28 H28           -0.1140    -1.7543    -2.0977 H       
  29 H29            1.0779     1.9044    -3.6640 H       
  30 H30            0.6457    -2.4133     0.3427 H       
  31 H31           -3.5641    -2.2170    -0.4507 H       
  32 H32           -4.6943    -4.3393    -0.6451 H       
  33 H33           -6.2894    -5.0756    -1.1800 H       
  34 H34           -8.3657    -6.2343    -1.7999 H       
  35 H35           -8.3843    -8.6743    -2.0863 H       
  36 H36           -4.2066    -8.8227    -1.1314 H       
  37 H37           -3.0743     0.2170     0.8418 H       
  38 H38           -2.0372    -0.6427     2.0053 H       
  39 H39           -1.5038     0.9086     1.3145 H       
@<TRIPOS>BOND
   1    1    2 ar
   2    1    6 ar
   3    1   27 1
   4    2    3 ar
   5    2   15 1
   6    3    4 ar
   7    3   28 1
   8    4    5 ar
   9    5    6 ar
  10    5   29 1
  11    7    8 ar
  12    7   12 ar
  13    7   15 1
  14    8    9 ar
  15    8   30 1
  16    9   10 ar
  17    9   25 1
  18   10   11 ar
  19   11   12 ar
  20   11   13 1
  21   12   31 1
  22   13   14 am
  23   13   32 1
  24   14   16 1
  25   14   17 2
  26   15   24 1
  27   16   18 ar
  28   16   22 ar
  29   18   19 ar
  30   18   33 1
  31   19   20 ar
  32   19   34 1
  33   20   21 ar
  34   20   35 1
  35   21   22 ar
  36   21   23 1
  37   22   36 1
  38   23   26 3
  39   24   37 1
  40   24   38 1
  41   24   39 1

#	End of record

