#	Name: ASD01150372
#	Creating user name:	WinNT
#	Creation time:	15. 06. 2019 19:04

#	Modifying user name:	WinNT
#	Modification time:	15. 06. 2019 19:04

#	Program:	/corina/corina34_cracker 3.40 0067  02.08.2006

@<TRIPOS>MOLECULE
ASD01150372
  46   49    0    0    0
SMALL
NO_CHARGES


@<TRIPOS>ATOM
   1 C1             2.4323     1.0306     0.4691 C.ar    
   2 C2             2.4139    -0.3108     0.1399 C.ar    
   3 C3             1.4405    -0.8041    -0.7077 C.ar    
   4 C4             0.4768     0.0486    -1.2323 C.ar    
   5 C5             0.4926     1.3971    -0.9036 C.ar    
   6 C6             1.4712     1.8889    -0.0518 C.ar    
   7 N7             1.4904     3.2475     0.2826 N.am    
   8 C8             0.3600     3.8429     0.7017 C.2     
   9 N9             0.3425     5.1478     1.0315 N.am    
  10 C10            1.4711     5.8820     0.9445 C.2     
  11 C11            2.7109     5.2367     0.4866 C.2     
  12 N12            2.6875     3.9661     0.1813 N.2     
  13 O13            1.4632     7.0624     1.2404 O.2     
  14 C14           -0.9032     5.7714     1.4848 C.3     
  15 O15           -0.6637     3.1916     0.7839 O.2     
  16 C16           -1.0094     5.6502     2.9832 C.ar    
  17 C17           -0.4890     6.6407     3.7951 C.ar    
  18 C18           -0.5860     6.5300     5.1694 C.ar    
  19 C19           -1.2042     5.4278     5.7324 C.ar    
  20 C20           -1.7249     4.4369     4.9194 C.ar    
  21 C21           -1.6322     4.5514     3.5451 C.ar    
  22 Cl22          -1.3260     5.2879     7.4585 Cl      
  23 O23            3.8635     5.9489     0.3879 O.3     
  24 C24            5.0230     5.2470    -0.0648 C.3     
  25 N25           -0.5068    -0.4509    -2.0903 N.pl3   
  26 C26           -1.0695    -1.6955    -1.8502 C.2     
  27 N27           -1.8962    -2.3028    -2.6438 N.2     
  28 C28           -2.3351    -3.4867    -2.2565 C.2     
  29 C29           -1.8571    -3.8983    -1.0815 C.2     
  30 S30           -0.7688    -2.6561    -0.4682 S.3     
  31 H31            3.1918     1.4121     1.1354 H       
  32 H32            3.1622    -0.9755     0.5457 H       
  33 H33            1.4289    -1.8534    -0.9631 H       
  34 H34           -0.2550     2.0620    -1.3102 H       
  35 H35           -0.9052     6.8247     1.2045 H       
  36 H36           -1.7513     5.2698     1.0187 H       
  37 H37           -0.0061     7.5009     3.3555 H       
  38 H38           -0.1791     7.3037     5.8036 H       
  39 H39           -2.2076     3.5762     5.3583 H       
  40 H40           -2.0386     3.7779     2.9102 H       
  41 H41            5.8715     5.9304    -0.0979 H       
  42 H42            5.2425     4.4281     0.6202 H       
  43 H43            4.8394     4.8472    -1.0621 H       
  44 H44           -0.7959     0.0730    -2.8538 H       
  45 H45           -3.0256    -4.0739    -2.8437 H       
  46 H46           -2.0926    -4.8324    -0.5931 H       
@<TRIPOS>BOND
   1    1    2 ar
   2    1    6 ar
   3    1   31 1
   4    2    3 ar
   5    2   32 1
   6    3    4 ar
   7    3   33 1
   8    4    5 ar
   9    4   25 1
  10    5    6 ar
  11    5   34 1
  12    6    7 1
  13    7    8 am
  14    7   12 1
  15    8    9 am
  16    8   15 2
  17    9   10 am
  18    9   14 1
  19   10   11 1
  20   10   13 2
  21   11   12 2
  22   11   23 1
  23   14   16 1
  24   14   35 1
  25   14   36 1
  26   16   17 ar
  27   16   21 ar
  28   17   18 ar
  29   17   37 1
  30   18   19 ar
  31   18   38 1
  32   19   20 ar
  33   19   22 1
  34   20   21 ar
  35   20   39 1
  36   21   40 1
  37   23   24 1
  38   24   41 1
  39   24   42 1
  40   24   43 1
  41   25   26 1
  42   25   44 1
  43   26   27 2
  44   26   30 1
  45   27   28 1
  46   28   29 2
  47   28   45 1
  48   29   30 1
  49   29   46 1

#	End of record

