#	Name: ASD01028269
#	Creating user name:	WinNT
#	Creation time:	15. 06. 2019 18:56

#	Modifying user name:	WinNT
#	Modification time:	15. 06. 2019 18:56

#	Program:	/corina/corina34_cracker 3.40 0067  02.08.2006

@<TRIPOS>MOLECULE
ASD01028269
  44   48    0    0    0
SMALL
NO_CHARGES


@<TRIPOS>ATOM
   1 C1            -0.0157     1.3066     0.0092 C.ar    
   2 N2             0.0021    -0.0041     0.0020 N.ar    
   3 C3             1.1590     2.0560     0.0020 C.ar    
   4 C4             2.3700     1.4248    -0.0129 C.ar    
   5 C5             2.3853     0.0171    -0.0205 C.ar    
   6 C6             1.1534    -0.6834    -0.0126 C.ar    
   7 C7             3.5916    -0.7008    -0.0353 C.ar    
   8 C8             3.5644    -2.0622    -0.0419 C.ar    
   9 C9             2.3546    -2.7530    -0.0346 C.ar    
  10 C10            1.1666    -2.0889    -0.0202 C.ar    
  11 C11            4.9405    -3.7053     1.1676 C.2     
  12 N12            5.8922    -3.6501     2.1249 N.pl3   
  13 C13            5.5660    -4.6225     3.0404 C.2     
  14 N14            4.4608    -5.2041     2.6036 N.2     
  15 N15            4.0973    -4.6510     1.4994 N.2     
  16 N16            7.0262    -2.8587     2.3183 N.2     
  17 C17            7.7901    -3.0349     3.3736 C.2     
  18 C18            7.4821    -4.0249     4.3308 C.2     
  19 C19            6.3844    -4.8102     4.1703 C.2     
  20 C20            8.9904    -2.1832     3.5601 C.ar    
  21 C21            9.3049    -1.2026     2.6212 C.ar    
  22 C22           10.4225    -0.4128     2.8001 C.ar    
  23 C23           11.2298    -0.5932     3.9087 C.ar    
  24 C24           10.9225    -1.5650     4.8438 C.ar    
  25 C25            9.8044    -2.3569     4.6778 C.ar    
  26 C26            4.8600    -2.8318    -0.0578 C.3     
  27 C27            4.9186    -3.7061    -1.3121 C.3     
  28 H28           -0.9662     1.8194     0.0165 H       
  29 H29            1.1119     3.1349     0.0079 H       
  30 H30            3.2904     1.9898    -0.0190 H       
  31 H31            4.5357    -0.1763    -0.0418 H       
  32 H32            2.3595    -3.8330    -0.0408 H       
  33 H33            0.2377    -2.6397    -0.0140 H       
  34 H34            8.1194    -4.1586     5.1924 H       
  35 H35            6.1439    -5.5695     4.8997 H       
  36 H36            8.6754    -1.0612     1.7551 H       
  37 H37           10.6673     0.3472     2.0729 H       
  38 H38           12.1036     0.0269     4.0445 H       
  39 H39           11.5565    -1.7018     5.7073 H       
  40 H40            9.5653    -3.1154     5.4086 H       
  41 H41            5.6972    -2.1338    -0.0621 H       
  42 H42            5.8556    -4.2627    -1.3236 H       
  43 H43            4.0814    -4.4041    -1.3078 H       
  44 H44            4.8603    -3.0743    -2.1984 H       
@<TRIPOS>BOND
   1    1    2 ar
   2    1    3 ar
   3    1   28 1
   4    2    6 ar
   5    3    4 ar
   6    3   29 1
   7    4    5 ar
   8    4   30 1
   9    5    6 ar
  10    5    7 ar
  11    6   10 ar
  12    7    8 ar
  13    7   31 1
  14    8    9 ar
  15    8   26 1
  16    9   10 ar
  17    9   32 1
  18   10   33 1
  19   11   12 1
  20   11   26 1
  21   11   15 2
  22   12   13 1
  23   12   16 1
  24   13   14 2
  25   13   19 1
  26   14   15 1
  27   16   17 2
  28   17   18 1
  29   17   20 1
  30   18   19 2
  31   18   34 1
  32   19   35 1
  33   20   21 ar
  34   20   25 ar
  35   21   22 ar
  36   21   36 1
  37   22   23 ar
  38   22   37 1
  39   23   24 ar
  40   23   38 1
  41   24   25 ar
  42   24   39 1
  43   25   40 1
  44   26   27 1
  45   26   41 1
  46   27   42 1
  47   27   43 1
  48   27   44 1

#	End of record

