#	Name: ASD01411012
#	Creating user name:	WinNT
#	Creation time:	15. 06. 2019 19:19

#	Modifying user name:	WinNT
#	Modification time:	15. 06. 2019 19:19

#	Program:	/corina/corina34_cracker 3.40 0067  02.08.2006

@<TRIPOS>MOLECULE
ASD01411012
  69   75    0    0    0
SMALL
NO_CHARGES


@<TRIPOS>ATOM
   1 C1            -0.0024     1.4230     0.0210 C.ar    
   2 C2             0.0162     0.0437     0.3031 C.ar    
   3 C3            -1.1576    -0.6130     0.6537 C.ar    
   4 C4            -2.3339     0.0757     0.7263 C.ar    
   5 C5            -2.3717     1.4485     0.4486 C.ar    
   6 C6            -1.2061     2.1245     0.1008 C.ar    
   7 N7             1.2670     1.7878    -0.2862 N.2     
   8 C8             2.0552     0.7398    -0.2132 C.2     
   9 N9             1.3253    -0.3638     0.1485 N.pl3   
  10 C10            1.8401    -1.7224     0.3365 C.3     
  11 C11            1.4511    -2.2273     1.7275 C.3     
  12 C12            1.9888    -3.6462     1.9238 C.3     
  13 C13            1.3910    -4.5697     0.8605 C.3     
  14 C14            1.7800    -4.0649    -0.5304 C.3     
  15 C15            1.2423    -2.6460    -0.7268 C.3     
  16 C16           -3.6512     2.1812     0.5304 C.2     
  17 O17           -3.6860     3.3724     0.2898 O.2     
  18 N18           -4.7803     1.5294     0.8718 N.am    
  19 C19           -6.0497     2.2564     0.9530 C.3     
  20 C20           -7.2097     1.2830     0.7343 C.3     
  21 C21           -6.1778     2.8931     2.3129 C.2     
  22 C22           -7.1510     0.7389    -0.6699 C.2     
  23 C23           -7.8135     1.2115    -1.7375 C.2     
  24 N24           -7.5119     0.4634    -2.8424 N.pl3   
  25 C25           -6.6239    -0.5357    -2.5032 C.ar    
  26 C26           -6.3551    -0.4018    -1.1295 C.ar    
  27 C27           -6.0070    -1.5511    -3.2266 C.ar    
  28 C28           -5.1452    -2.4199    -2.5957 C.ar    
  29 C29           -4.8817    -2.2938    -1.2340 C.ar    
  30 C30           -5.4783    -1.2884    -0.5000 C.ar    
  31 O31           -4.0278    -3.1604    -0.6264 O.3     
  32 C32            3.5011     0.7481    -0.4793 C.2     
  33 C33           -5.1999     2.8573     3.2230 C.2     
  34 S34           -5.7617     3.7138     4.6566 S.3     
  35 C35           -7.2557     4.0350     3.8897 C.2     
  36 N36           -7.2613     3.5356     2.6999 N.2     
  37 C37            4.2931     1.8561    -0.4936 C.2     
  38 C38            5.6186     1.6057    -0.7675 C.2     
  39 C39            5.9240     0.3200    -0.9763 C.2     
  40 S40            4.4807    -0.6722    -0.8215 S.3     
  41 H41           -1.1390    -1.6712     0.8689 H       
  42 H42           -3.2419    -0.4413     0.9994 H       
  43 H43           -1.2343     3.1826    -0.1134 H       
  44 H44            2.9260    -1.7157     0.2430 H       
  45 H45            1.8770    -1.5693     2.4850 H       
  46 H46            0.3652    -2.2340     1.8210 H       
  47 H47            3.0747    -3.6394     1.8303 H       
  48 H48            1.7117    -4.0058     2.9148 H       
  49 H49            1.7740    -5.5806     1.0004 H       
  50 H50            0.3051    -4.5765     0.9541 H       
  51 H51            2.8659    -4.0582    -0.6240 H       
  52 H52            1.3541    -4.7229    -1.2879 H       
  53 H53            0.1564    -2.6528    -0.6332 H       
  54 H54            1.5194    -2.2864    -1.7177 H       
  55 H55           -4.7526     0.5790     1.0638 H       
  56 H56           -6.0750     3.0301     0.1857 H       
  57 H57           -7.1334     0.4610     1.4459 H       
  58 H58           -8.1550     1.8052     0.8823 H       
  59 H59           -8.4857     2.0568    -1.7258 H       
  60 H60           -7.8697     0.6130    -3.7315 H       
  61 H61           -6.2044    -1.6583    -4.2830 H       
  62 H62           -4.6692    -3.2067    -3.1620 H       
  63 H63           -5.2730    -1.1914     0.5558 H       
  64 H64           -3.1049    -2.8717    -0.6313 H       
  65 H65           -4.2356     2.3865     3.1012 H       
  66 H66           -8.0744     4.5808     4.3349 H       
  67 H67            3.9124     2.8492    -0.3060 H       
  68 H68            6.3589     2.3908    -0.8110 H       
  69 H69            6.9117    -0.0536    -1.2026 H       
@<TRIPOS>BOND
   1    1    2 ar
   2    1    7 1
   3    1    6 ar
   4    2    3 ar
   5    2    9 1
   6    3    4 ar
   7    3   41 1
   8    4    5 ar
   9    4   42 1
  10    5    6 ar
  11    5   16 1
  12    6   43 1
  13    7    8 2
  14    8    9 1
  15    8   32 1
  16    9   10 1
  17   10   11 1
  18   10   15 1
  19   10   44 1
  20   11   12 1
  21   11   45 1
  22   11   46 1
  23   12   13 1
  24   12   47 1
  25   12   48 1
  26   13   14 1
  27   13   49 1
  28   13   50 1
  29   14   15 1
  30   14   51 1
  31   14   52 1
  32   15   53 1
  33   15   54 1
  34   16   17 2
  35   16   18 am
  36   18   19 1
  37   18   55 1
  38   19   20 1
  39   19   21 1
  40   19   56 1
  41   20   22 1
  42   20   57 1
  43   20   58 1
  44   21   33 2
  45   21   36 1
  46   22   23 2
  47   22   26 1
  48   23   24 1
  49   23   59 1
  50   24   25 1
  51   24   60 1
  52   25   26 ar
  53   25   27 ar
  54   26   30 ar
  55   27   28 ar
  56   27   61 1
  57   28   29 ar
  58   28   62 1
  59   29   30 ar
  60   29   31 1
  61   30   63 1
  62   31   64 1
  63   32   37 2
  64   32   40 1
  65   33   34 1
  66   33   65 1
  67   34   35 1
  68   35   36 2
  69   35   66 1
  70   37   38 1
  71   37   67 1
  72   38   39 2
  73   38   68 1
  74   39   40 1
  75   39   69 1

#	End of record

