#	Name: ASD04880024
#	Creating user name:	WinNT
#	Creation time:	15. 06. 2019 20:52

#	Modifying user name:	WinNT
#	Modification time:	15. 06. 2019 20:52

#	Program:	/corina/corina34_cracker 3.40 0067  02.08.2006

@<TRIPOS>MOLECULE
ASD04880024
  83   88    0    0    0
SMALL
NO_CHARGES


@<TRIPOS>ATOM
   1 C1             0.1034     1.1569     0.0599 C.ar    
   2 C2             0.0413    -0.2314     0.0743 C.ar    
   3 C3            -1.1782    -0.8688     0.1389 C.ar    
   4 C4            -2.3571    -0.1205     0.1903 C.ar    
   5 C5            -2.2974     1.2762     0.1764 C.ar    
   6 C6            -1.0719     1.9117     0.1173 C.ar    
   7 C7            -3.6631    -0.8034     0.2586 C.2     
   8 O8            -4.6885    -0.1514     0.3032 O.2     
   9 N9            -3.7196    -2.1499     0.2714 N.am    
  10 C10           -5.0165    -2.8280     0.3392 C.3     
  11 C11           -4.8006    -4.3427     0.3401 C.3     
  12 C12           -6.1550    -5.0508     0.4109 C.3     
  13 N13           -5.9482    -6.5012     0.4118 N.am    
  14 C14           -5.7729    -7.3119     1.6226 C.3     
  15 C15           -5.1657    -8.6478     1.1397 C.3     
  16 C16           -5.6599    -8.7078    -0.3242 C.3     
  17 C17           -5.9005    -7.2612    -0.6959 C.2     
  18 O18           -6.0248    -6.8464    -1.8288 O.2     
  19 N19           -1.0078     3.3113     0.1033 N.am    
  20 C20           -1.9716     4.0239    -0.5130 C.2     
  21 C21           -1.9731     5.4951    -0.4214 C.2     
  22 O22           -2.8402     3.4530    -1.1447 O.2     
  23 C23           -2.8775     6.3396    -0.9881 C.2     
  24 O24           -2.5088     7.5874    -0.6569 O.3     
  25 C25           -1.4025     7.5117     0.0964 C.2     
  26 N26           -1.0738     6.2641     0.2504 N.2     
  27 N27            1.3383     1.7970    -0.0060 N.3     
  28 C28            1.4900     2.5192    -1.2769 C.3     
  29 C29            2.4378     0.8415     0.1880 C.3     
  30 C30            3.7703     1.5944     0.1881 C.3     
  31 N31            3.9220     2.3165    -1.0828 N.3     
  32 C32            2.8225     3.2721    -1.2768 C.3     
  33 C33            5.1607     2.9586    -1.1489 C.ar    
  34 C34            6.0896     2.5818    -2.1103 C.ar    
  35 C35            5.4642     3.9795    -0.2568 C.ar    
  36 C36            6.6896     4.6122    -0.3249 C.ar    
  37 C37            7.6143     4.2309    -1.2801 C.ar    
  38 C38            7.3136     3.2189    -2.1728 C.ar    
  39 C39            5.7626     1.4789    -3.0838 C.3     
  40 C40            3.0020     3.9921    -2.6148 C.3     
  41 C41           -0.6607     8.6876     0.6778 C.3     
  42 C42           -0.0996     9.7223    -0.2997 C.3     
  43 C43           -1.3172    10.0647     0.5612 C.3     
  44 H44            0.9512    -0.8119     0.0343 H       
  45 H45           -1.2232    -1.9479     0.1496 H       
  46 H46           -3.2070     1.8572     0.2161 H       
  47 H47           -2.9016    -2.6700     0.2358 H       
  48 H48           -5.5329    -2.5340     1.2530 H       
  49 H49           -5.6188    -2.5474    -0.5248 H       
  50 H50           -4.2842    -4.6366    -0.5737 H       
  51 H51           -4.1982    -4.6233     1.2042 H       
  52 H52           -6.6713    -4.7569     1.3247 H       
  53 H53           -6.7573    -4.7702    -0.4531 H       
  54 H54           -5.0912    -6.8156     2.3134 H       
  55 H55           -6.7359    -7.4868     2.1022 H       
  56 H56           -4.0769    -8.6197     1.1831 H       
  57 H57           -5.5561    -9.4853     1.7179 H       
  58 H58           -4.8971    -9.1478    -0.9666 H       
  59 H59           -6.5888    -9.2743    -0.3904 H       
  60 H60           -0.2697     3.7674     0.5370 H       
  61 H61           -3.7296     6.0594    -1.5896 H       
  62 H62            1.4739     1.8084    -2.1031 H       
  63 H63            0.6711     3.2293    -1.3916 H       
  64 H64            2.3099     0.3286     1.1412 H       
  65 H65            2.4325     0.1117    -0.6216 H       
  66 H66            3.7864     2.3052     1.0143 H       
  67 H67            4.5892     0.8843     0.3028 H       
  68 H68            2.8278     4.0018    -0.4672 H       
  69 H69            4.7422     4.2782     0.4889 H       
  70 H70            6.9262     5.4059     0.3683 H       
  71 H71            8.5718     4.7279    -1.3316 H       
  72 H72            8.0379     2.9235    -2.9175 H       
  73 H73            5.2904     1.9041    -3.9694 H       
  74 H74            6.6796     0.9651    -3.3722 H       
  75 H75            5.0812     0.7697    -2.6138 H       
  76 H76            2.9957     3.2619    -3.4241 H       
  77 H77            2.1863     4.7007    -2.7584 H       
  78 H78            3.9520     4.5266    -2.6152 H       
  79 H79           -0.0822     8.4801     1.5779 H       
  80 H80            0.8479    10.1957    -0.0425 H       
  81 H81           -0.2670     9.5525    -1.3633 H       
  82 H82           -2.2856    10.1202     0.0640 H       
  83 H83           -1.1706    10.7634     1.3849 H       
@<TRIPOS>BOND
   1    1    2 ar
   2    1   27 1
   3    1    6 ar
   4    2    3 ar
   5    2   44 1
   6    3    4 ar
   7    3   45 1
   8    4    5 ar
   9    4    7 1
  10    5    6 ar
  11    5   46 1
  12    6   19 1
  13    7    8 2
  14    7    9 am
  15    9   10 1
  16    9   47 1
  17   10   11 1
  18   10   48 1
  19   10   49 1
  20   11   12 1
  21   11   50 1
  22   11   51 1
  23   12   13 1
  24   12   52 1
  25   12   53 1
  26   13   14 1
  27   13   17 am
  28   14   15 1
  29   14   54 1
  30   14   55 1
  31   15   16 1
  32   15   56 1
  33   15   57 1
  34   16   17 1
  35   16   58 1
  36   16   59 1
  37   17   18 2
  38   19   20 am
  39   19   60 1
  40   20   21 1
  41   20   22 2
  42   21   23 2
  43   21   26 1
  44   23   24 1
  45   23   61 1
  46   24   25 1
  47   25   26 2
  48   25   41 1
  49   27   28 1
  50   27   29 1
  51   28   32 1
  52   28   62 1
  53   28   63 1
  54   29   30 1
  55   29   64 1
  56   29   65 1
  57   30   31 1
  58   30   66 1
  59   30   67 1
  60   31   32 1
  61   31   33 1
  62   32   40 1
  63   32   68 1
  64   33   34 ar
  65   33   35 ar
  66   34   39 1
  67   34   38 ar
  68   35   36 ar
  69   35   69 1
  70   36   37 ar
  71   36   70 1
  72   37   38 ar
  73   37   71 1
  74   38   72 1
  75   39   73 1
  76   39   74 1
  77   39   75 1
  78   40   76 1
  79   40   77 1
  80   40   78 1
  81   41   42 1
  82   41   43 1
  83   41   79 1
  84   42   43 1
  85   42   80 1
  86   42   81 1
  87   43   82 1
  88   43   83 1

#	End of record

