#	Name: ASD01884498
#	Creating user name:	WinNT
#	Creation time:	15. 06. 2019 19:48

#	Modifying user name:	WinNT
#	Modification time:	15. 06. 2019 19:48

#	Program:	/corina/corina34_cracker 3.40 0067  02.08.2006

@<TRIPOS>MOLECULE
ASD01884498
  40   43    0    0    0
SMALL
NO_CHARGES


@<TRIPOS>ATOM
   1 C1            -0.0164     1.3574     0.0095 C.2     
   2 C2             0.0021    -0.0041     0.0020 C.2     
   3 C3             1.2443    -0.6751    -0.0134 C.2     
   4 C4             2.4028     0.0469    -0.0206 C.2     
   5 N5             2.3702     1.4023    -0.0126 N.am    
   6 C6             1.1988     2.0651     0.0017 C.2     
   7 C7             3.6267     2.1556    -0.0196 C.3     
   8 O8             1.1912     3.2855     0.0083 O.2     
   9 C9             4.0448     2.4220    -1.4427 C.ar    
  10 C10            3.6209     3.5711    -2.0838 C.ar    
  11 C11            4.0040     3.8159    -3.3890 C.ar    
  12 C12            4.8119     2.9108    -4.0539 C.ar    
  13 C13            5.2358     1.7609    -3.4118 C.ar    
  14 C14            4.8566     1.5199    -2.1047 C.ar    
  15 Cl15           5.2930     3.2174    -5.6935 Cl      
  16 C16            1.2902    -2.1579    -0.0214 C.ar    
  17 C17            0.8163    -2.8772     1.0655 C.ar    
  18 C18            1.8085    -2.8435    -1.1319 C.ar    
  19 N19            1.8605    -4.1507    -1.1668 N.ar    
  20 C20            1.4237    -4.8984    -0.1475 C.ar    
  21 C21            0.8822    -4.2803     1.0074 C.ar    
  22 C22            1.4882    -6.3016    -0.2031 C.ar    
  23 C23            1.0379    -7.0416     0.8466 C.ar    
  24 C24            0.5101    -6.4317     1.9830 C.ar    
  25 C25            0.4272    -5.0759     2.0726 C.ar    
  26 H26           -0.9563     1.8893     0.0169 H       
  27 H27           -0.9217    -0.5636     0.0082 H       
  28 H28            3.3533    -0.4658    -0.0325 H       
  29 H29            3.4854     3.1028     0.5010 H       
  30 H30            4.4005     1.5761     0.4840 H       
  31 H31            2.9899     4.2774    -1.5647 H       
  32 H32            3.6725     4.7135    -3.8898 H       
  33 H33            5.8665     1.0540    -3.9303 H       
  34 H34            5.1875     0.6224    -1.6033 H       
  35 H35            0.4093    -2.3747     1.9305 H       
  36 H36            2.1724    -2.2787    -1.9774 H       
  37 H37            1.8937    -6.7910    -1.0763 H       
  38 H38            1.0902    -8.1192     0.7980 H       
  39 H39            0.1595    -7.0425     2.8017 H       
  40 H40            0.0162    -4.6142     2.9582 H       
@<TRIPOS>BOND
   1    1    2 2
   2    1    6 1
   3    1   26 1
   4    2    3 1
   5    2   27 1
   6    3    4 2
   7    3   16 1
   8    4    5 1
   9    4   28 1
  10    5    6 am
  11    5    7 1
  12    6    8 2
  13    7    9 1
  14    7   29 1
  15    7   30 1
  16    9   10 ar
  17    9   14 ar
  18   10   11 ar
  19   10   31 1
  20   11   12 ar
  21   11   32 1
  22   12   13 ar
  23   12   15 1
  24   13   14 ar
  25   13   33 1
  26   14   34 1
  27   16   17 ar
  28   16   18 ar
  29   17   21 ar
  30   17   35 1
  31   18   19 ar
  32   18   36 1
  33   19   20 ar
  34   20   21 ar
  35   20   22 ar
  36   21   25 ar
  37   22   23 ar
  38   22   37 1
  39   23   24 ar
  40   23   38 1
  41   24   25 ar
  42   24   39 1
  43   25   40 1

#	End of record

