#	Name: ASD05430597
#	Creating user name:	WinNT
#	Creation time:	15. 06. 2019 21:00

#	Modifying user name:	WinNT
#	Modification time:	15. 06. 2019 21:00

#	Program:	/corina/corina34_cracker 3.40 0067  02.08.2006

@<TRIPOS>MOLECULE
ASD05430597
  32   34    0    0    0
SMALL
NO_CHARGES


@<TRIPOS>ATOM
   1 N1            -0.0158     1.3165     0.0093 N.ar    
   2 C2             0.0021    -0.0041     0.0020 C.ar    
   3 C3             1.0970     2.0206     0.0024 C.ar    
   4 C4             2.3486     1.3931     0.0048 C.ar    
   5 C5             2.3941     0.0057    -0.0101 C.ar    
   6 C6             1.1976    -0.6959    -0.0114 C.ar    
   7 C7             1.2019    -2.2028    -0.0289 C.3     
   8 C8             1.9316    -2.7252     1.2102 C.3     
   9 C9            -0.2391    -2.7169    -0.0267 C.3     
  10 C10            1.9175    -2.6962    -1.2880 C.3     
  11 N11            1.0893     3.4174    -0.0332 N.pl3   
  12 C12            2.2530     4.1108    -0.3188 C.2     
  13 C13            3.5470     3.3934    -0.5990 C.3     
  14 O14            3.4969     2.1136     0.0431 O.3     
  15 C15            0.1230     4.3270     0.1646 C.2     
  16 N16            0.6430     5.5209     0.0144 N.2     
  17 C17            1.9516     5.4062    -0.2829 C.2     
  18 H18           -0.9298    -0.5500     0.0070 H       
  19 H19            3.3399    -0.5157    -0.0197 H       
  20 H20            1.4218    -2.3736     2.1073 H       
  21 H21            1.9347    -3.8151     1.1976 H       
  22 H22            2.9583    -2.3589     1.2087 H       
  23 H23           -0.7590    -2.3448    -0.9095 H       
  24 H24           -0.2361    -3.8069    -0.0393 H       
  25 H25           -0.7489    -2.3654     0.8703 H       
  26 H26            2.9441    -2.3299    -1.2896 H       
  27 H27            1.9206    -3.7861    -1.3007 H       
  28 H28            1.3976    -2.3241    -2.1708 H       
  29 H29            3.6686     3.2606    -1.6740 H       
  30 H30            4.3815     3.9717    -0.2025 H       
  31 H31           -0.9076     4.1122     0.4060 H       
  32 H32            2.6361     6.2223    -0.4613 H       
@<TRIPOS>BOND
   1    1    2 ar
   2    1    3 ar
   3    2    6 ar
   4    2   18 1
   5    3    4 ar
   6    3   11 1
   7    4    5 ar
   8    4   14 1
   9    5    6 ar
  10    5   19 1
  11    6    7 1
  12    7    8 1
  13    7    9 1
  14    7   10 1
  15    8   20 1
  16    8   21 1
  17    8   22 1
  18    9   23 1
  19    9   24 1
  20    9   25 1
  21   10   26 1
  22   10   27 1
  23   10   28 1
  24   11   12 1
  25   11   15 1
  26   12   13 1
  27   12   17 2
  28   13   14 1
  29   13   29 1
  30   13   30 1
  31   15   16 2
  32   15   31 1
  33   16   17 1
  34   17   32 1

#	End of record

