#	Name: ASD01410982
#	Creating user name:	WinNT
#	Creation time:	15. 06. 2019 19:19

#	Modifying user name:	WinNT
#	Modification time:	15. 06. 2019 19:19

#	Program:	/corina/corina34_cracker 3.40 0067  02.08.2006

@<TRIPOS>MOLECULE
ASD01410982
  77   80    0    0    0
SMALL
NO_CHARGES


@<TRIPOS>ATOM
   1 C1             0.2838     1.4071    -0.8877 C.ar    
   2 C2             0.4133     0.0836    -0.4842 C.ar    
   3 C3            -0.7057    -0.7054    -0.3102 C.ar    
   4 C4            -1.9704    -0.1807    -0.5371 C.ar    
   5 C5            -2.1080     1.1551    -0.9442 C.ar    
   6 C6            -0.9695     1.9468    -1.1129 C.ar    
   7 O7             1.3927     2.1757    -1.0562 O.3     
   8 C8             2.2306     1.8695    -2.0783 C.ar    
   9 N9            -3.1003    -0.9783    -0.3616 N.am    
  10 C10           -3.7690    -0.9514     0.8083 C.2     
  11 C11           -4.9392    -1.8750     1.0287 C.3     
  12 O12           -3.4289    -0.1840     1.6837 O.2     
  13 C13           -5.2814    -1.9179     2.5193 C.3     
  14 C14           -7.3360    -2.3010     0.4662 C.3     
  15 C15           -7.6782    -2.3439     1.9568 C.3     
  16 C16           -6.4695    -2.8556     2.7430 C.3     
  17 C17           -8.8663    -3.2816     2.1805 C.3     
  18 N18            1.8983     0.9179    -2.9353 N.ar    
  19 C19           -3.5607    -1.8456    -1.4487 C.3     
  20 C20           -3.8944    -0.9932    -2.6747 C.3     
  21 C21            3.4266     2.5618    -2.2183 C.ar    
  22 C22            4.2724     2.2399    -3.2656 C.ar    
  23 C23            3.8898     1.2321    -4.1398 C.ar    
  24 C24            2.6835     0.5890    -3.9431 C.ar    
  25 C25           -6.1479    -1.3633     0.2424 C.3     
  26 C26            4.7783     0.8477    -5.2947 C.3     
  27 O27           -2.1901    -3.6818    -0.6804 O.3     
  28 C28           -2.4579    -2.8440    -1.8066 C.3     
  29 N29            5.6999    -0.2094    -4.8712 N.pl3   
  30 C30            6.6182    -0.7272    -5.7679 C.ar    
  31 N31            7.4443    -1.6828    -5.3684 N.ar    
  32 N32            6.6466    -0.2592    -7.0072 N.ar    
  33 C33            7.5114    -0.7326    -7.8890 C.ar    
  34 C34            8.3938    -1.7293    -7.5028 C.ar    
  35 C35            8.3334    -2.1995    -6.2003 C.ar    
  36 C36           -1.1696    -4.6555    -0.9099 C.3     
  37 C37            3.7981     3.6491    -1.2433 C.3     
  38 F38            5.0393     4.1888    -1.5973 F       
  39 F39            2.8263     4.6551    -1.2740 F       
  40 F40            3.8736     3.1129     0.0467 F       
  41 C41           -3.4469     1.7212    -1.1880 C.2     
  42 O42           -4.4364     1.0377    -1.0141 O.2     
  43 O43           -3.5736     2.9967    -1.6039 O.3     
  44 H44            1.3950    -0.3300    -0.3062 H       
  45 H45           -0.5969    -1.7333     0.0029 H       
  46 H46           -1.0674     2.9758    -1.4257 H       
  47 H47           -4.6807    -2.8771     0.6863 H       
  48 H48           -4.4203    -2.2824     3.0794 H       
  49 H49           -5.5399    -0.9159     2.8617 H       
  50 H50           -7.0775    -3.3031     0.1238 H       
  51 H51           -8.1970    -1.9365    -0.0940 H       
  52 H52           -7.9366    -1.3419     2.2992 H       
  53 H53           -6.2110    -3.8576     2.4006 H       
  54 H54           -6.7133    -2.8861     3.8050 H       
  55 H55           -8.6078    -4.2836     1.8381 H       
  56 H56           -9.1101    -3.3121     3.2425 H       
  57 H57           -9.7274    -2.9171     1.6204 H       
  58 H58           -4.4512    -2.3870    -1.1293 H       
  59 H59           -2.9968    -0.4752    -3.0123 H       
  60 H60           -4.2656    -1.6352    -3.4735 H       
  61 H61           -4.6587    -0.2619    -2.4116 H       
  62 H62            5.2086     2.7614    -3.3998 H       
  63 H63            2.3813    -0.1961    -4.6203 H       
  64 H64           -6.4063    -0.3613     0.5849 H       
  65 H65           -5.9041    -1.3328    -0.8195 H       
  66 H66            4.1651     0.4860    -6.1201 H       
  67 H67            5.3484     1.7180    -5.6198 H       
  68 H68           -2.7821    -3.4576    -2.6471 H       
  69 H69           -1.5524    -2.3024    -2.0801 H       
  70 H70            5.6665    -0.5464    -3.9622 H       
  71 H71            7.5296    -0.3474    -8.8978 H       
  72 H72            9.1099    -2.1338    -8.2028 H       
  73 H73            9.0068    -2.9756    -5.8677 H       
  74 H74           -1.0261    -5.2508    -0.0083 H       
  75 H75           -1.4671    -5.3067    -1.7318 H       
  76 H76           -0.2374    -4.1515    -1.1648 H       
  77 H77           -4.4718     3.3235    -1.7504 H       
@<TRIPOS>BOND
   1    1    2 ar
   2    1    7 1
   3    1    6 ar
   4    2    3 ar
   5    2   44 1
   6    3    4 ar
   7    3   45 1
   8    4    5 ar
   9    4    9 1
  10    5    6 ar
  11    5   41 1
  12    6   46 1
  13    7    8 1
  14    8   21 ar
  15    8   18 ar
  16    9   10 am
  17    9   19 1
  18   10   12 2
  19   10   11 1
  20   11   13 1
  21   11   25 1
  22   11   47 1
  23   13   16 1
  24   13   48 1
  25   13   49 1
  26   14   15 1
  27   14   25 1
  28   14   50 1
  29   14   51 1
  30   15   16 1
  31   15   17 1
  32   15   52 1
  33   16   53 1
  34   16   54 1
  35   17   55 1
  36   17   56 1
  37   17   57 1
  38   18   24 ar
  39   19   20 1
  40   19   28 1
  41   19   58 1
  42   20   59 1
  43   20   60 1
  44   20   61 1
  45   21   22 ar
  46   21   37 1
  47   22   23 ar
  48   22   62 1
  49   23   24 ar
  50   23   26 1
  51   24   63 1
  52   25   64 1
  53   25   65 1
  54   26   29 1
  55   26   66 1
  56   26   67 1
  57   27   28 1
  58   27   36 1
  59   28   68 1
  60   28   69 1
  61   29   30 1
  62   29   70 1
  63   30   31 ar
  64   30   32 ar
  65   31   35 ar
  66   32   33 ar
  67   33   34 ar
  68   33   71 1
  69   34   35 ar
  70   34   72 1
  71   35   73 1
  72   36   74 1
  73   36   75 1
  74   36   76 1
  75   37   38 1
  76   37   39 1
  77   37   40 1
  78   41   42 2
  79   41   43 1
  80   43   77 1

#	End of record

