#	Name: ASD04840006
#	Creating user name:	WinNT
#	Creation time:	15. 06. 2019 20:52

#	Modifying user name:	WinNT
#	Modification time:	15. 06. 2019 20:52

#	Program:	/corina/corina34_cracker 3.40 0067  02.08.2006

@<TRIPOS>MOLECULE
ASD04840006
  21   22    0    0    0
SMALL
NO_CHARGES


@<TRIPOS>ATOM
   1 C1            -0.0167     1.3839     0.0097 C.ar    
   2 C2             0.0021    -0.0041     0.0020 C.ar    
   3 C3             1.1998    -0.6793    -0.0126 C.ar    
   4 C4             2.4056     0.0286    -0.0199 C.ar    
   5 C5             2.3895     1.4263    -0.0127 C.ar    
   6 C6             1.1455     2.0926     0.0024 C.ar    
   7 S7             4.0684    -0.5448    -0.0377 S.3     
   8 C8             4.7032     1.0892    -0.0353 C.2     
   9 C9             3.7334     1.9824    -0.0221 C.2     
  10 C10            6.6730     1.5358     1.3707 C.2     
  11 C11            6.1712     1.4298    -0.0463 C.3     
  12 O12            5.9162     1.3535     2.2948 O.2     
  13 O13            7.9606     1.8328     1.6063 O.3     
  14 Cl14           4.0373     3.6916    -0.0168 Cl      
  15 H15           -0.9620     1.9062     0.0170 H       
  16 H16           -0.9267    -0.5552     0.0079 H       
  17 H17            1.2093    -1.7592    -0.0181 H       
  18 H18            1.1154     3.1721     0.0077 H       
  19 H19            6.7217     0.6477    -0.5692 H       
  20 H20            6.3195     2.3816    -0.5565 H       
  21 H21            8.2358     1.8898     2.5315 H       
@<TRIPOS>BOND
   1    1    2 ar
   2    1    6 ar
   3    1   15 1
   4    2    3 ar
   5    2   16 1
   6    3    4 ar
   7    3   17 1
   8    4    5 ar
   9    4    7 1
  10    5    6 ar
  11    5    9 1
  12    6   18 1
  13    7    8 1
  14    8    9 2
  15    8   11 1
  16    9   14 1
  17   10   12 2
  18   10   13 1
  19   10   11 1
  20   11   19 1
  21   11   20 1
  22   13   21 1

#	End of record

