#	Name: ASD01412018
#	Creating user name:	WinNT
#	Creation time:	15. 06. 2019 19:19

#	Modifying user name:	WinNT
#	Modification time:	15. 06. 2019 19:19

#	Program:	/corina/corina34_cracker 3.40 0067  02.08.2006

@<TRIPOS>MOLECULE
ASD01412018
  83   88    0    0    0
SMALL
NO_CHARGES


@<TRIPOS>ATOM
   1 C1            -1.1723     3.2497    -0.6270 C.ar    
   2 C2            -0.9748     1.9110    -1.0228 C.ar    
   3 C3            -2.0433     1.0035    -0.9792 C.ar    
   4 C4            -3.2694     1.4149    -0.5551 C.ar    
   5 C5            -3.4752     2.7447    -0.1595 C.ar    
   6 C6            -2.4239     3.6582    -0.1922 C.ar    
   7 N7             0.0345     3.9020    -0.7718 N.pl3   
   8 C8             0.9674     3.0079    -1.2437 C.2     
   9 C9             0.3828     1.7924    -1.4051 C.2     
  10 C10            1.0591     0.5408    -1.9021 C.3     
  11 C11            0.9715    -0.5466    -0.8293 C.3     
  12 C12            1.6582    -1.8173    -1.3339 C.3     
  13 C13            0.9632    -2.3009    -2.6083 C.3     
  14 C14            1.0509    -1.2135    -3.6810 C.3     
  15 C15            0.3642     0.0572    -3.1765 C.3     
  16 C16           -4.8101     3.1769     0.2977 C.2     
  17 O17           -4.9914     4.3291     0.6413 O.2     
  18 N18           -5.8282     2.2946     0.3343 N.am    
  19 C19           -7.1534     2.7237     0.7881 C.3     
  20 C20           -8.1052     1.5565     0.7342 C.2     
  21 C21           -7.0583     3.2382     2.2258 C.3     
  22 C22           -7.6663     3.8424    -0.1210 C.3     
  23 C23           -8.8166    -0.4855    -0.2483 C.ar    
  24 O24           -8.9749     1.4441     1.5719 O.2     
  25 C25           -9.1916    -1.0744     0.9557 C.ar    
  26 C26          -10.0115    -2.1796     0.9576 C.ar    
  27 C27          -10.4689    -2.7113    -0.2542 C.ar    
  28 C28          -10.0894    -2.1153    -1.4630 C.ar    
  29 C29           -9.2688    -1.0106    -1.4552 C.ar    
  30 C30          -11.3442    -3.8916    -0.2574 C.2     
  31 C31          -12.3914    -3.9582     0.5935 C.2     
  32 N32           -7.9898     0.6376    -0.2450 N.am    
  33 C33            0.2819     5.3145    -0.4723 C.3     
  34 C34            3.3480     3.1773    -0.5346 C.ar    
  35 C35            2.3815     3.3203    -1.5297 C.ar    
  36 C36            2.7654     3.7647    -2.8099 C.ar    
  37 C37            4.1105     4.0534    -3.0556 C.ar    
  38 C38            5.0493     3.9069    -2.0635 C.ar    
  39 C39            4.6698     3.4691    -0.8030 C.ar    
  40 C40            2.0143     4.0148    -4.0476 C.2     
  41 N41            2.7905     4.4217    -4.9927 N.2     
  42 C42            4.1703     4.4943    -4.4973 C.3     
  43 C43          -12.7895    -2.8072     1.3194 C.2     
  44 O44          -12.2156    -1.7490     1.1440 O.2     
  45 O45          -13.8048    -2.8855     2.2046 O.3     
  46 H46           -1.8931    -0.0221    -1.2825 H       
  47 H47           -4.0894     0.7128    -0.5234 H       
  48 H48           -2.5848     4.6816     0.1130 H       
  49 H49            2.1059     0.7547    -2.1179 H       
  50 H50            1.4666    -0.2021     0.0785 H       
  51 H51           -0.0753    -0.7605    -0.6135 H       
  52 H52            2.7049    -1.6034    -1.5497 H       
  53 H53            1.5957    -2.5920    -0.5697 H       
  54 H54            1.4524    -3.2062    -2.9678 H       
  55 H55           -0.0836    -2.5148    -2.3925 H       
  56 H56            2.0976    -0.9996    -3.8969 H       
  57 H57            0.5557    -1.5580    -4.5889 H       
  58 H58           -0.6826    -0.1567    -2.9607 H       
  59 H59            0.4266     0.8319    -3.9407 H       
  60 H60           -5.6836     1.3755     0.0602 H       
  61 H61           -6.3699     4.0824     2.2648 H       
  62 H62           -8.0443     3.5575     2.5635 H       
  63 H63           -6.6929     2.4412     2.8735 H       
  64 H64           -7.7341     3.4759    -1.1453 H       
  65 H65           -8.6523     4.1617     0.2166 H       
  66 H66           -6.9779     4.6866    -0.0820 H       
  67 H67           -8.8383    -0.6635     1.8899 H       
  68 H68          -10.3014    -2.6363     1.8923 H       
  69 H69          -10.4396    -2.5223    -2.4001 H       
  70 H70           -8.9759    -0.5500    -2.3871 H       
  71 H71          -11.1503    -4.7058    -0.9399 H       
  72 H72          -12.9254    -4.8883     0.7209 H       
  73 H73           -7.3318     0.7575    -0.9475 H       
  74 H74            0.5938     5.4163     0.5671 H       
  75 H75            1.0679     5.6923    -1.1262 H       
  76 H76           -0.6320     5.8859    -0.6350 H       
  77 H77            3.0604     2.8413     0.4506 H       
  78 H78            6.0859     4.1328    -2.2655 H       
  79 H79            5.4129     3.3560    -0.0275 H       
  80 H80            0.9485     3.8754    -4.1520 H       
  81 H81            4.5405     5.5175    -4.5630 H       
  82 H82            4.8115     3.8239    -5.0697 H       
  83 H83          -14.0034    -2.0506     2.6502 H       
@<TRIPOS>BOND
   1    1    2 ar
   2    1    7 1
   3    1    6 ar
   4    2    3 ar
   5    2    9 1
   6    3    4 ar
   7    3   46 1
   8    4    5 ar
   9    4   47 1
  10    5    6 ar
  11    5   16 1
  12    6   48 1
  13    7    8 1
  14    7   33 1
  15    8    9 2
  16    8   35 1
  17    9   10 1
  18   10   11 1
  19   10   15 1
  20   10   49 1
  21   11   12 1
  22   11   50 1
  23   11   51 1
  24   12   13 1
  25   12   52 1
  26   12   53 1
  27   13   14 1
  28   13   54 1
  29   13   55 1
  30   14   15 1
  31   14   56 1
  32   14   57 1
  33   15   58 1
  34   15   59 1
  35   16   17 2
  36   16   18 am
  37   18   19 1
  38   18   60 1
  39   19   20 1
  40   19   21 1
  41   19   22 1
  42   20   24 2
  43   20   32 am
  44   21   61 1
  45   21   62 1
  46   21   63 1
  47   22   64 1
  48   22   65 1
  49   22   66 1
  50   23   25 ar
  51   23   29 ar
  52   23   32 1
  53   25   26 ar
  54   25   67 1
  55   26   27 ar
  56   26   68 1
  57   27   28 ar
  58   27   30 1
  59   28   29 ar
  60   28   69 1
  61   29   70 1
  62   30   31 2
  63   30   71 1
  64   31   43 1
  65   31   72 1
  66   32   73 1
  67   33   74 1
  68   33   75 1
  69   33   76 1
  70   34   35 ar
  71   34   39 ar
  72   34   77 1
  73   35   36 ar
  74   36   37 ar
  75   36   40 1
  76   37   38 ar
  77   37   42 1
  78   38   39 ar
  79   38   78 1
  80   39   79 1
  81   40   41 2
  82   40   80 1
  83   41   42 1
  84   42   81 1
  85   42   82 1
  86   43   44 2
  87   43   45 1
  88   45   83 1

#	End of record

