#	Name: ASD03930080
#	Creating user name:	WinNT
#	Creation time:	15. 06. 2019 20:47

#	Modifying user name:	WinNT
#	Modification time:	15. 06. 2019 20:47

#	Program:	/corina/corina34_cracker 3.40 0067  02.08.2006

@<TRIPOS>MOLECULE
ASD03930080
  28   30    0    0    0
SMALL
NO_CHARGES


@<TRIPOS>ATOM
   1 C1             2.2388     1.3953    -0.5779 C.ar    
   2 C2             2.2525     0.0180    -0.5670 C.ar    
   3 C3             1.2193    -0.6866     0.0368 C.ar    
   4 C4             0.1618    -0.0006     0.6358 C.ar    
   5 C5             0.1424     1.3803     0.6282 C.ar    
   6 C6             1.1827     2.0884     0.0200 C.ar    
   7 O7             1.0045    -2.0256     0.1785 O.3     
   8 C8             1.1663     3.5633     0.0097 C.2     
   9 O9             2.2094     4.1832     0.0796 O.2     
  10 N10           -0.0055     4.2236    -0.0772 N.am    
  11 C11           -1.3063     3.5777    -0.2881 C.3     
  12 C12           -2.2562     4.7050    -0.7498 C.3     
  13 C13            0.0213    -2.1501     1.2228 C.3     
  14 O14           -0.7127    -0.9135     1.1517 O.3     
  15 C15           -1.5847     5.9547    -0.1347 C.3     
  16 C16           -0.1335     5.5579     0.0240 C.2     
  17 O17            0.7817     6.3313     0.2081 O.2     
  18 H18            3.0464     1.9397    -1.0447 H       
  19 H19            3.0693    -0.5157    -1.0299 H       
  20 H20           -0.6758     1.9122     1.0908 H       
  21 H21           -1.2265     2.8120    -1.0598 H       
  22 H22           -1.6654     3.1396     0.6432 H       
  23 H23           -2.2827     4.7719    -1.8374 H       
  24 H24           -3.2580     4.5613    -0.3448 H       
  25 H25           -0.6366    -2.9975     1.0302 H       
  26 H26            0.5053    -2.2528     2.1940 H       
  27 H27           -1.6786     6.8078    -0.8066 H       
  28 H28           -2.0221     6.1834     0.8372 H       
@<TRIPOS>BOND
   1    1    2 ar
   2    1    6 ar
   3    1   18 1
   4    2    3 ar
   5    2   19 1
   6    3    4 ar
   7    3    7 1
   8    4    5 ar
   9    4   14 1
  10    5    6 ar
  11    5   20 1
  12    6    8 1
  13    7   13 1
  14    8    9 2
  15    8   10 am
  16   10   11 1
  17   10   16 am
  18   11   12 1
  19   11   21 1
  20   11   22 1
  21   12   15 1
  22   12   23 1
  23   12   24 1
  24   13   14 1
  25   13   25 1
  26   13   26 1
  27   15   16 1
  28   15   27 1
  29   15   28 1
  30   16   17 2

#	End of record

