#	Name: ASD03092721
#	Creating user name:	WinNT
#	Creation time:	15. 06. 2019 20:33

#	Modifying user name:	WinNT
#	Modification time:	15. 06. 2019 20:33

#	Program:	/corina/corina34_cracker 3.40 0067  02.08.2006

@<TRIPOS>MOLECULE
ASD03092721
  51   53    0    0    0
SMALL
NO_CHARGES


@<TRIPOS>ATOM
   1 C1            -0.0501     1.1857     0.0141 C.2     
   2 O2             0.6517     1.2270    -0.9784 O.2     
   3 C3             0.3870     0.4156     1.1960 C.ar    
   4 C4             1.5492    -0.3579     1.1384 C.ar    
   5 C5             1.9526    -1.0741     2.2445 C.ar    
   6 C6             1.2071    -1.0285     3.4131 C.ar    
   7 C7             0.0525    -0.2628     3.4758 C.ar    
   8 C8            -0.3570     0.4624     2.3778 C.ar    
   9 F9             1.6070    -1.7330     4.4943 F       
  10 C10           -2.5498     1.2132    -0.0917 C.ar    
  11 C11           -1.3336     1.9090     0.0395 C.ar    
  12 C12           -1.3638     3.2985     0.1948 C.ar    
  13 C13           -2.6050     3.9339     0.2125 C.ar    
  14 C14           -3.7642     3.1703     0.0762 C.ar    
  15 N15           -3.7037     1.8624    -0.0686 N.ar    
  16 N16           -2.5395    -0.1594    -0.2518 N.pl3   
  17 C17           -3.8012    -0.9036    -0.2751 C.3     
  18 C18           -3.5108    -2.3940    -0.4630 C.3     
  19 C19           -4.8285    -3.1712    -0.4873 C.3     
  20 C20           -2.6915     5.4062     0.3752 C.ar    
  21 C21           -3.9352     6.0349     0.3921 C.ar    
  22 C22           -4.0125     7.4036     0.5440 C.ar    
  23 C23           -2.8531     8.1549     0.6795 C.ar    
  24 C24           -1.6128     7.5315     0.6630 C.ar    
  25 C25           -1.5295     6.1625     0.5172 C.ar    
  26 O26           -2.9323     9.5033     0.8280 O.3     
  27 C27           -1.7002    10.2147     0.9622 C.3     
  28 C28           -1.9886    11.7092     1.1181 C.3     
  29 H29            2.1301    -0.3947     0.2287 H       
  30 H30            2.8507    -1.6723     2.2012 H       
  31 H31           -0.5243    -0.2312     4.3883 H       
  32 H32           -1.2538     1.0618     2.4291 H       
  33 H33           -0.4499     3.8645     0.2986 H       
  34 H34           -4.7271     3.6593     0.0895 H       
  35 H35           -1.6970    -0.6301    -0.3488 H       
  36 H36           -4.3298    -0.7522     0.6660 H       
  37 H37           -4.4183    -0.5469    -1.0998 H       
  38 H38           -2.9823    -2.5454    -1.4041 H       
  39 H39           -2.8938    -2.7507     0.3617 H       
  40 H40           -4.6216    -4.2330    -0.6211 H       
  41 H41           -5.3570    -3.0198     0.4539 H       
  42 H42           -5.4455    -2.8145    -1.3120 H       
  43 H43           -4.8375     5.4510     0.2861 H       
  44 H44           -4.9760     7.8913     0.5572 H       
  45 H45           -0.7125     8.1186     0.7683 H       
  46 H46           -0.5645     5.6776     0.5086 H       
  47 H47           -1.1663     9.8541     1.8414 H       
  48 H48           -1.0889    10.0533     0.0743 H       
  49 H49           -2.5225    12.0698     0.2389 H       
  50 H50           -2.5999    11.8706     2.0060 H       
  51 H51           -1.0488    12.2518     1.2204 H       
@<TRIPOS>BOND
   1    1    2 2
   2    1    3 1
   3    1   11 1
   4    3    4 ar
   5    3    8 ar
   6    4    5 ar
   7    4   29 1
   8    5    6 ar
   9    5   30 1
  10    6    7 ar
  11    6    9 1
  12    7    8 ar
  13    7   31 1
  14    8   32 1
  15   10   11 ar
  16   10   15 ar
  17   10   16 1
  18   11   12 ar
  19   12   13 ar
  20   12   33 1
  21   13   14 ar
  22   13   20 1
  23   14   15 ar
  24   14   34 1
  25   16   17 1
  26   16   35 1
  27   17   18 1
  28   17   36 1
  29   17   37 1
  30   18   19 1
  31   18   38 1
  32   18   39 1
  33   19   40 1
  34   19   41 1
  35   19   42 1
  36   20   21 ar
  37   20   25 ar
  38   21   22 ar
  39   21   43 1
  40   22   23 ar
  41   22   44 1
  42   23   24 ar
  43   23   26 1
  44   24   25 ar
  45   24   45 1
  46   25   46 1
  47   26   27 1
  48   27   28 1
  49   27   47 1
  50   27   48 1
  51   28   49 1
  52   28   50 1
  53   28   51 1

#	End of record

