#	Name: ASD03330113
#	Creating user name:	WinNT
#	Creation time:	15. 06. 2019 20:36

#	Modifying user name:	WinNT
#	Modification time:	15. 06. 2019 20:36

#	Program:	/corina/corina34_cracker 3.40 0067  02.08.2006

@<TRIPOS>MOLECULE
ASD03330113
  55   57    0    0    0
SMALL
NO_CHARGES


@<TRIPOS>ATOM
   1 C1             0.5934     1.5913     0.4657 C.ar    
   2 C2             0.4603     0.1222     0.3513 C.2     
   3 N3            -0.6331    -0.6070     0.7073 N.pl3   
   4 C4            -0.3564    -1.9097     0.4486 C.2     
   5 C5             0.9008    -1.9616    -0.0632 C.2     
   6 N6             1.3749    -0.6965    -0.1159 N.2     
   7 C7             1.6168    -3.1771    -0.4894 C.2     
   8 N8             2.8678    -3.0844    -0.9822 N.am    
   9 C9            -0.2697     2.3106     1.2928 C.ar    
  10 O10            1.0789    -4.2638    -0.3964 O.2     
  11 C11            3.5796    -4.2927    -1.4059 C.3     
  12 C12            3.1945    -4.6326    -2.8471 C.3     
  13 C13            5.0655    -4.0545    -1.3259 C.2     
  14 C14            3.4670    -3.4250    -3.7461 C.3     
  15 C15           -0.1401     3.6804     1.3955 C.ar    
  16 C16            0.8428     4.3407     0.6801 C.ar    
  17 C17            1.7018     3.6332    -0.1418 C.ar    
  18 C18            1.5862     2.2624    -0.2487 C.ar    
  19 O19            5.5082    -2.9337    -1.4628 O.2     
  20 N20            5.9025    -5.0869    -1.1021 N.am    
  21 C21            7.3343    -4.8415    -0.9129 C.3     
  22 C22            4.0238    -5.8246    -3.3290 C.3     
  23 C23           -1.8973    -0.1234     1.2681 C.3     
  24 C24           -2.9599    -1.2154     1.1024 C.3     
  25 C25           -2.4186    -2.5448     1.6363 C.3     
  26 C26           -1.3090    -3.0496     0.7039 C.3     
  27 C27            1.7076    -4.9880    -2.9073 C.3     
  28 H28            3.2969    -2.2176    -1.0564 H       
  29 H29           -1.0379     1.7963     1.8512 H       
  30 H30            3.3089    -5.1219    -0.7523 H       
  31 H31            4.5263    -3.1717    -3.7032 H       
  32 H32            3.1926    -3.6671    -4.7729 H       
  33 H33            2.8762    -2.5757    -3.4028 H       
  34 H34           -0.8077     4.2384     2.0354 H       
  35 H35            0.9397     5.4132     0.7633 H       
  36 H36            2.4669     4.1545    -0.6980 H       
  37 H37            2.2576     1.7112    -0.8903 H       
  38 H38            5.5567    -5.9925    -1.0664 H       
  39 H39            7.8464    -5.7890    -0.7456 H       
  40 H40            7.7412    -4.3607    -1.8025 H       
  41 H41            7.4806    -4.1921    -0.0498 H       
  42 H42            3.7897    -6.6992    -2.7220 H       
  43 H43            3.7881    -6.0330    -4.3726 H       
  44 H44            5.0843    -5.5909    -3.2357 H       
  45 H45           -1.7656     0.1008     2.3266 H       
  46 H46           -2.2118     0.7759     0.7384 H       
  47 H47           -3.8550    -0.9382     1.6592 H       
  48 H48           -3.2085    -1.3226     0.0466 H       
  49 H49           -2.0138    -2.3973     2.6375 H       
  50 H50           -3.2247    -3.2776     1.6731 H       
  51 H51           -1.7437    -3.3840    -0.2381 H       
  52 H52           -0.7771    -3.8746     1.1778 H       
  53 H53            1.1168    -4.1388    -2.5640 H       
  54 H54            1.4332    -5.2302    -3.9341 H       
  55 H55            1.5134    -5.8484    -2.2668 H       
@<TRIPOS>BOND
   1    1    2 1
   2    1    9 ar
   3    1   18 ar
   4    2    3 1
   5    2    6 2
   6    3    4 1
   7    3   23 1
   8    4    5 2
   9    4   26 1
  10    5    6 1
  11    5    7 1
  12    7    8 am
  13    7   10 2
  14    8   11 1
  15    8   28 1
  16    9   15 ar
  17    9   29 1
  18   11   12 1
  19   11   13 1
  20   11   30 1
  21   12   14 1
  22   12   22 1
  23   12   27 1
  24   13   19 2
  25   13   20 am
  26   14   31 1
  27   14   32 1
  28   14   33 1
  29   15   16 ar
  30   15   34 1
  31   16   17 ar
  32   16   35 1
  33   17   18 ar
  34   17   36 1
  35   18   37 1
  36   20   21 1
  37   20   38 1
  38   21   39 1
  39   21   40 1
  40   21   41 1
  41   22   42 1
  42   22   43 1
  43   22   44 1
  44   23   24 1
  45   23   45 1
  46   23   46 1
  47   24   25 1
  48   24   47 1
  49   24   48 1
  50   25   26 1
  51   25   49 1
  52   25   50 1
  53   26   51 1
  54   26   52 1
  55   27   53 1
  56   27   54 1
  57   27   55 1

#	End of record

