#	Name: ASD01870624
#	Creating user name:	WinNT
#	Creation time:	15. 06. 2019 19:39

#	Modifying user name:	WinNT
#	Modification time:	15. 06. 2019 19:39

#	Program:	/corina/corina34_cracker 3.40 0067  02.08.2006

@<TRIPOS>MOLECULE
ASD01870624
  40   43    0    0    0
SMALL
NO_CHARGES


@<TRIPOS>ATOM
   1 C1             0.0305     1.3455     0.1087 C.ar    
   2 C2             0.0585    -0.0403     0.1308 C.ar    
   3 C3             1.2639    -0.7167     0.1418 C.ar    
   4 C4             2.4615    -0.0187     0.1304 C.ar    
   5 C5             2.4490     1.3666     0.1079 C.ar    
   6 C6             1.2197     2.0565     0.0971 C.ar    
   7 C7             3.4974     2.4084     0.0917 C.2     
   8 N8             2.9027     3.6149     0.0725 N.am    
   9 C9             1.5629     3.4940     0.0741 C.2     
  10 C10            3.5893     4.8382     0.0541 C.ar    
  11 C11            2.8803     6.0316     0.0350 C.ar    
  12 C12            3.5564     7.2363     0.0173 C.ar    
  13 C13            4.9461     7.2527     0.0186 C.ar    
  14 C14            5.6541     6.0582     0.0377 C.ar    
  15 C15            4.9777     4.8550     0.0607 C.ar    
  16 O16            0.7682     4.4123     0.0593 O.2     
  17 O17            4.6954     2.2087     0.0955 O.2     
  18 N18            5.6321     8.4732     0.0002 N.am    
  19 C19            6.8806     8.5370    -0.5033 C.2     
  20 C20            7.5658     9.8295    -0.6030 C.2     
  21 O21            7.4394     7.5217    -0.8753 O.2     
  22 C22            8.8246    10.0349    -1.0909 C.2     
  23 C23            9.0727    11.4134    -0.9999 C.2     
  24 C24            7.9685    11.9819    -0.4673 C.2     
  25 O25            7.0609    11.0250    -0.2342 O.3     
  26 C26            9.7655     8.9848    -1.6230 C.3     
  27 Cl27           2.6704     8.7289    -0.0072 Cl      
  28 H28           -0.9143     1.8686     0.0961 H       
  29 H29           -0.8679    -0.5953     0.1399 H       
  30 H30            1.2727    -1.7965     0.1597 H       
  31 H31            3.4004    -0.5525     0.1394 H       
  32 H32            1.8004     6.0182     0.0336 H       
  33 H33            6.7341     6.0706     0.0384 H       
  34 H34            5.5286     3.9263     0.0797 H       
  35 H35            5.2087     9.2728     0.3499 H       
  36 H36            9.9763    11.9238    -1.2991 H       
  37 H37            7.8379    13.0350    -0.2665 H       
  38 H38            9.6055     8.8628    -2.6943 H       
  39 H39           10.7950     9.2942    -1.4423 H       
  40 H40            9.5767     8.0379    -1.1173 H       
@<TRIPOS>BOND
   1    1    2 ar
   2    1    6 ar
   3    1   28 1
   4    2    3 ar
   5    2   29 1
   6    3    4 ar
   7    3   30 1
   8    4    5 ar
   9    4   31 1
  10    5    7 1
  11    5    6 ar
  12    6    9 1
  13    7    8 am
  14    7   17 2
  15    8    9 am
  16    8   10 1
  17    9   16 2
  18   10   11 ar
  19   10   15 ar
  20   11   12 ar
  21   11   32 1
  22   12   13 ar
  23   12   27 1
  24   13   14 ar
  25   13   18 1
  26   14   15 ar
  27   14   33 1
  28   15   34 1
  29   18   19 am
  30   18   35 1
  31   19   20 1
  32   19   21 2
  33   20   22 2
  34   20   25 1
  35   22   23 1
  36   22   26 1
  37   23   24 2
  38   23   36 1
  39   24   25 1
  40   24   37 1
  41   26   38 1
  42   26   39 1
  43   26   40 1

#	End of record

