#	Name: ASD01881781
#	Creating user name:	WinNT
#	Creation time:	15. 06. 2019 19:43

#	Modifying user name:	WinNT
#	Modification time:	15. 06. 2019 19:43

#	Program:	/corina/corina34_cracker 3.40 0067  02.08.2006

@<TRIPOS>MOLECULE
ASD01881781
  69   74    0    0    0
SMALL
NO_CHARGES


@<TRIPOS>ATOM
   1 C1            -0.0161     1.3337     0.0094 C.2     
   2 N2             0.0021    -0.0041     0.0020 N.am    
   3 C3             1.2613    -0.4841    -0.0126 C.2     
   4 C4             2.1640     0.7337    -0.0147 C.3     
   5 N5             1.2200     1.8645     0.0004 N.am    
   6 O6            -1.0354     1.9955     0.0180 O.2     
   7 O7             1.6013    -1.6477    -0.0215 O.2     
   8 C8            -1.1986    -0.8435     0.0097 C.3     
   9 C9            -3.2859    -2.3241    -2.8656 C.3     
  10 C10           -2.8100    -2.1062    -1.4269 C.3     
  11 C11           -1.6309    -1.1284    -1.4300 C.3     
  12 C12           -2.0663     0.1772    -2.1022 C.3     
  13 C13           -2.5710    -0.1288    -3.5148 C.3     
  14 O14           -3.6463    -1.0671    -3.4422 O.3     
  15 C15            3.0460     0.7520     1.2354 C.3     
  16 C16            3.0220     0.7655    -1.2811 C.3     
  17 C17            1.5609     3.2893     0.0041 C.3     
  18 C18            1.6916     3.7708     1.4261 C.ar    
  19 C19            2.9179     3.7119     2.0635 C.ar    
  20 C20            3.0436     4.1515     3.3656 C.ar    
  21 C21            1.9317     4.6556     4.0386 C.ar    
  22 C22            0.6985     4.7125     3.3911 C.ar    
  23 C23            0.5860     4.2753     2.0870 C.ar    
  24 C24            2.1296     6.5463     9.4228 C.2     
  25 N25            0.8532     6.9185     9.6195 N.am    
  26 C26            0.0906     6.6569     8.3935 C.3     
  27 C27            1.0684     6.0704     7.4058 C.ar    
  28 C28            0.9454     5.6335     6.1100 C.ar    
  29 C29            2.0602     5.1290     5.4378 C.ar    
  30 C30            3.2953     5.0703     6.0844 C.ar    
  31 C31            3.4183     5.5084     7.3833 C.ar    
  32 C32            2.3036     6.0140     8.0586 C.ar    
  33 O33            3.0156     6.6401    10.2499 O.2     
  34 C34            0.3121     7.4904    10.8550 C.3     
  35 C35            0.4099     6.6453    12.1266 C.3     
  36 C36            1.3079     7.8717    11.9522 C.3     
  37 H37           -0.9814    -1.7836     0.5167 H       
  38 H38           -2.0011    -0.3248     0.5342 H       
  39 H39           -2.4836    -2.7752    -3.4495 H       
  40 H40           -4.1521    -2.9857    -2.8657 H       
  41 H41           -3.6246    -1.6926    -0.8325 H       
  42 H42           -2.4930    -3.0578    -1.0001 H       
  43 H43           -0.7976    -1.5638    -1.9815 H       
  44 H44           -2.8659     0.6370    -1.5214 H       
  45 H45           -1.2175     0.8587    -2.1584 H       
  46 H46           -2.9221     0.7910    -3.9826 H       
  47 H47           -1.7593    -0.5512    -4.1072 H       
  48 H48            3.6824    -0.1329     1.2441 H       
  49 H49            3.6682     1.6470     1.2280 H       
  50 H50            2.4158     0.7550     2.1247 H       
  51 H51            2.3749     0.7780    -2.1581 H       
  52 H52            3.6443     1.6604    -1.2759 H       
  53 H53            3.6580    -0.1191    -1.3114 H       
  54 H54            2.5060     3.4381    -0.5182 H       
  55 H55            0.7749     3.8522    -0.4994 H       
  56 H56            3.7786     3.3209     1.5412 H       
  57 H57            4.0014     4.1047     3.8624 H       
  58 H58           -0.1663     5.1021     3.9076 H       
  59 H59           -0.3679     4.3233     1.5828 H       
  60 H60           -0.7104     5.9457     8.5952 H       
  61 H61           -0.3229     7.5872     8.0040 H       
  62 H62           -0.0116     5.6802     5.6117 H       
  63 H63            4.1573     4.6796     5.5640 H       
  64 H64            4.3757     5.4612     7.8808 H       
  65 H65           -0.5703     8.1189    10.7350 H       
  66 H66           -0.4079     6.7182    12.8435 H       
  67 H67            0.8769     5.6638    12.0440 H       
  68 H68            2.3656     7.6971    11.7548 H       
  69 H69            1.0808     8.7515    12.5543 H       
@<TRIPOS>BOND
   1    1    2 am
   2    1    5 am
   3    1    6 2
   4    2    3 am
   5    2    8 1
   6    3    4 1
   7    3    7 2
   8    4    5 1
   9    4   15 1
  10    4   16 1
  11    5   17 1
  12    8   11 1
  13    8   37 1
  14    8   38 1
  15    9   10 1
  16    9   14 1
  17    9   39 1
  18    9   40 1
  19   10   11 1
  20   10   41 1
  21   10   42 1
  22   11   12 1
  23   11   43 1
  24   12   13 1
  25   12   44 1
  26   12   45 1
  27   13   14 1
  28   13   46 1
  29   13   47 1
  30   15   48 1
  31   15   49 1
  32   15   50 1
  33   16   51 1
  34   16   52 1
  35   16   53 1
  36   17   18 1
  37   17   54 1
  38   17   55 1
  39   18   19 ar
  40   18   23 ar
  41   19   20 ar
  42   19   56 1
  43   20   21 ar
  44   20   57 1
  45   21   22 ar
  46   21   29 1
  47   22   23 ar
  48   22   58 1
  49   23   59 1
  50   24   25 am
  51   24   32 1
  52   24   33 2
  53   25   26 1
  54   25   34 1
  55   26   27 1
  56   26   60 1
  57   26   61 1
  58   27   28 ar
  59   27   32 ar
  60   28   29 ar
  61   28   62 1
  62   29   30 ar
  63   30   31 ar
  64   30   63 1
  65   31   32 ar
  66   31   64 1
  67   34   35 1
  68   34   36 1
  69   34   65 1
  70   35   36 1
  71   35   66 1
  72   35   67 1
  73   36   68 1
  74   36   69 1

#	End of record

