#	Name: ASD01813519
#	Creating user name:	WinNT
#	Creation time:	15. 06. 2019 19:30

#	Modifying user name:	WinNT
#	Modification time:	15. 06. 2019 19:30

#	Program:	/corina/corina34_cracker 3.40 0067  02.08.2006

@<TRIPOS>MOLECULE
ASD01813519
  43   46    0    0    0
SMALL
NO_CHARGES


@<TRIPOS>ATOM
   1 C1            -0.0168     1.3825    -0.0466 C.ar    
   2 C2             0.0020    -0.0038    -0.0536 C.ar    
   3 C3             1.1975    -0.6932    -0.0496 C.ar    
   4 C4             2.4040     0.0044    -0.0390 C.ar    
   5 C5             2.3834     1.4096    -0.0323 C.ar    
   6 C6             1.1657     2.0946    -0.0360 C.ar    
   7 N7             3.6050    -0.6734    -0.0339 N.pl3   
   8 C8             4.7898    -0.0496    -0.0227 C.2     
   9 C9             4.8962     1.3266    -0.0150 C.2     
  10 C10            3.6660     2.1351    -0.0211 C.2     
  11 O11            3.7066     3.3531    -0.0152 O.2     
  12 C12            6.2155     1.9737    -0.0018 C.2     
  13 O13            6.3065     3.3187     0.0057 O.3     
  14 O14            7.2249     1.2962     0.0024 O.2     
  15 C15            3.5837    -2.1382    -0.0406 C.3     
  16 C16            3.4403    -2.6321    -1.4571 C.ar    
  17 N17            2.2384    -2.7342    -1.9904 N.ar    
  18 C18            2.0590    -3.1603    -3.2241 C.ar    
  19 C19            3.1477    -3.5218    -4.0147 C.ar    
  20 C20            4.4347    -3.4247    -3.4782 C.ar    
  21 C21            4.5716    -2.9658    -2.1795 C.ar    
  22 C22            2.9443    -4.0024    -5.4036 C.2     
  23 F23            1.1984    -2.0441    -0.0557 F       
  24 F24            1.1457     3.4455    -0.0301 F       
  25 C25            2.0349    -5.0074    -5.7285 C.2     
  26 C26            1.9789    -5.3161    -7.0215 C.2     
  27 S27            3.1104    -4.3191    -7.9253 S.3     
  28 C28            3.6184    -3.5001    -6.4544 C.2     
  29 C29            1.1803    -5.6928    -4.6936 C.3     
  30 H30           -0.9606     1.9075    -0.0539 H       
  31 H31           -0.9294    -0.5504    -0.0619 H       
  32 H32            5.6921    -0.6430    -0.0194 H       
  33 H33            7.1957     3.6986     0.0143 H       
  34 H34            4.5134    -2.5171     0.3839 H       
  35 H35            2.7418    -2.4920     0.5545 H       
  36 H36            1.0590    -3.2304    -3.6260 H       
  37 H37            5.3006    -3.6970    -4.0634 H       
  38 H38            5.5506    -2.8774    -1.7322 H       
  39 H39            1.3341    -6.0679    -7.4521 H       
  40 H40            4.3607    -2.7174    -6.4017 H       
  41 H41            0.2414    -5.1508    -4.5809 H       
  42 H42            0.9739    -6.7147    -5.0118 H       
  43 H43            1.7075    -5.7088    -3.7397 H       
@<TRIPOS>BOND
   1    1    2 ar
   2    1    6 ar
   3    1   30 1
   4    2    3 ar
   5    2   31 1
   6    3    4 ar
   7    3   23 1
   8    4    5 ar
   9    4    7 1
  10    5    6 ar
  11    5   10 1
  12    6   24 1
  13    7    8 1
  14    7   15 1
  15    8    9 2
  16    8   32 1
  17    9   10 1
  18    9   12 1
  19   10   11 2
  20   12   13 1
  21   12   14 2
  22   13   33 1
  23   15   16 1
  24   15   34 1
  25   15   35 1
  26   16   17 ar
  27   16   21 ar
  28   17   18 ar
  29   18   19 ar
  30   18   36 1
  31   19   20 ar
  32   19   22 1
  33   20   21 ar
  34   20   37 1
  35   21   38 1
  36   22   25 1
  37   22   28 2
  38   25   26 2
  39   25   29 1
  40   26   27 1
  41   26   39 1
  42   27   28 1
  43   28   40 1
  44   29   41 1
  45   29   42 1
  46   29   43 1

#	End of record

