#	Name: ASD01190010
#	Creating user name:	WinNT
#	Creation time:	15. 06. 2019 19:07

#	Modifying user name:	WinNT
#	Modification time:	15. 06. 2019 19:07

#	Program:	/corina/corina34_cracker 3.40 0067  02.08.2006

@<TRIPOS>MOLECULE
ASD01190010
  55   58    0    0    0
SMALL
NO_CHARGES


@<TRIPOS>ATOM
   1 C1            -0.0638     1.5054     0.0400 C.ar    
   2 C2            -0.0719     0.1179     0.0253 C.ar    
   3 C3             1.1261    -0.5747     0.0035 C.ar    
   4 C4             2.3361     0.1065    -0.0039 C.ar    
   5 C5             2.3399     1.4859     0.0010 C.ar    
   6 C6             1.1380     2.1806     0.0278 C.ar    
   7 C7             3.5992    -0.7138    -0.0042 C.3     
   8 C8             4.8107     0.1341    -0.3899 C.3     
   9 C9             4.7868     1.4111     0.4498 C.3     
  10 C10            3.6162     2.2749    -0.0372 C.3     
  11 C11            6.0477     2.2302     0.2655 C.3     
  12 C12            5.9269     3.4447     1.2280 C.3     
  13 C13            4.8334     4.3519     0.7041 C.3     
  14 C14            3.5087     3.5672     0.7594 C.3     
  15 C15            7.3485     1.5817     0.7511 C.3     
  16 C16            8.2740     2.8035     1.0024 C.3     
  17 C17            7.3406     4.0142     1.2537 C.3     
  18 O18            7.6213     4.6055     2.5498 O.3     
  19 O19           -1.2510    -0.5579     0.0327 O.3     
  20 C20            8.5224     5.5998     2.5837 C.2     
  21 O21            9.0588     5.9640     1.5641 O.2     
  22 C22            8.8650     6.2619     3.8934 C.3     
  23 C23            9.9098     7.3539     3.6549 C.3     
  24 C24           10.2524     8.0160     4.9646 C.2     
  25 O25           11.1535     9.0103     4.9985 O.3     
  26 O26            9.7160     7.6518     5.9842 O.2     
  27 C27            5.5589     2.9536     2.6295 C.3     
  28 H28           -0.9942     2.0535     0.0565 H       
  29 H29            1.1199    -1.6546    -0.0076 H       
  30 H30            1.1447     3.2605     0.0393 H       
  31 H31            3.7559    -1.1283     0.9916 H       
  32 H32            3.4938    -1.5312    -0.7176 H       
  33 H33            5.7270    -0.4210    -0.1890 H       
  34 H34            4.7592     0.3890    -1.4484 H       
  35 H35            4.6455     1.1581     1.5005 H       
  36 H36            3.8104     2.5486    -1.0743 H       
  37 H37            6.1359     2.5666    -0.7675 H       
  38 H38            4.7617     5.2427     1.3281 H       
  39 H39            5.0513     4.6371    -0.3251 H       
  40 H40            2.7101     4.1808     0.3424 H       
  41 H41            3.2744     3.3308     1.7974 H       
  42 H42            7.1818     1.0278     1.6750 H       
  43 H43            7.7667     0.9330    -0.0186 H       
  44 H44            8.8995     2.6254     1.8771 H       
  45 H45            8.8973     2.9870     0.1273 H       
  46 H46            7.4634     4.7561     0.4646 H       
  47 H47           -1.6032    -0.7441    -0.8484 H       
  48 H48            7.9666     6.7060     4.3220 H       
  49 H49            9.2669     5.5187     4.5820 H       
  50 H50           10.8082     6.9098     3.2263 H       
  51 H51            9.5078     8.0971     2.9663 H       
  52 H52           11.3404     9.4041     5.8617 H       
  53 H53            6.2987     2.2273     2.9659 H       
  54 H54            5.5405     3.7988     3.3175 H       
  55 H55            4.5752     2.4848     2.6035 H       
@<TRIPOS>BOND
   1    1    2 ar
   2    1    6 ar
   3    1   28 1
   4    2    3 ar
   5    2   19 1
   6    3    4 ar
   7    3   29 1
   8    4    5 ar
   9    4    7 1
  10    5    6 ar
  11    5   10 1
  12    6   30 1
  13    7    8 1
  14    7   31 1
  15    7   32 1
  16    8    9 1
  17    8   33 1
  18    8   34 1
  19    9   10 1
  20    9   11 1
  21    9   35 1
  22   10   14 1
  23   10   36 1
  24   11   12 1
  25   11   15 1
  26   11   37 1
  27   12   13 1
  28   12   27 1
  29   12   17 1
  30   13   14 1
  31   13   38 1
  32   13   39 1
  33   14   40 1
  34   14   41 1
  35   15   16 1
  36   15   42 1
  37   15   43 1
  38   16   17 1
  39   16   44 1
  40   16   45 1
  41   17   18 1
  42   17   46 1
  43   18   20 1
  44   19   47 1
  45   20   21 2
  46   20   22 1
  47   22   23 1
  48   22   48 1
  49   22   49 1
  50   23   24 1
  51   23   50 1
  52   23   51 1
  53   24   25 1
  54   24   26 2
  55   25   52 1
  56   27   53 1
  57   27   54 1
  58   27   55 1

#	End of record

