#	Name: ASD01410118
#	Creating user name:	WinNT
#	Creation time:	15. 06. 2019 19:16

#	Modifying user name:	WinNT
#	Modification time:	15. 06. 2019 19:16

#	Program:	/corina/corina34_cracker 3.40 0067  02.08.2006

@<TRIPOS>MOLECULE
ASD01410118
  68   72    0    0    0
SMALL
NO_CHARGES


@<TRIPOS>ATOM
   1 C1            -0.0646     1.3324     0.0340 C.ar    
   2 C2             0.0605    -0.0704     0.0032 C.ar    
   3 C3            -1.0749    -0.8728     0.0166 C.ar    
   4 C4            -2.3153    -0.3054     0.0590 C.ar    
   5 C5            -2.4589     1.0881     0.0901 C.ar    
   6 C6            -1.3350     1.9080     0.0829 C.ar    
   7 N7             1.1891     1.8464     0.0120 N.2     
   8 C8             2.0620     0.8713    -0.0295 C.2     
   9 N9             1.4120    -0.3339    -0.0366 N.pl3   
  10 C10           -3.8075     1.6883     0.1359 C.2     
  11 N11           -4.8977     0.8959     0.1479 N.am    
  12 C12           -6.2355     1.4912     0.1933 C.3     
  13 C13           -7.2880     0.3808     0.1980 C.3     
  14 C14           -8.6641     0.9932     0.2448 C.ar    
  15 C15           -9.3241     1.2970    -0.9313 C.ar    
  16 C16          -10.5895     1.8601    -0.8900 C.ar    
  17 C17          -11.1931     2.1185     0.3369 C.ar    
  18 C18          -10.5260     1.8116     1.5120 C.ar    
  19 C19           -9.2661     1.2447     1.4638 C.ar    
  20 C20            2.0378    -1.6579    -0.0786 C.3     
  21 C21            1.7279    -2.4098     1.2174 C.3     
  22 C22            2.3814    -3.7925     1.1735 C.3     
  23 C23            1.8302    -4.5796    -0.0171 C.3     
  24 C24            2.1400    -3.8277    -1.3130 C.3     
  25 C25            1.4865    -2.4450    -1.2692 C.3     
  26 O26           -3.9343     2.8971     0.1629 O.2     
  27 O27          -12.4347     2.6715     0.3826 O.3     
  28 C28          -12.9920     2.9087     1.6769 C.3     
  29 O29          -11.2400     2.1600    -2.0460 O.3     
  30 C30          -10.5593     1.8678    -3.2680 C.3     
  31 C31            3.5313     1.0456    -0.0642 C.ar    
  32 C32            4.0732     2.3246    -0.1819 C.ar    
  33 C33            5.4499     2.4715    -0.2124 C.ar    
  34 C34            6.2392     1.3344    -0.1243 C.ar    
  35 C35            5.6341     0.0949    -0.0093 C.ar    
  36 N36            4.3229    -0.0170     0.0226 N.ar    
  37 H37           -0.9749    -1.9479    -0.0071 H       
  38 H38           -3.1927    -0.9350     0.0684 H       
  39 H39           -1.4450     2.9821     0.1069 H       
  40 H40           -4.7965    -0.0686     0.1263 H       
  41 H41           -6.3358     2.0908     1.0981 H       
  42 H42           -6.3807     2.1258    -0.6810 H       
  43 H43           -7.1876    -0.2188    -0.7067 H       
  44 H44           -7.1427    -0.2538     1.0723 H       
  45 H45           -8.8534     1.0958    -1.8822 H       
  46 H46          -10.9922     2.0111     2.4656 H       
  47 H47           -8.7472     1.0059     2.3804 H       
  48 H48            3.1168    -1.5465    -0.1849 H       
  49 H49            2.1206    -1.8490     2.0656 H       
  50 H50            0.6488    -2.5211     1.3237 H       
  51 H51            3.4605    -3.6811     1.0672 H       
  52 H52            2.1607    -4.3282     2.0968 H       
  53 H53            2.2958    -5.5646    -0.0484 H       
  54 H54            0.7511    -4.6909     0.0893 H       
  55 H55            3.2191    -3.7163    -1.4194 H       
  56 H56            1.7473    -4.3884    -2.1612 H       
  57 H57            0.4074    -2.5563    -1.1628 H       
  58 H58            1.7072    -1.9093    -2.1924 H       
  59 H59          -12.3470     3.5909     2.2308 H       
  60 H60          -13.9825     3.3511     1.5705 H       
  61 H61          -13.0716     1.9651     2.2167 H       
  62 H62          -11.1873     2.1549    -4.1114 H       
  63 H63           -9.6237     2.4257    -3.3052 H       
  64 H64          -10.3478     0.7997    -3.3196 H       
  65 H65            3.4286     3.1885    -0.2486 H       
  66 H66            5.8988     3.4496    -0.3032 H       
  67 H67            7.3160     1.4154    -0.1457 H       
  68 H68            6.2461    -0.7923     0.0595 H       
@<TRIPOS>BOND
   1    1    2 ar
   2    1    7 1
   3    1    6 ar
   4    2    3 ar
   5    2    9 1
   6    3    4 ar
   7    3   37 1
   8    4    5 ar
   9    4   38 1
  10    5    6 ar
  11    5   10 1
  12    6   39 1
  13    7    8 2
  14    8    9 1
  15    8   31 1
  16    9   20 1
  17   10   11 am
  18   10   26 2
  19   11   12 1
  20   11   40 1
  21   12   13 1
  22   12   41 1
  23   12   42 1
  24   13   14 1
  25   13   43 1
  26   13   44 1
  27   14   15 ar
  28   14   19 ar
  29   15   16 ar
  30   15   45 1
  31   16   17 ar
  32   16   29 1
  33   17   18 ar
  34   17   27 1
  35   18   19 ar
  36   18   46 1
  37   19   47 1
  38   20   21 1
  39   20   25 1
  40   20   48 1
  41   21   22 1
  42   21   49 1
  43   21   50 1
  44   22   23 1
  45   22   51 1
  46   22   52 1
  47   23   24 1
  48   23   53 1
  49   23   54 1
  50   24   25 1
  51   24   55 1
  52   24   56 1
  53   25   57 1
  54   25   58 1
  55   27   28 1
  56   28   59 1
  57   28   60 1
  58   28   61 1
  59   29   30 1
  60   30   62 1
  61   30   63 1
  62   30   64 1
  63   31   32 ar
  64   31   36 ar
  65   32   33 ar
  66   32   65 1
  67   33   34 ar
  68   33   66 1
  69   34   35 ar
  70   34   67 1
  71   35   36 ar
  72   35   68 1

#	End of record

