#	Name: ASD01150927
#	Creating user name:	WinNT
#	Creation time:	15. 06. 2019 19:05

#	Modifying user name:	WinNT
#	Modification time:	15. 06. 2019 19:05

#	Program:	/corina/corina34_cracker 3.40 0067  02.08.2006

@<TRIPOS>MOLECULE
ASD01150927
  59   62    0    0    0
SMALL
NO_CHARGES


@<TRIPOS>ATOM
   1 C1            -0.0179     1.4696     0.0101 C.2     
   2 C2             0.0021    -0.0041     0.0020 C.2     
   3 N3            -1.1558    -0.6938     0.0094 N.am    
   4 O4             1.0633    -0.5977    -0.0113 O.2     
   5 C5            -1.1370    -2.0836     0.0017 C.2     
   6 N6            -0.0479    -2.8559    -0.0124 N.2     
   7 C7            -0.3958    -4.1265    -0.0160 C.2     
   8 N8            -1.7504    -4.2221    -0.0042 N.pl3   
   9 C9            -2.2479    -2.9178     0.0134 C.2     
  10 C10           -3.6018    -2.5268     0.0301 C.2     
  11 O11           -4.5751    -3.4631     0.0300 O.3     
  12 O12           -3.8941    -1.3446     0.0446 O.2     
  13 C13           -5.9253    -2.9953     0.0474 C.3     
  14 C14           -6.8795    -4.1913     0.0446 C.3     
  15 S15            0.7215    -5.4888    -0.0344 S.3     
  16 C16            2.2990    -4.6014    -0.0441 C.3     
  17 C17           -2.5385    -5.4571    -0.0036 C.3     
  18 C18           -2.7963    -5.8879     1.4173 C.ar    
  19 C19           -3.9236    -5.4415     2.0811 C.ar    
  20 C20           -4.1601    -5.8366     3.3845 C.ar    
  21 C21           -3.2694    -6.6784     4.0240 C.ar    
  22 C22           -2.1425    -7.1255     3.3598 C.ar    
  23 C23           -1.9083    -6.7339     2.0550 C.ar    
  24 C24            1.0601     2.3086     0.0043 C.2     
  25 O25            0.6199     3.5706     0.0145 O.3     
  26 C26           -0.7252     3.6092     0.0270 C.2     
  27 C27           -1.1997     2.3388     0.0196 C.2     
  28 C28            2.5054     1.8821    -0.0110 C.3     
  29 C29           -1.5504     4.8357     0.0410 C.ar    
  30 C30           -0.9400     6.0909     0.0414 C.ar    
  31 C31           -1.7153     7.2317     0.0545 C.ar    
  32 C32           -3.0965     7.1335     0.0676 C.ar    
  33 C33           -3.7077     5.8910     0.0677 C.ar    
  34 C34           -2.9430     4.7431     0.0480 C.ar    
  35 Cl35          -4.0655     8.5737     0.0846 Cl      
  36 H36           -2.0023    -0.2203     0.0200 H       
  37 H37           -6.0919    -2.3997     0.9449 H       
  38 H38           -6.1087    -2.3820    -0.8349 H       
  39 H39           -6.6960    -4.8045     0.9268 H       
  40 H40           -7.9093    -3.8345     0.0578 H       
  41 H41           -6.7129    -4.7869    -0.8530 H       
  42 H42            2.3554    -3.9703    -0.9310 H       
  43 H43            2.3721    -3.9806     0.8489 H       
  44 H44            3.1194    -5.3189    -0.0559 H       
  45 H45           -3.4886    -5.2821    -0.5083 H       
  46 H46           -1.9882    -6.2395    -0.5263 H       
  47 H47           -4.6195    -4.7838     1.5816 H       
  48 H48           -5.0405    -5.4873     3.9034 H       
  49 H49           -3.4537    -6.9865     5.0425 H       
  50 H50           -1.4464    -7.7829     3.8595 H       
  51 H51           -1.0278    -7.0832     1.5361 H       
  52 H52           -2.2347     2.0304     0.0258 H       
  53 H53            2.8445     1.7843    -1.0423 H       
  54 H54            3.1104     2.6304     0.5010 H       
  55 H55            2.6067     0.9232     0.4973 H       
  56 H56            0.1371     6.1687     0.0319 H       
  57 H57           -1.2441     8.2035     0.0548 H       
  58 H58           -4.7854     5.8206     0.0787 H       
  59 H59           -3.4209     3.7746     0.0481 H       
@<TRIPOS>BOND
   1    1    2 1
   2    1   24 2
   3    1   27 1
   4    2    3 am
   5    2    4 2
   6    3    5 1
   7    3   36 1
   8    5    6 1
   9    5    9 2
  10    6    7 2
  11    7    8 1
  12    7   15 1
  13    8    9 1
  14    8   17 1
  15    9   10 1
  16   10   11 1
  17   10   12 2
  18   11   13 1
  19   13   14 1
  20   13   37 1
  21   13   38 1
  22   14   39 1
  23   14   40 1
  24   14   41 1
  25   15   16 1
  26   16   42 1
  27   16   43 1
  28   16   44 1
  29   17   18 1
  30   17   45 1
  31   17   46 1
  32   18   19 ar
  33   18   23 ar
  34   19   20 ar
  35   19   47 1
  36   20   21 ar
  37   20   48 1
  38   21   22 ar
  39   21   49 1
  40   22   23 ar
  41   22   50 1
  42   23   51 1
  43   24   25 1
  44   24   28 1
  45   25   26 1
  46   26   27 2
  47   26   29 1
  48   27   52 1
  49   28   53 1
  50   28   54 1
  51   28   55 1
  52   29   30 ar
  53   29   34 ar
  54   30   31 ar
  55   30   56 1
  56   31   32 ar
  57   31   57 1
  58   32   33 ar
  59   32   35 1
  60   33   34 ar
  61   33   58 1
  62   34   59 1

#	End of record

