#	Name: ASD04880122
#	Creating user name:	WinNT
#	Creation time:	15. 06. 2019 20:52

#	Modifying user name:	WinNT
#	Modification time:	15. 06. 2019 20:52

#	Program:	/corina/corina34_cracker 3.40 0067  02.08.2006

@<TRIPOS>MOLECULE
ASD04880122
  47   49    0    0    0
SMALL
NO_CHARGES


@<TRIPOS>ATOM
   1 C1            -0.0144     1.2121     0.0087 C.2     
   2 O2             0.0441    -0.0026    -0.0116 O.2     
   3 C3             1.2257     2.0109    -0.0176 C.ar    
   4 C4             2.4704     1.3782     0.0698 C.ar    
   5 C5             3.6294     2.1333     0.0446 C.ar    
   6 C6             3.5575     3.5136    -0.0666 C.ar    
   7 C7             2.3239     4.1451    -0.1536 C.ar    
   8 C8             1.1616     3.4018    -0.1357 C.ar    
   9 F9             2.2618     5.4904    -0.2612 F       
  10 F10            4.6920     4.2468    -0.0899 F       
  11 F11            4.8328     1.5250     0.1288 F       
  12 F12            2.5404     0.0335     0.1790 F       
  13 N13           -1.2123     1.8284     0.0496 N.am    
  14 N14           -1.4136     3.2003     0.1879 N.2     
  15 C15           -2.6532     3.5517     0.2005 C.2     
  16 C16           -3.5271     2.3262     0.0568 C.3     
  17 C17           -2.5210     1.1632    -0.0509 C.3     
  18 C18           -4.4211     2.1573     1.2869 C.3     
  19 C19           -4.3731     2.4165    -1.2148 C.3     
  20 C20           -3.1438     4.9354     0.3350 C.ar    
  21 C21           -2.2367     5.9911     0.4617 C.ar    
  22 C22           -2.7020     7.2862     0.5869 C.ar    
  23 C23           -4.0728     7.5374     0.5866 C.ar    
  24 C24           -4.9732     6.4900     0.4614 C.ar    
  25 C25           -4.5163     5.1952     0.3302 C.ar    
  26 O26           -4.5284     8.8122     0.7099 O.3     
  27 C27           -5.9453     8.9983     0.7020 C.3     
  28 O28           -1.8222     8.3158     0.7109 O.3     
  29 C29           -0.4319     7.9855     0.7038 C.3     
  30 H30            0.2034     3.8947    -0.2083 H       
  31 H31           -2.6204     0.6551    -1.0100 H       
  32 H32           -2.6590     0.4618     0.7720 H       
  33 H33           -5.0760     3.0234     1.3818 H       
  34 H34           -5.0242     1.2561     1.1768 H       
  35 H35           -3.7999     2.0721     2.1785 H       
  36 H36           -3.7182     2.5135    -2.0808 H       
  37 H37           -4.9764     1.5142    -1.3147 H       
  38 H38           -5.0274     3.2863    -1.1549 H       
  39 H39           -1.1746     5.7951     0.4621 H       
  40 H40           -6.0347     6.6892     0.4620 H       
  41 H41           -5.2196     4.3820     0.2283 H       
  42 H42           -6.3548     8.6306    -0.2388 H       
  43 H43           -6.3887     8.4472     1.5314 H       
  44 H44           -6.1730    10.0590     0.8075 H       
  45 H45           -0.2141     7.3126     1.5332 H       
  46 H46           -0.1795     7.4962    -0.2370 H       
  47 H47            0.1584     8.8957     0.8097 H       
@<TRIPOS>BOND
   1    1    2 2
   2    1    3 1
   3    1   13 am
   4    3    4 ar
   5    3    8 ar
   6    4    5 ar
   7    4   12 1
   8    5    6 ar
   9    5   11 1
  10    6    7 ar
  11    6   10 1
  12    7    8 ar
  13    7    9 1
  14    8   30 1
  15   13   14 1
  16   13   17 1
  17   14   15 2
  18   15   16 1
  19   15   20 1
  20   16   17 1
  21   16   18 1
  22   16   19 1
  23   17   31 1
  24   17   32 1
  25   18   33 1
  26   18   34 1
  27   18   35 1
  28   19   36 1
  29   19   37 1
  30   19   38 1
  31   20   21 ar
  32   20   25 ar
  33   21   22 ar
  34   21   39 1
  35   22   23 ar
  36   22   28 1
  37   23   24 ar
  38   23   26 1
  39   24   25 ar
  40   24   40 1
  41   25   41 1
  42   26   27 1
  43   27   42 1
  44   27   43 1
  45   27   44 1
  46   28   29 1
  47   29   45 1
  48   29   46 1
  49   29   47 1

#	End of record

