#	Name: ASD01910426
#	Creating user name:	WinNT
#	Creation time:	15. 06. 2019 19:55

#	Modifying user name:	WinNT
#	Modification time:	15. 06. 2019 19:55

#	Program:	/corina/corina34_cracker 3.40 0067  02.08.2006

@<TRIPOS>MOLECULE
ASD01910426
  45   48    0    0    0
SMALL
NO_CHARGES


@<TRIPOS>ATOM
   1 C1            -0.1758     1.4524     0.4009 C.ar    
   2 C2            -0.1517     0.0708     0.2977 C.ar    
   3 C3             1.0500    -0.5930     0.1092 C.ar    
   4 C4             2.2280     0.1198     0.0238 C.ar    
   5 C5             2.2083     1.5094     0.1271 C.ar    
   6 C6             0.9975     2.1730     0.3162 C.ar    
   7 F7            -1.3029    -0.6311     0.3816 F       
   8 C8             3.4729     2.2803     0.0363 C.2     
   9 N9             3.6018     3.6239     0.1190 N.2     
  10 C10            4.8829     3.8630    -0.0114 C.2     
  11 O11            5.4900     2.6824    -0.1672 O.3     
  12 N12            4.6723     1.7871    -0.1328 N.2     
  13 C13            5.5477     5.2153     0.0096 C.3     
  14 C14            6.5588     5.2702     1.1591 C.3     
  15 N15            7.2890     6.5431     1.0862 N.am    
  16 C16            7.9503     6.9070    -0.1743 C.3     
  17 C17            6.9236     6.8338    -1.3088 C.3     
  18 C18            6.2757     5.4473    -1.3164 C.3     
  19 C19            7.3506     7.3616     2.1552 C.2     
  20 O20            6.7121     7.1025     3.1567 O.2     
  21 C21            8.1941     8.5738     2.1099 C.ar    
  22 C22            7.7209     9.7758     2.6436 C.ar    
  23 C23            8.5054    10.9094     2.6030 C.ar    
  24 C24            9.7665    10.8654     2.0340 C.ar    
  25 C25           10.2520     9.6671     1.4953 C.ar    
  26 C26            9.4646     8.5186     1.5402 C.ar    
  27 F27           10.5296    11.9796     1.9976 F       
  28 C28           11.5563     9.6210     0.9060 C.1     
  29 N29           12.5910     9.5844     0.4385 N.1     
  30 H30           -1.1150     1.9662     0.5434 H       
  31 H31            1.0644    -1.6699     0.0292 H       
  32 H32            3.1643    -0.3983    -0.1224 H       
  33 H33            0.9778     3.2498     0.3963 H       
  34 H34            4.7934     5.9893     0.1513 H       
  35 H35            6.0331     5.2046     2.1117 H       
  36 H36            7.2603     4.4409     1.0686 H       
  37 H37            8.3428     7.9213    -0.1015 H       
  38 H38            8.7653     6.2111    -0.3735 H       
  39 H39            6.1567     7.5929    -1.1550 H       
  40 H40            7.4221     7.0076    -2.2624 H       
  41 H41            7.0461     4.6872    -1.4455 H       
  42 H42            5.5624     5.3843    -2.1382 H       
  43 H43            6.7378     9.8172     3.0888 H       
  44 H44            8.1342    11.8353     3.0167 H       
  45 H45            9.8336     7.5916     1.1268 H       
@<TRIPOS>BOND
   1    1    2 ar
   2    1    6 ar
   3    1   30 1
   4    2    3 ar
   5    2    7 1
   6    3    4 ar
   7    3   31 1
   8    4    5 ar
   9    4   32 1
  10    5    6 ar
  11    5    8 1
  12    6   33 1
  13    8    9 1
  14    8   12 2
  15    9   10 2
  16   10   11 1
  17   10   13 1
  18   11   12 1
  19   13   14 1
  20   13   18 1
  21   13   34 1
  22   14   15 1
  23   14   35 1
  24   14   36 1
  25   15   16 1
  26   15   19 am
  27   16   17 1
  28   16   37 1
  29   16   38 1
  30   17   18 1
  31   17   39 1
  32   17   40 1
  33   18   41 1
  34   18   42 1
  35   19   20 2
  36   19   21 1
  37   21   22 ar
  38   21   26 ar
  39   22   23 ar
  40   22   43 1
  41   23   24 ar
  42   23   44 1
  43   24   25 ar
  44   24   27 1
  45   25   26 ar
  46   25   28 1
  47   26   45 1
  48   28   29 3

#	End of record

