#	Name: ASD01230836
#	Creating user name:	WinNT
#	Creation time:	15. 06. 2019 19:15

#	Modifying user name:	WinNT
#	Modification time:	15. 06. 2019 19:15

#	Program:	/corina/corina34_cracker 3.40 0067  02.08.2006

@<TRIPOS>MOLECULE
ASD01230836
  48   51    0    0    0
SMALL
NO_CHARGES


@<TRIPOS>ATOM
   1 C1             0.9967    -0.1176    -0.6745 C.3     
   2 C2             1.4221    -1.5084    -0.1959 C.3     
   3 C3             0.3039    -2.5232    -0.3880 C.3     
   4 C4            -1.0795    -1.8901    -0.3366 C.3     
   5 N5            -1.0814    -0.6803     0.4891 N.pl3   
   6 C6            -0.1832     0.3087     0.1821 C.2     
   7 C7            -1.9916    -0.5556     1.6248 C.3     
   8 C8            -2.7628     0.7609     1.5179 C.3     
   9 S9            -1.5894     2.1341     1.3723 S.o2    
  10 N10           -0.3071     1.5275     0.5356 N.am    
  11 C11            2.1347     0.8552    -0.5018 C.ar    
  12 O12           -2.1122     3.1449     0.5213 O.2     
  13 O13           -1.0495     2.4621     2.6451 O.2     
  14 C14            2.6524     1.5140    -1.6018 C.ar    
  15 C15            3.6954     2.4062    -1.4463 C.ar    
  16 C16            4.2234     2.6414    -0.1848 C.ar    
  17 C17            3.7017     1.9793     0.9174 C.ar    
  18 C18            2.6554     1.0917     0.7571 C.ar    
  19 O19            5.2498     3.5182    -0.0292 O.3     
  20 C20            5.6571     4.2231    -1.1171 C.ar    
  21 C21            5.0643     5.4414    -1.4177 C.ar    
  22 C22            5.4800     6.1567    -2.5237 C.ar    
  23 C23            6.4859     5.6601    -3.3321 C.ar    
  24 C24            7.0790     4.4457    -3.0351 C.ar    
  25 C25            6.6700     3.7288    -1.9257 C.ar    
  26 C26            4.8363     7.4797    -2.8501 C.3     
  27 F27            5.5366     8.5091    -2.2120 F       
  28 F28            4.8655     7.6838    -4.2338 F       
  29 F29            3.5092     7.4743    -2.4074 F       
  30 Cl30           8.3416     3.8251    -4.0521 Cl      
  31 H31            0.7004    -0.1599    -1.7226 H       
  32 H32            2.2965    -1.8290    -0.7621 H       
  33 H33            1.6812    -1.4584     0.8617 H       
  34 H34            0.4326    -3.0098    -1.3548 H       
  35 H35            0.3750    -3.2777     0.3955 H       
  36 H36           -1.3916    -1.6319    -1.3485 H       
  37 H37           -1.7853    -2.6081     0.0811 H       
  38 H38           -2.6937    -1.3894     1.6209 H       
  39 H39           -1.4190    -0.5671     2.5522 H       
  40 H40           -3.4046     0.7360     0.6373 H       
  41 H41           -3.3740     0.8978     2.4101 H       
  42 H42            2.2411     1.3306    -2.5834 H       
  43 H43            4.0999     2.9199    -2.3058 H       
  44 H44            4.1109     2.1606     1.9004 H       
  45 H45            2.2488     0.5764     1.6147 H       
  46 H46            4.2781     5.8299    -0.7874 H       
  47 H47            6.8090     6.2207    -4.1968 H       
  48 H48            7.1329     2.7810    -1.6938 H       
@<TRIPOS>BOND
   1    1    2 1
   2    1   11 1
   3    1    6 1
   4    1   31 1
   5    2    3 1
   6    2   32 1
   7    2   33 1
   8    3    4 1
   9    3   34 1
  10    3   35 1
  11    4    5 1
  12    4   36 1
  13    4   37 1
  14    5    6 1
  15    5    7 1
  16    6   10 2
  17    7    8 1
  18    7   38 1
  19    7   39 1
  20    8    9 1
  21    8   40 1
  22    8   41 1
  23    9   10 am
  24    9   12 2
  25    9   13 2
  26   11   14 ar
  27   11   18 ar
  28   14   15 ar
  29   14   42 1
  30   15   16 ar
  31   15   43 1
  32   16   17 ar
  33   16   19 1
  34   17   18 ar
  35   17   44 1
  36   18   45 1
  37   19   20 1
  38   20   21 ar
  39   20   25 ar
  40   21   22 ar
  41   21   46 1
  42   22   23 ar
  43   22   26 1
  44   23   24 ar
  45   23   47 1
  46   24   25 ar
  47   24   30 1
  48   25   48 1
  49   26   27 1
  50   26   28 1
  51   26   29 1

#	End of record

