#	Name: ASD03180050
#	Creating user name:	WinNT
#	Creation time:	15. 06. 2019 20:33

#	Modifying user name:	WinNT
#	Modification time:	15. 06. 2019 20:33

#	Program:	/corina/corina34_cracker 3.40 0067  02.08.2006

@<TRIPOS>MOLECULE
ASD03180050
  35   37    0    0    0
SMALL
NO_CHARGES


@<TRIPOS>ATOM
   1 C1             0.4011     1.0195    -1.4919 C.ar    
   2 C2             0.0905    -0.0503    -0.6728 C.ar    
   3 C3             0.9383    -0.4002     0.3650 C.ar    
   4 C4             2.0985     0.3207     0.5842 C.ar    
   5 C5             2.4116     1.3950    -0.2381 C.ar    
   6 C6             1.5580     1.7425    -1.2781 C.ar    
   7 N7             3.5825     2.1259    -0.0195 N.pl3   
   8 C8             3.5648     3.5086    -0.1170 C.2     
   9 C9             4.3968     5.5887    -0.1613 C.2     
  10 N10            4.6069     4.2777    -0.0458 N.2     
  11 S11            2.1252     4.4919    -0.3642 S.3     
  12 C12            3.1131     5.9505    -0.3416 C.2     
  13 C13            5.4966     6.5757    -0.0982 C.2     
  14 S14            5.3314     8.3245    -0.2373 S.3     
  15 C15            7.0204     8.5091    -0.0483 C.2     
  16 N16            7.5849     7.3578     0.0977 N.2     
  17 C17            6.8056     6.2979     0.0822 C.2     
  18 C18            7.7471     9.8293    -0.0517 C.3     
  19 C19            7.3293     4.8945     0.2471 C.3     
  20 F20            0.6319    -1.4457     1.1640 F       
  21 C21            3.0209    -0.0589     1.7138 C.3     
  22 H22           -0.2599     1.2874    -2.3029 H       
  23 H23           -0.8150    -0.6139    -0.8423 H       
  24 H24            1.7993     2.5776    -1.9189 H       
  25 H25            4.4075     1.6658     0.2005 H       
  26 H26            2.7509     6.9616    -0.4549 H       
  27 H27            7.8009    10.2171     0.9656 H       
  28 H28            8.7556     9.6879    -0.4404 H       
  29 H29            7.2106    10.5378    -0.6828 H       
  30 H30            7.5802     4.4831    -0.7306 H       
  31 H31            8.2208     4.9107     0.8742 H       
  32 H32            6.5657     4.2747     0.7171 H       
  33 H33            3.7544    -0.7817     1.3567 H       
  34 H34            3.5348     0.8308     2.0779 H       
  35 H35            2.4405    -0.5003     2.5240 H       
@<TRIPOS>BOND
   1    1    2 ar
   2    1    6 ar
   3    1   22 1
   4    2    3 ar
   5    2   23 1
   6    3    4 ar
   7    3   20 1
   8    4    5 ar
   9    4   21 1
  10    5    6 ar
  11    5    7 1
  12    6   24 1
  13    7    8 1
  14    7   25 1
  15    8   11 1
  16    8   10 2
  17    9   10 1
  18    9   12 2
  19    9   13 1
  20   11   12 1
  21   12   26 1
  22   13   14 1
  23   13   17 2
  24   14   15 1
  25   15   16 2
  26   15   18 1
  27   16   17 1
  28   17   19 1
  29   18   27 1
  30   18   28 1
  31   18   29 1
  32   19   30 1
  33   19   31 1
  34   19   32 1
  35   21   33 1
  36   21   34 1
  37   21   35 1

#	End of record

