#	Name: ASD03730925
#	Creating user name:	WinNT
#	Creation time:	15. 06. 2019 20:44

#	Modifying user name:	WinNT
#	Modification time:	15. 06. 2019 20:44

#	Program:	/corina/corina34_cracker 3.40 0067  02.08.2006

@<TRIPOS>MOLECULE
ASD03730925
  63   69    0    0    0
SMALL
NO_CHARGES


@<TRIPOS>ATOM
   1 C1            -0.0182     1.4735     0.0148 C.2     
   2 C2             0.0014    -0.0045     0.0118 C.ar    
   3 C3             1.2179    -0.6895     0.0013 C.ar    
   4 C4             1.2291    -2.0688    -0.0015 C.ar    
   5 C5             0.0382    -2.7735     0.0060 C.ar    
   6 C6            -1.1707    -2.1009     0.0163 C.ar    
   7 C7            -1.1960    -0.7214     0.0251 C.ar    
   8 O8             1.0265     2.0953     0.0082 O.2     
   9 N9            -1.1942     2.1319     0.0193 N.am    
  10 C10            2.5412    -2.8099    -0.0133 C.3     
  11 O11           -0.9085    -3.3034     6.2754 O.3     
  12 C12           -0.9520    -3.5535     7.6926 C.3     
  13 O13           -0.0474    -4.6591     7.8729 O.3     
  14 C14            0.8522    -4.5664     6.8497 C.ar    
  15 C15            0.3217    -3.7334     5.8672 C.ar    
  16 C16            2.1016    -5.1337     6.6747 C.ar    
  17 C17            2.8357    -4.8801     5.5200 C.ar    
  18 C18            2.2917    -4.0531     4.5420 C.ar    
  19 C19            1.0489    -3.4809     4.7162 C.ar    
  20 O20            4.0763    -5.3190     5.1616 O.3     
  21 C21            3.2953    -3.9965     3.4214 C.3     
  22 C22            4.2443    -5.1599     3.7397 C.3     
  23 N23            2.9772    -3.0528     1.3641 N.am    
  24 C24            2.6515    -4.1516     2.0737 C.2     
  25 C25            4.0181    -2.6832     3.3682 C.ar    
  26 C26            4.7886    -1.9841     4.2702 C.ar    
  27 C27            5.3352    -0.7637     3.9153 C.ar    
  28 C28            5.1054    -0.2477     2.6528 C.ar    
  29 C29            4.3335    -0.9437     1.7461 C.ar    
  30 C30            3.7796    -2.1731     2.0947 C.ar    
  31 O31            1.9721    -5.0832     1.6974 O.2     
  32 C32           -1.2149     3.5275     0.1327 C.ar    
  33 C33           -2.1833     4.2645    -0.5363 C.ar    
  34 C34           -2.2031     5.6406    -0.4240 C.ar    
  35 C35           -1.2556     6.2869     0.3564 C.ar    
  36 C36           -0.2879     5.5513     1.0250 C.ar    
  37 C37           -0.2706     4.1747     0.9187 C.ar    
  38 O38           -1.2752     7.6420     0.4658 O.3     
  39 C39           -0.2700     8.2413     1.2858 C.3     
  40 H40            2.1480    -0.1407    -0.0049 H       
  41 H41            0.0525    -3.8534     0.0034 H       
  42 H42           -2.0966    -2.6568     0.0222 H       
  43 H43           -2.1403    -0.1974     0.0377 H       
  44 H44           -2.0262     1.6390    -0.0560 H       
  45 H45            2.4158    -3.7625    -0.5281 H       
  46 H46            3.2912    -2.2127    -0.5318 H       
  47 H47           -0.6054    -2.6809     8.2463 H       
  48 H48           -1.9601    -3.8292     8.0021 H       
  49 H49            2.5100    -5.7779     7.4394 H       
  50 H50            0.6416    -2.8346     3.9527 H       
  51 H51            5.2741    -4.8965     3.4986 H       
  52 H52            3.9405    -6.0631     3.2105 H       
  53 H53            4.9666    -2.3888     5.2556 H       
  54 H54            5.9403    -0.2155     4.6222 H       
  55 H55            5.5320     0.7050     2.3758 H       
  56 H56            4.1581    -0.5340     0.7624 H       
  57 H57           -2.9205     3.7615    -1.1445 H       
  58 H58           -2.9561     6.2139    -0.9442 H       
  59 H59            0.4495     6.0552     1.6321 H       
  60 H60            0.4798     3.6018     1.4431 H       
  61 H61           -0.3994     9.3236     1.2866 H       
  62 H62           -0.3596     7.8640     2.3045 H       
  63 H63            0.7156     7.9935     0.8919 H       
@<TRIPOS>BOND
   1    1    2 1
   2    1    8 2
   3    1    9 am
   4    2    3 ar
   5    2    7 ar
   6    3    4 ar
   7    3   40 1
   8    4    5 ar
   9    4   10 1
  10    5    6 ar
  11    5   41 1
  12    6    7 ar
  13    6   42 1
  14    7   43 1
  15    9   32 1
  16    9   44 1
  17   10   23 1
  18   10   45 1
  19   10   46 1
  20   11   12 1
  21   11   15 1
  22   12   13 1
  23   12   47 1
  24   12   48 1
  25   13   14 1
  26   14   15 ar
  27   14   16 ar
  28   15   19 ar
  29   16   17 ar
  30   16   49 1
  31   17   18 ar
  32   17   20 1
  33   18   19 ar
  34   18   21 1
  35   19   50 1
  36   20   22 1
  37   21   22 1
  38   21   24 1
  39   21   25 1
  40   22   51 1
  41   22   52 1
  42   23   24 am
  43   23   30 1
  44   24   31 2
  45   25   26 ar
  46   25   30 ar
  47   26   27 ar
  48   26   53 1
  49   27   28 ar
  50   27   54 1
  51   28   29 ar
  52   28   55 1
  53   29   30 ar
  54   29   56 1
  55   32   33 ar
  56   32   37 ar
  57   33   34 ar
  58   33   57 1
  59   34   35 ar
  60   34   58 1
  61   35   36 ar
  62   35   38 1
  63   36   37 ar
  64   36   59 1
  65   37   60 1
  66   38   39 1
  67   39   61 1
  68   39   62 1
  69   39   63 1

#	End of record

