#	Name: ASD01885624
#	Creating user name:	WinNT
#	Creation time:	15. 06. 2019 19:49

#	Modifying user name:	WinNT
#	Modification time:	15. 06. 2019 19:49

#	Program:	/corina/corina34_cracker 3.40 0067  02.08.2006

@<TRIPOS>MOLECULE
ASD01885624
  31   33    0    0    0
SMALL
NO_CHARGES


@<TRIPOS>ATOM
   1 C1            -0.0168     1.3894     0.0097 C.ar    
   2 C2             0.0021    -0.0041     0.0020 C.ar    
   3 C3             1.1810    -0.6870    -0.0125 C.ar    
   4 C4             1.1389     2.1069     0.0025 C.ar    
   5 C5             3.6372    -0.6572    -0.0359 C.ar    
   6 C6             4.7939     0.1115    -0.0432 C.ar    
   7 C7             4.6941     1.5064    -0.0351 C.ar    
   8 N8             3.5237     2.1171    -0.0214 N.ar    
   9 C9             3.7033    -2.1365    -0.0436 C.2     
  10 C10            5.9339     2.3198    -0.0424 C.2     
  11 O11            7.0190     1.7733    -0.0554 O.2     
  12 N12            5.8571     3.6653    -0.0348 N.am    
  13 C13            4.4391    -2.9085    -0.8987 C.2     
  14 N14            4.2223    -4.1970    -0.5725 N.pl3   
  15 N15            3.3332    -4.2329     0.5083 N.2     
  16 C16            3.0235    -3.0065     0.8337 C.2     
  17 C17            2.3773     1.4365    -0.0129 C.ar    
  18 C18            2.3914     0.0188    -0.0203 C.ar    
  19 C19            4.8149    -5.3614    -1.2352 C.3     
  20 H20           -0.9642     1.9080     0.0170 H       
  21 H21           -0.9299    -0.5498     0.0080 H       
  22 H22            1.1825    -1.7670    -0.0176 H       
  23 H23            1.1069     3.1864     0.0082 H       
  24 H24            5.7633    -0.3644    -0.0547 H       
  25 H25            4.9909     4.1017    -0.0244 H       
  26 H26            6.6682     4.1974    -0.0396 H       
  27 H27            5.0779    -2.5502    -1.6924 H       
  28 H28            2.3602    -2.7105     1.6329 H       
  29 H29            5.7548    -5.6183    -0.7467 H       
  30 H30            4.1284    -6.2055    -1.1691 H       
  31 H31            5.0023    -5.1268    -2.2830 H       
@<TRIPOS>BOND
   1    1    2 ar
   2    1    4 ar
   3    1   20 1
   4    2    3 ar
   5    2   21 1
   6    3   18 ar
   7    3   22 1
   8    4   17 ar
   9    4   23 1
  10    5    6 ar
  11    5    9 1
  12    5   18 ar
  13    6    7 ar
  14    6   24 1
  15    7    8 ar
  16    7   10 1
  17    8   17 ar
  18    9   13 2
  19    9   16 1
  20   10   11 2
  21   10   12 am
  22   12   25 1
  23   12   26 1
  24   13   14 1
  25   13   27 1
  26   14   15 1
  27   14   19 1
  28   15   16 2
  29   16   28 1
  30   17   18 ar
  31   19   29 1
  32   19   30 1
  33   19   31 1

#	End of record

