#	Name: ASD05170070
#	Creating user name:	WinNT
#	Creation time:	15. 06. 2019 20:57

#	Modifying user name:	WinNT
#	Modification time:	15. 06. 2019 20:57

#	Program:	/corina/corina34_cracker 3.40 0067  02.08.2006

@<TRIPOS>MOLECULE
ASD05170070
  47   50    0    0    0
SMALL
NO_CHARGES


@<TRIPOS>ATOM
   1 C1            -0.2245     1.4667    -1.1222 C.ar    
   2 C2            -0.2360     0.0854    -1.2763 C.ar    
   3 C3             0.9667    -0.6066    -1.1393 C.ar    
   4 C4             2.1187     0.0957    -0.8579 C.ar    
   5 N5             2.0951     1.4085    -0.7172 N.ar    
   6 C6             0.9750     2.1027    -0.8397 C.ar    
   7 O7             1.0005     3.4506    -0.6869 O.3     
   8 C8             2.2664     4.0469    -0.3970 C.3     
   9 C9             2.1000     5.5386    -0.2623 C.2     
  10 C10            0.8988     6.2490    -0.3913 C.2     
  11 N11            3.0536     6.4011     0.0020 N.2     
  12 C12            1.2375     7.5571    -0.1921 C.2     
  13 C13            0.4313     8.7872    -0.1928 C.2     
  14 N14            2.5915     7.5885     0.0597 N.pl3   
  15 C15            3.2799     8.8510     0.3547 C.3     
  16 C16            2.5652     9.9944    -0.3639 C.3     
  17 N17            1.1172     9.9558    -0.1732 N.am    
  18 O18           -0.7847     8.7573    -0.2105 O.2     
  19 C19            0.4235    11.1524     0.0397 C.ar    
  20 C20           -0.8481    12.5873     1.4803 C.ar    
  21 C21           -0.1645    11.4055     1.2721 C.ar    
  22 C22            0.3271    12.0911    -0.9792 C.ar    
  23 C23           -0.3575    13.2716    -0.7668 C.ar    
  24 C24           -0.9472    13.5198     0.4613 C.ar    
  25 F25           -1.6164    14.6752     0.6671 F       
  26 C26            3.2595     9.1037     1.8635 C.3     
  27 O27           -1.3900    -0.5739    -1.5528 O.3     
  28 C28           -1.3081    -1.9935    -1.6945 C.3     
  29 H29           -1.1359     2.0370    -1.2255 H       
  30 H30            0.9952    -1.6803    -1.2520 H       
  31 H31            3.0533    -0.4348    -0.7507 H       
  32 H32            2.6550     3.6389     0.5361 H       
  33 H33            2.9637     3.8306    -1.2064 H       
  34 H34           -0.0818     5.8488    -0.6023 H       
  35 H35            4.3119     8.7922     0.0088 H       
  36 H36            2.9453    10.9424     0.0169 H       
  37 H37            2.7838     9.9321    -1.4300 H       
  38 H38           -1.3059    12.7843     2.4384 H       
  39 H39           -0.0875    10.6785     2.0671 H       
  40 H40            0.7875    11.8982    -1.9370 H       
  41 H41           -0.4327    14.0018    -1.5589 H       
  42 H42            3.7660     8.2857     2.3758 H       
  43 H43            3.7708    10.0412     2.0819 H       
  44 H44            2.2271     9.1642     2.2078 H       
  45 H45           -0.6281    -2.2386    -2.5104 H       
  46 H46           -0.9362    -2.4303    -0.7678 H       
  47 H47           -2.2978    -2.3944    -1.9136 H       
@<TRIPOS>BOND
   1    1    2 ar
   2    1    6 ar
   3    1   29 1
   4    2    3 ar
   5    2   27 1
   6    3    4 ar
   7    3   30 1
   8    4    5 ar
   9    4   31 1
  10    5    6 ar
  11    6    7 1
  12    7    8 1
  13    8    9 1
  14    8   32 1
  15    8   33 1
  16    9   11 2
  17    9   10 1
  18   10   12 2
  19   10   34 1
  20   11   14 1
  21   12   14 1
  22   12   13 1
  23   13   17 am
  24   13   18 2
  25   14   15 1
  26   15   16 1
  27   15   26 1
  28   15   35 1
  29   16   17 1
  30   16   36 1
  31   16   37 1
  32   17   19 1
  33   19   22 ar
  34   19   21 ar
  35   20   21 ar
  36   20   24 ar
  37   20   38 1
  38   21   39 1
  39   22   23 ar
  40   22   40 1
  41   23   24 ar
  42   23   41 1
  43   24   25 1
  44   26   42 1
  45   26   43 1
  46   26   44 1
  47   27   28 1
  48   28   45 1
  49   28   46 1
  50   28   47 1

#	End of record

