#	Name: ASD01850020
#	Creating user name:	WinNT
#	Creation time:	15. 06. 2019 19:38

#	Modifying user name:	WinNT
#	Modification time:	15. 06. 2019 19:38

#	Program:	/corina/corina34_cracker 3.40 0067  02.08.2006

@<TRIPOS>MOLECULE
ASD01850020
  48   52    0    0    0
SMALL
NO_CHARGES


@<TRIPOS>ATOM
   1 F1             0.2211     0.3908     1.0603 F       
   2 C2             0.1124     1.7139     0.8099 C.ar    
   3 C3             1.2458     2.5086     0.7791 C.ar    
   4 C4             1.1334     3.8619     0.5225 C.ar    
   5 C5            -0.1101     4.4222     0.2965 C.ar    
   6 C6            -1.2424     3.6298     0.3274 C.ar    
   7 C7            -1.1319     2.2752     0.5782 C.ar    
   8 C8            -0.2313     5.8980     0.0167 C.3     
   9 N9             0.9615     6.3991    -0.6764 N.am    
  10 C10            1.8754     6.9001     0.3725 C.3     
  11 C11            1.1121     6.7200     1.7071 C.3     
  12 N12           -0.2971     6.6746     1.2794 N.am    
  13 C13           -1.5694     7.0224     1.4738 C.2     
  14 O14           -2.0422     7.3887     2.5321 O.2     
  15 C15           -2.3171     6.8943     0.2043 C.ar    
  16 C16           -1.5019     6.1999    -0.7253 C.ar    
  17 C17           -1.9581     5.9620    -2.0012 C.ar    
  18 C18           -3.2199     6.3903    -2.3774 C.ar    
  19 C19           -4.0269     7.0586    -1.4734 C.ar    
  20 C20           -3.5923     7.3064    -0.1822 C.ar    
  21 C21            1.1808     6.4013    -2.0062 C.2     
  22 O22            0.3866     5.8652    -2.7541 O.2     
  23 C23            2.3875     7.0558    -2.5553 C.ar    
  24 C24            2.5343     7.2113    -3.9346 C.ar    
  25 C25            3.6624     7.8234    -4.4404 C.ar    
  26 C26            4.6474     8.2821    -3.5838 C.ar    
  27 C27            4.5081     8.1310    -2.2155 C.ar    
  28 C28            3.3821     7.5259    -1.6964 C.ar    
  29 C29            5.8775     8.9487    -4.1435 C.3     
  30 F30            5.6544    10.3258    -4.2493 F       
  31 F31            6.9625     8.7163    -3.2914 F       
  32 F32            6.1577     8.4231    -5.4093 F       
  33 H33            2.2172     2.0712     0.9560 H       
  34 H34            2.0173     4.4821     0.4988 H       
  35 H35           -2.2134     4.0687     0.1514 H       
  36 H36           -2.0167     1.6563     0.6023 H       
  37 H37            2.7951     6.3151     0.3822 H       
  38 H38            2.0996     7.9536     0.2055 H       
  39 H39            1.3981     5.7865     2.1918 H       
  40 H40            1.2869     7.5684     2.3686 H       
  41 H41           -1.3315     5.4410    -2.7100 H       
  42 H42           -3.5754     6.2024    -3.3798 H       
  43 H43           -5.0119     7.3861    -1.7716 H       
  44 H44           -4.2322     7.8289     0.5134 H       
  45 H45            1.7665     6.8531    -4.6044 H       
  46 H46            3.7772     7.9444    -5.5075 H       
  47 H47            5.2805     8.4912    -1.5522 H       
  48 H48            3.2744     7.4089    -0.6281 H       
@<TRIPOS>BOND
   1    1    2 1
   2    2    3 ar
   3    2    7 ar
   4    3    4 ar
   5    3   33 1
   6    4    5 ar
   7    4   34 1
   8    5    6 ar
   9    5    8 1
  10    6    7 ar
  11    6   35 1
  12    7   36 1
  13    8    9 1
  14    8   12 1
  15    8   16 1
  16    9   10 1
  17    9   21 am
  18   10   11 1
  19   10   37 1
  20   10   38 1
  21   11   12 1
  22   11   39 1
  23   11   40 1
  24   12   13 am
  25   13   14 2
  26   13   15 1
  27   15   16 ar
  28   15   20 ar
  29   16   17 ar
  30   17   18 ar
  31   17   41 1
  32   18   19 ar
  33   18   42 1
  34   19   20 ar
  35   19   43 1
  36   20   44 1
  37   21   22 2
  38   21   23 1
  39   23   24 ar
  40   23   28 ar
  41   24   25 ar
  42   24   45 1
  43   25   26 ar
  44   25   46 1
  45   26   27 ar
  46   26   29 1
  47   27   28 ar
  48   27   47 1
  49   28   48 1
  50   29   30 1
  51   29   31 1
  52   29   32 1

#	End of record

