#	Name: ASD03731763
#	Creating user name:	WinNT
#	Creation time:	15. 06. 2019 20:46

#	Modifying user name:	WinNT
#	Modification time:	15. 06. 2019 20:46

#	Program:	/corina/corina34_cracker 3.40 0067  02.08.2006

@<TRIPOS>MOLECULE
ASD03731763
  33   34    0    0    0
SMALL
NO_CHARGES


@<TRIPOS>ATOM
   1 C1             0.3761     1.0935     1.9791 C.2     
   2 C2             0.2923    -0.2827     1.4521 C.ar    
   3 C3             1.3751    -0.8361     0.7629 C.ar    
   4 C4             1.2925    -2.1217     0.2724 C.ar    
   5 C5             0.1324    -2.8675     0.4633 C.ar    
   6 C6            -0.9450    -2.3192     1.1476 C.ar    
   7 C7            -0.8672    -1.0372     1.6459 C.ar    
   8 O8             1.3879     1.7472     1.8139 O.2     
   9 N9            -0.6710     1.6275     2.6385 N.am    
  10 S10           -0.5770     3.1715     3.2298 S.o2    
  11 O11           -1.8281     3.3780     3.8712 O.2     
  12 O12            0.6369     3.1907     3.9682 O.2     
  13 C13           -0.4396     4.2145     1.7520 C.3     
  14 F14            2.3379    -2.6583    -0.3944 F       
  15 O15            0.0538    -4.1332    -0.0208 O.3     
  16 C16           -1.1324    -4.7865     0.0911 C.ar    
  17 C17           -2.0865    -4.6708    -0.9098 C.ar    
  18 C18           -3.2922    -5.3368    -0.7935 C.ar    
  19 C19           -3.5476    -6.1179     0.3202 C.ar    
  20 C20           -2.5982    -6.2338     1.3183 C.ar    
  21 C21           -1.3892    -5.5748     1.2036 C.ar    
  22 Cl22          -4.4869    -5.1931    -2.0449 Cl      
  23 H23            2.2748    -0.2573     0.6146 H       
  24 H24           -1.8434    -2.9006     1.2933 H       
  25 H25           -1.7040    -0.6140     2.1819 H       
  26 H26           -1.4797     1.1075     2.7669 H       
  27 H27           -1.3189     4.0722     1.1238 H       
  28 H28           -0.3719     5.2606     2.0506 H       
  29 H29            0.4546     3.9375     1.1936 H       
  30 H30           -1.8875    -4.0607    -1.7784 H       
  31 H31           -4.4902    -6.6374     0.4098 H       
  32 H32           -2.8000    -6.8436     2.1865 H       
  33 H33           -0.6464    -5.6695     1.9818 H       
@<TRIPOS>BOND
   1    1    2 1
   2    1    8 2
   3    1    9 am
   4    2    3 ar
   5    2    7 ar
   6    3    4 ar
   7    3   23 1
   8    4    5 ar
   9    4   14 1
  10    5    6 ar
  11    5   15 1
  12    6    7 ar
  13    6   24 1
  14    7   25 1
  15    9   10 am
  16    9   26 1
  17   10   11 2
  18   10   12 2
  19   10   13 1
  20   13   27 1
  21   13   28 1
  22   13   29 1
  23   15   16 1
  24   16   17 ar
  25   16   21 ar
  26   17   18 ar
  27   17   30 1
  28   18   19 ar
  29   18   22 1
  30   19   20 ar
  31   19   31 1
  32   20   21 ar
  33   20   32 1
  34   21   33 1

#	End of record

