#	Name: ASD01140352
#	Creating user name:	WinNT
#	Creation time:	15. 06. 2019 19:00

#	Modifying user name:	WinNT
#	Modification time:	15. 06. 2019 19:00

#	Program:	/corina/corina34_cracker 3.40 0067  02.08.2006

@<TRIPOS>MOLECULE
ASD01140352
  52   55    0    0    0
SMALL
NO_CHARGES


@<TRIPOS>ATOM
   1 C1            -0.0169     1.3931     0.0097 C.ar    
   2 C2             0.0021    -0.0041     0.0020 C.ar    
   3 C3             1.2150    -0.6814    -0.0011 C.ar    
   4 C4             2.4238     0.0272     0.0033 C.ar    
   5 C5             2.3885     1.4241    -0.0128 C.ar    
   6 C6             1.1680     2.0938     0.0022 C.ar    
   7 C7             3.6699    -0.7453     0.0566 C.2     
   8 N8             4.7610    -0.5277    -0.5875 N.2     
   9 C9             4.8892     0.5838    -1.5371 C.3     
  10 C10            4.6749     1.8654    -0.7741 C.2     
  11 N11            3.5560     2.1894    -0.0776 N.pl3   
  12 C12            3.7743     3.3972     0.5095 C.2     
  13 C13            5.5443     2.9030    -0.6427 C.2     
  14 N14            4.9546     3.8265     0.1623 N.2     
  15 C15            3.6711    -1.9188     0.9634 C.ar    
  16 N16            2.5824    -2.2101     1.6640 N.ar    
  17 C17            4.8131    -2.7092     1.0682 C.ar    
  18 C18            4.7991    -3.8025     1.9191 C.ar    
  19 C19            3.6426    -4.0678     2.6364 C.ar    
  20 C20            2.5419    -3.2424     2.4792 C.ar    
  21 C21           -1.2280    -0.7373    -0.0022 C.1     
  22 C22           -2.2364    -1.3384    -0.0056 C.1     
  23 C23            6.8786     3.0069    -1.2584 C.2     
  24 O24            7.2954     2.1066    -1.9628 O.2     
  25 S25            7.8710     4.4349    -0.9747 S.3     
  26 C26            9.3327     4.0008    -1.9500 C.3     
  27 Si27          -3.8684    -2.3113    -0.0112 Si      
  28 C28           -3.5025    -4.1379    -0.0212 C.3     
  29 C29           -4.8517    -1.8832     1.5122 C.3     
  30 C30           -4.8513    -1.8665    -1.5300 C.3     
  31 H31           -0.9586     1.9218     0.0170 H       
  32 H32            1.2263    -1.7613    -0.0066 H       
  33 H33            1.1507     3.1737     0.0075 H       
  34 H34            5.8855     0.5791    -1.9791 H       
  35 H35            4.1365     0.4897    -2.3199 H       
  36 H36            3.0823     3.9155     1.1568 H       
  37 H37            5.6969    -2.4735     0.4940 H       
  38 H38            5.6693    -4.4341     2.0211 H       
  39 H39            3.5991    -4.9126     3.3079 H       
  40 H40            1.6396    -3.4458     3.0366 H       
  41 H41            9.7651     3.0772    -1.5650 H       
  42 H42            9.0456     3.8608    -2.9921 H       
  43 H43           10.0675     4.8028    -1.8801 H       
  44 H44           -2.9274    -4.3981     0.8674 H       
  45 H45           -4.4387    -4.6960    -0.0244 H       
  46 H46           -2.9272    -4.3884    -0.9125 H       
  47 H47           -5.0658    -0.8145     1.5180 H       
  48 H48           -5.7880    -2.4413     1.5090 H       
  49 H49           -4.2767    -2.1435     2.4008 H       
  50 H50           -4.2760    -2.1169    -2.4213 H       
  51 H51           -5.7876    -2.4246    -1.5332 H       
  52 H52           -5.0654    -0.7977    -1.5242 H       
@<TRIPOS>BOND
   1    1    2 ar
   2    1    6 ar
   3    1   31 1
   4    2    3 ar
   5    2   21 1
   6    3    4 ar
   7    3   32 1
   8    4    5 ar
   9    4    7 1
  10    5    6 ar
  11    5   11 1
  12    6   33 1
  13    7    8 2
  14    7   15 1
  15    8    9 1
  16    9   10 1
  17    9   34 1
  18    9   35 1
  19   10   11 1
  20   10   13 2
  21   11   12 1
  22   12   14 2
  23   12   36 1
  24   13   14 1
  25   13   23 1
  26   15   16 ar
  27   15   17 ar
  28   16   20 ar
  29   17   18 ar
  30   17   37 1
  31   18   19 ar
  32   18   38 1
  33   19   20 ar
  34   19   39 1
  35   20   40 1
  36   21   22 3
  37   22   27 1
  38   23   24 2
  39   23   25 1
  40   25   26 1
  41   26   41 1
  42   26   42 1
  43   26   43 1
  44   27   28 1
  45   27   29 1
  46   27   30 1
  47   28   44 1
  48   28   45 1
  49   28   46 1
  50   29   47 1
  51   29   48 1
  52   29   49 1
  53   30   50 1
  54   30   51 1
  55   30   52 1

#	End of record

