#	Name: ASD01903271
#	Creating user name:	WinNT
#	Creation time:	15. 06. 2019 19:54

#	Modifying user name:	WinNT
#	Modification time:	15. 06. 2019 19:54

#	Program:	/corina/corina34_cracker 3.40 0067  02.08.2006

@<TRIPOS>MOLECULE
ASD01903271
  46   49    0    0    0
SMALL
NO_CHARGES


@<TRIPOS>ATOM
   1 C1            -0.0087     1.3697     0.0427 C.ar    
   2 C2            -0.0807     0.1154    -0.5413 C.ar    
   3 C3             1.0392    -0.4068    -1.1700 C.ar    
   4 C4             2.1991     0.3513    -1.1913 C.ar    
   5 C5             2.1993     1.6050    -0.5835 C.ar    
   6 N6             1.1052     2.0682     0.0080 N.ar    
   7 C7             3.4312     2.4275    -0.5971 C.2     
   8 O8             4.4360     2.0081    -1.1369 O.2     
   9 N9             3.4376     3.6411    -0.0108 N.am    
  10 C10            4.6289     4.3705     0.0748 C.ar    
  11 C11            4.6037     5.7550    -0.0268 C.ar    
  12 C12            5.7830     6.4758     0.0580 C.ar    
  13 C13            6.9921     5.8100     0.2451 C.ar    
  14 C14            7.0130     4.4268     0.3461 C.ar    
  15 C15            5.8354     3.7095     0.2670 C.ar    
  16 N16            8.1902     6.5386     0.3257 N.am    
  17 C17            8.9612     6.8550    -0.7304 C.2     
  18 C18           10.1296     7.6211    -0.2479 C.ar    
  19 C19            9.9750     7.7208     1.1497 C.ar    
  20 C20            8.7149     7.0168     1.4684 C.2     
  21 O21            8.7353     6.5599    -1.8867 O.2     
  22 O22            8.2370     6.8857     2.5772 O.2     
  23 C23           12.1724     8.8661    -0.0969 C.ar    
  24 C24           12.0212     8.9631     1.2736 C.ar    
  25 C25           10.9248     8.3930     1.9018 C.ar    
  26 C26           11.2304     8.1962    -0.8621 C.ar    
  27 C27           11.4031     8.0936    -2.3557 C.3     
  28 O28            5.7608     7.8316    -0.0416 O.3     
  29 C29            4.4856     8.4472    -0.2333 C.3     
  30 H30           -0.8806     1.7814     0.5293 H       
  31 H31           -1.0001    -0.4502    -0.5069 H       
  32 H32            1.0085    -1.3824    -1.6323 H       
  33 H33            3.0902    -0.0246    -1.6719 H       
  34 H34            2.6166     4.0090     0.3517 H       
  35 H35            3.6652     6.2693    -0.1722 H       
  36 H36            7.9505     3.9106     0.4912 H       
  37 H37            5.8537     2.6325     0.3459 H       
  38 H38           13.0310     9.3142    -0.5747 H       
  39 H39           12.7620     9.4874     1.8590 H       
  40 H40           10.8113     8.4729     2.9729 H       
  41 H41           10.9200     8.9441    -2.8366 H       
  42 H42           12.4655     8.0936    -2.5994 H       
  43 H43           10.9487     7.1688    -2.7112 H       
  44 H44            4.6098     9.5283    -0.2963 H       
  45 H45            4.0391     8.0783    -1.1567 H       
  46 H46            3.8351     8.2046     0.6070 H       
@<TRIPOS>BOND
   1    1    2 ar
   2    1    6 ar
   3    1   30 1
   4    2    3 ar
   5    2   31 1
   6    3    4 ar
   7    3   32 1
   8    4    5 ar
   9    4   33 1
  10    5    6 ar
  11    5    7 1
  12    7    8 2
  13    7    9 am
  14    9   10 1
  15    9   34 1
  16   10   11 ar
  17   10   15 ar
  18   11   12 ar
  19   11   35 1
  20   12   28 1
  21   12   13 ar
  22   13   14 ar
  23   13   16 1
  24   14   15 ar
  25   14   36 1
  26   15   37 1
  27   16   17 am
  28   16   20 am
  29   17   18 1
  30   17   21 2
  31   18   19 ar
  32   18   26 ar
  33   19   20 1
  34   19   25 ar
  35   20   22 2
  36   23   24 ar
  37   23   26 ar
  38   23   38 1
  39   24   25 ar
  40   24   39 1
  41   25   40 1
  42   26   27 1
  43   27   41 1
  44   27   42 1
  45   27   43 1
  46   28   29 1
  47   29   44 1
  48   29   45 1
  49   29   46 1

#	End of record

