#	Name: ASD09116017
#	Creating user name:	WinNT
#	Creation time:	15. 06. 2019 21:20

#	Modifying user name:	WinNT
#	Modification time:	15. 06. 2019 21:20

#	Program:	/corina/corina34_cracker 3.40 0067  02.08.2006

@<TRIPOS>MOLECULE
ASD09116017
  81   88    0    0    0
SMALL
NO_CHARGES


@<TRIPOS>ATOM
   1 C1             0.0102     1.3891     0.2954 C.ar    
   2 C2             0.0216    -0.0024     0.2346 C.ar    
   3 C3            -1.1705    -0.6827     0.2904 C.ar    
   4 N4            -2.2963     0.0243     0.4016 N.ar    
   5 N5            -2.3099     1.3069     0.4582 N.ar    
   6 C6            -1.1961     2.0434     0.4154 C.ar    
   7 N7            -1.2031    -2.0772     0.2318 N.pl3   
   8 N8            -0.1014    -2.9401     0.1156 N.2     
   9 C9            -0.5738    -4.1635     0.0966 C.2     
  10 N10           -1.9076    -4.1175     0.1942 N.2     
  11 C11           -2.3025    -2.8654     0.2818 C.2     
  12 N12            0.1909    -5.3252    -0.0088 N.pl3   
  13 C13           -0.4233    -6.5794     0.0934 C.ar    
  14 C14            0.1050    -7.6687    -0.5869 C.ar    
  15 C15           -1.5574    -6.7350     0.8797 C.ar    
  16 C16           -2.1632    -7.9735     0.9807 C.ar    
  17 C17           -1.6365    -9.0624     0.2948 C.ar    
  18 C18           -0.5002    -8.9063    -0.4867 C.ar    
  19 N19           -3.6095    -2.4313     0.3958 N.pl3   
  20 N20           -2.2497   -10.3183     0.3970 N.3     
  21 F21           -3.2663    -8.1260     1.7457 F       
  22 C22           -2.6912   -10.7970    -0.9192 C.3     
  23 C23           -3.3655   -10.2831     1.3509 C.3     
  24 C24           -3.9164   -11.6976     1.5461 C.3     
  25 C25           -4.3905   -12.2460     0.1974 C.3     
  26 C26           -3.2219   -12.2268    -0.7918 C.3     
  27 N27           -4.8665   -13.6252     0.3683 N.3     
  28 C28           -6.0549   -13.6699     1.2398 C.3     
  29 C29           -5.2151   -14.2306    -0.9347 C.3     
  30 C30           -6.4059   -15.1725    -0.6273 C.3     
  31 C31           -7.1818   -14.3582     0.4412 C.3     
  32 C32            1.3831     2.0096     0.2237 C.3     
  33 C33            2.2116     1.4285     1.3827 C.3     
  34 C34            2.2240    -0.0987     1.3166 C.3     
  35 C35            1.4048    -0.5912     0.1110 C.3     
  36 C36            2.0352     1.5340    -1.0861 C.3     
  37 C37            2.0481     0.0068    -1.1522 C.3     
  38 C38           -1.2574     3.5235     0.4836 C.ar    
  39 C39           -2.1218     4.2277    -0.3543 C.ar    
  40 C40           -2.1745     5.6066    -0.2854 C.ar    
  41 C41           -1.3724     6.2876     0.6118 C.ar    
  42 C42           -0.5132     5.5935     1.4452 C.ar    
  43 C43           -0.4556     4.2160     1.3894 C.ar    
  44 Cl44          -3.1287     3.3738    -1.4814 Cl      
  45 H45            1.1482    -5.2643    -0.1529 H       
  46 H46            0.9894    -7.5481    -1.1950 H       
  47 H47           -1.9657    -5.8889     1.4123 H       
  48 H48           -0.0913    -9.7519    -1.0197 H       
  49 H49           -4.3345    -3.0755     0.4169 H       
  50 H50           -3.8020    -1.4824     0.4549 H       
  51 H51           -3.4823   -10.1481    -1.2950 H       
  52 H52           -1.8498   -10.7823    -1.6120 H       
  53 H53           -3.0140    -9.8952     2.3070 H       
  54 H54           -4.1535    -9.6367     0.9645 H       
  55 H55           -3.1328   -12.3413     1.9456 H       
  56 H56           -4.7546   -11.6688     2.2423 H       
  57 H57           -5.2008   -11.6246    -0.1839 H       
  58 H58           -3.5640   -12.5761    -1.7660 H       
  59 H59           -2.4273   -12.8789    -0.4291 H       
  60 H60           -5.8337   -14.2444     2.1393 H       
  61 H61           -6.3559   -12.6574     1.5085 H       
  62 H62           -5.5150   -13.4588    -1.6436 H       
  63 H63           -4.3722   -14.8000    -1.3263 H       
  64 H64           -7.0167   -15.3325    -1.5158 H       
  65 H65           -6.0579   -16.1211    -0.2186 H       
  66 H66           -7.7612   -15.0203     1.0847 H       
  67 H67           -7.8266   -13.6176    -0.0319 H       
  68 H68            1.3290     3.0967     0.2827 H       
  69 H69            3.2341     1.8004     1.3167 H       
  70 H70            1.7766     1.7448     2.3307 H       
  71 H71            3.2523    -0.4469     1.2201 H       
  72 H72            1.7945    -0.5026     2.2334 H       
  73 H73            1.3691    -1.6800     0.0757 H       
  74 H74            1.4718     1.9266    -1.9326 H       
  75 H75            3.0588     1.9055    -1.1348 H       
  76 H76            3.0777    -0.3419    -1.2319 H       
  77 H77            1.4909    -0.3207    -2.0299 H       
  78 H78           -2.8430     6.1536    -0.9338 H       
  79 H79           -1.4165     7.3655     0.6621 H       
  80 H80            0.1108     6.1310     2.1439 H       
  81 H81            0.2156     3.6759     2.0406 H       
@<TRIPOS>BOND
   1    1    2 ar
   2    1   32 1
   3    1    6 ar
   4    2    3 ar
   5    2   35 1
   6    3    4 ar
   7    3    7 1
   8    4    5 ar
   9    5    6 ar
  10    6   38 1
  11    7    8 1
  12    7   11 1
  13    8    9 2
  14    9   10 1
  15    9   12 1
  16   10   11 2
  17   11   19 1
  18   12   13 1
  19   12   45 1
  20   13   14 ar
  21   13   15 ar
  22   14   18 ar
  23   14   46 1
  24   15   16 ar
  25   15   47 1
  26   16   17 ar
  27   16   21 1
  28   17   18 ar
  29   17   20 1
  30   18   48 1
  31   19   49 1
  32   19   50 1
  33   20   22 1
  34   20   23 1
  35   22   26 1
  36   22   51 1
  37   22   52 1
  38   23   24 1
  39   23   53 1
  40   23   54 1
  41   24   25 1
  42   24   55 1
  43   24   56 1
  44   25   26 1
  45   25   27 1
  46   25   57 1
  47   26   58 1
  48   26   59 1
  49   27   28 1
  50   27   29 1
  51   28   31 1
  52   28   60 1
  53   28   61 1
  54   29   30 1
  55   29   62 1
  56   29   63 1
  57   30   31 1
  58   30   64 1
  59   30   65 1
  60   31   66 1
  61   31   67 1
  62   32   33 1
  63   32   36 1
  64   32   68 1
  65   33   34 1
  66   33   69 1
  67   33   70 1
  68   34   35 1
  69   34   71 1
  70   34   72 1
  71   35   37 1
  72   35   73 1
  73   36   37 1
  74   36   74 1
  75   36   75 1
  76   37   76 1
  77   37   77 1
  78   38   39 ar
  79   38   43 ar
  80   39   40 ar
  81   39   44 1
  82   40   41 ar
  83   40   78 1
  84   41   42 ar
  85   41   79 1
  86   42   43 ar
  87   42   80 1
  88   43   81 1

#	End of record

