#	Name: ASD01948316
#	Creating user name:	WinNT
#	Creation time:	15. 06. 2019 20:14

#	Modifying user name:	WinNT
#	Modification time:	15. 06. 2019 20:14

#	Program:	/corina/corina34_cracker 3.40 0067  02.08.2006

@<TRIPOS>MOLECULE
ASD01948316
  53   56    0    0    0
SMALL
NO_CHARGES


@<TRIPOS>ATOM
   1 C1            -0.0337     1.5230    -0.3564 C.2     
   2 N2            -0.0758     0.1906    -0.0607 N.am    
   3 C3             1.0451    -0.4900     0.2414 C.2     
   4 C4             2.3400     1.5128    -0.0410 C.2     
   5 C5             1.1411     2.1965    -0.3537 C.2     
   6 C6             2.7832     3.5787     1.7817 C.ar    
   7 C7             3.7507     3.2617     0.8361 C.ar    
   8 N8             3.5537     2.1858    -0.0336 N.pl3   
   9 C9             2.9807     4.6426     2.6393 C.ar    
  10 C10            4.1404     5.3928     2.5578 C.ar    
  11 C11            5.1054     5.0797     1.6176 C.ar    
  12 C12            4.9139     4.0167     0.7569 C.ar    
  13 N13            1.1695     3.5666    -0.6597 N.am    
  14 S14           -0.2228     4.3445    -1.1051 S.o2    
  15 C15           -0.7321     3.5189    -2.6380 C.3     
  16 O16            0.9813    -1.6824     0.5026 O.2     
  17 C17           -1.3023    -0.4767    -0.0716 C.2     
  18 C18            5.9660     3.6760    -0.2669 C.3     
  19 I19            4.4352     7.0066     3.8608 I       
  20 O20           -1.1366     4.0558    -0.0559 O.2     
  21 O21            0.1904     5.6780    -1.3706 O.2     
  22 C22            2.2831     0.1614     0.2574 C.2     
  23 F23            3.4099    -0.5196     0.5605 F       
  24 C24           -2.0128     4.1686    -3.1659 C.3     
  25 C25            0.3770     3.6547    -3.6831 C.3     
  26 N26           -1.4856    -1.8212     0.0863 N.pl3   
  27 C27           -2.6066     3.6096    -4.4605 C.3     
  28 C28           -3.2965     3.3372    -3.1223 C.3     
  29 C29           -2.5200     0.0976    -0.2349 C.2     
  30 C30           -3.4810    -0.9303    -0.1811 C.2     
  31 C31           -2.8238    -2.0914     0.0157 C.2     
  32 H32           -0.9475     2.0449    -0.5996 H       
  33 H33            1.8758     2.9963     1.8428 H       
  34 H34            4.2652     1.9093    -0.6320 H       
  35 H35            2.2289     4.8898     3.3742 H       
  36 H36            6.0095     5.6674     1.5562 H       
  37 H37            2.0047     4.0573    -0.6101 H       
  38 H38           -0.9159     2.4632    -2.4382 H       
  39 H39            6.6731     2.9655     0.1614 H       
  40 H40            5.4911     3.2331    -1.1423 H       
  41 H41            6.4948     4.5829    -0.5601 H       
  42 H42           -2.1013     5.2412    -2.9936 H       
  43 H43            0.6188     4.7085    -3.8215 H       
  44 H44            1.2639     3.1199    -3.3433 H       
  45 H45            0.0383     3.2324    -4.6292 H       
  46 H46           -0.7830    -2.4754     0.2250 H       
  47 H47           -3.0862     4.3145    -5.1397 H       
  48 H48           -2.0849     2.7791    -4.9360 H       
  49 H49           -3.2286     2.3275    -2.7174 H       
  50 H50           -4.2299     3.8629    -2.9211 H       
  51 H51           -2.7165     1.1496    -0.3795 H       
  52 H52           -4.5500    -0.8103    -0.2768 H       
  53 H53           -3.2772    -3.0678     0.1025 H       
@<TRIPOS>BOND
   1    1    2 1
   2    1    5 2
   3    1   32 1
   4    2    3 am
   5    2   17 1
   6    3   22 1
   7    3   16 2
   8    4    5 1
   9    4    8 1
  10    4   22 2
  11    5   13 1
  12    6    7 ar
  13    6    9 ar
  14    6   33 1
  15    7    8 1
  16    7   12 ar
  17    8   34 1
  18    9   10 ar
  19    9   35 1
  20   10   11 ar
  21   10   19 1
  22   11   12 ar
  23   11   36 1
  24   12   18 1
  25   13   14 am
  26   13   37 1
  27   14   15 1
  28   14   20 2
  29   14   21 2
  30   15   25 1
  31   15   24 1
  32   15   38 1
  33   17   26 1
  34   17   29 2
  35   18   39 1
  36   18   40 1
  37   18   41 1
  38   22   23 1
  39   24   27 1
  40   24   28 1
  41   24   42 1
  42   25   43 1
  43   25   44 1
  44   25   45 1
  45   26   31 1
  46   26   46 1
  47   27   28 1
  48   27   47 1
  49   27   48 1
  50   28   49 1
  51   28   50 1
  52   29   30 1
  53   29   51 1
  54   30   31 2
  55   30   52 1
  56   31   53 1

#	End of record

