#	Name: ASD01812887
#	Creating user name:	WinNT
#	Creation time:	15. 06. 2019 19:29

#	Modifying user name:	WinNT
#	Modification time:	15. 06. 2019 19:29

#	Program:	/corina/corina34_cracker 3.40 0067  02.08.2006

@<TRIPOS>MOLECULE
ASD01812887
  58   62    0    0    0
SMALL
NO_CHARGES


@<TRIPOS>ATOM
   1 N1             0.0027     1.3185    -0.2227 N.ar    
   2 C2             0.0319     0.0058    -0.3464 C.ar    
   3 C3             1.2340    -0.6843    -0.3684 C.ar    
   4 C4             2.4113     0.0205    -0.2593 C.ar    
   5 C5             2.3615     1.4132    -0.1292 C.ar    
   6 C6             1.1073     2.0395    -0.1146 C.ar    
   7 C7             3.8682    -0.3581    -0.2431 C.3     
   8 N8             4.6152     0.8975    -0.0975 N.am    
   9 C9             3.7395     1.9163    -0.0323 C.2     
  10 C10            6.0736     1.0204    -0.0334 C.3     
  11 C11            6.6246     1.1961    -1.4250 C.ar    
  12 O12            1.0259     3.3855     0.0100 O.3     
  13 O13            4.0443     3.0871     0.0894 O.2     
  14 C14            6.7715     2.4663    -1.9526 C.ar    
  15 C15            7.2756     2.6331    -3.2266 C.ar    
  16 C16            7.6372     1.5189    -3.9813 C.ar    
  17 C17            7.4875     0.2417    -3.4446 C.ar    
  18 C18            6.9869     0.0869    -2.1678 C.ar    
  19 C19           -0.2018     3.9615    -0.0802 C.ar    
  20 C20           -1.0066     4.0598     1.0495 C.ar    
  21 C21           -2.2542     4.6439     0.9606 C.ar    
  22 C22           -2.7060     5.1361    -0.2649 C.ar    
  23 C23           -1.8941     5.0355    -1.3958 C.ar    
  24 C24           -0.6470     4.4555    -1.2987 C.ar    
  25 F25           -0.5675     3.5828     2.2347 F       
  26 C26           -4.0409     5.7618    -0.3649 C.2     
  27 C27           -5.1149     5.1161    -1.2019 C.3     
  28 C28           -4.2938     6.8914     0.2819 C.2     
  29 C29            8.1793     1.6919    -5.3517 C.ar    
  30 C30            8.3378     2.9623    -5.9106 C.ar    
  31 N31            8.8222     3.0825    -7.1307 N.ar    
  32 N32            9.1594     2.0665    -7.8377 N.ar    
  33 C33            9.0468     0.8272    -7.3970 C.ar    
  34 C34            8.5547     0.5876    -6.1265 C.ar    
  35 C35            9.4595    -0.3257    -8.2754 C.3     
  36 H36           -0.8958    -0.5405    -0.4316 H       
  37 H37            1.2466    -1.7595    -0.4695 H       
  38 H38            4.0749    -1.0172     0.6001 H       
  39 H39            4.1384    -0.8487    -1.1782 H       
  40 H40            6.3390     1.8854     0.5744 H       
  41 H41            6.4948     0.1196     0.4131 H       
  42 H42            6.4909     3.3291    -1.3668 H       
  43 H43            7.3893     3.6252    -3.6378 H       
  44 H44            7.7662    -0.6252    -4.0253 H       
  45 H45            6.8739    -0.9023    -1.7494 H       
  46 H46           -2.8797     4.7197     1.8377 H       
  47 H47           -2.2409     5.4154    -2.3455 H       
  48 H48           -0.0172     4.3817    -2.1729 H       
  49 H49           -5.6874     4.4222    -0.5864 H       
  50 H50           -5.7793     5.8848    -1.5966 H       
  51 H51           -4.6549     4.5742    -2.0283 H       
  52 H52           -3.5242     7.3541     0.8818 H       
  53 H53           -5.2695     7.3487     0.2088 H       
  54 H54            8.0646     3.8416    -5.3461 H       
  55 H55            8.4596    -0.4187    -5.7460 H       
  56 H56           10.5115    -0.5542    -8.1046 H       
  57 H57            8.8543    -1.2000    -8.0357 H       
  58 H58            9.3113    -0.0568    -9.3213 H       
@<TRIPOS>BOND
   1    1    2 ar
   2    1    6 ar
   3    2    3 ar
   4    2   36 1
   5    3    4 ar
   6    3   37 1
   7    4    7 1
   8    4    5 ar
   9    5    6 ar
  10    5    9 1
  11    6   12 1
  12    7    8 1
  13    7   38 1
  14    7   39 1
  15    8    9 am
  16    8   10 1
  17    9   13 2
  18   10   11 1
  19   10   40 1
  20   10   41 1
  21   11   14 ar
  22   11   18 ar
  23   12   19 1
  24   14   15 ar
  25   14   42 1
  26   15   16 ar
  27   15   43 1
  28   16   17 ar
  29   16   29 1
  30   17   18 ar
  31   17   44 1
  32   18   45 1
  33   19   20 ar
  34   19   24 ar
  35   20   21 ar
  36   20   25 1
  37   21   22 ar
  38   21   46 1
  39   22   23 ar
  40   22   26 1
  41   23   24 ar
  42   23   47 1
  43   24   48 1
  44   26   27 1
  45   26   28 2
  46   27   49 1
  47   27   50 1
  48   27   51 1
  49   28   52 1
  50   28   53 1
  51   29   30 ar
  52   29   34 ar
  53   30   31 ar
  54   30   54 1
  55   31   32 ar
  56   32   33 ar
  57   33   34 ar
  58   33   35 1
  59   34   55 1
  60   35   56 1
  61   35   57 1
  62   35   58 1

#	End of record

