#	Name: ASD05173004
#	Creating user name:	WinNT
#	Creation time:	15. 06. 2019 20:57

#	Modifying user name:	WinNT
#	Modification time:	15. 06. 2019 20:57

#	Program:	/corina/corina34_cracker 3.40 0067  02.08.2006

@<TRIPOS>MOLECULE
ASD05173004
  30   32    0    0    0
SMALL
NO_CHARGES


@<TRIPOS>ATOM
   1 C1            -0.0167     1.3812     0.0096 C.ar    
   2 C2             0.0021    -0.0041     0.0020 C.ar    
   3 C3            -1.1795    -0.7080     0.0056 C.ar    
   4 C4            -2.4136    -0.0349     0.0171 C.ar    
   5 C5            -2.4288     1.3598     0.0317 C.ar    
   6 C6            -1.2194     2.0561     0.0305 C.ar    
   7 N7            -3.5320    -0.8039     0.0079 N.2     
   8 C8            -4.5937    -0.6038     0.6978 C.2     
   9 C9            -4.7326     0.5799     1.6182 C.3     
  10 C10           -4.6742     1.8337     0.7826 C.2     
  11 N11           -3.5914     2.1175     0.0575 N.am    
  12 O12           -5.6211     2.5915     0.7697 O.2     
  13 C13           -5.7106    -1.5592     0.5866 C.ar    
  14 C14           -6.8890    -1.3779     1.3231 C.ar    
  15 C15           -7.9142    -2.2959     1.1917 C.ar    
  16 N16           -7.7994    -3.3323     0.3888 N.ar    
  17 C17           -6.7032    -3.5480    -0.3301 C.ar    
  18 C18           -5.6252    -2.6698    -0.2622 C.ar    
  19 Br19           1.6085     2.3478    -0.0007 Br      
  20 C20           -6.6321    -4.6924    -1.1880 C.1     
  21 N21           -6.5757    -5.6002    -1.8686 N.1     
  22 H22            0.9446    -0.5312    -0.0071 H       
  23 H23           -1.1590    -1.7878    -0.0008 H       
  24 H24           -1.2254     3.1361     0.0374 H       
  25 H25           -5.6880     0.5299     2.1404 H       
  26 H26           -3.9170     0.5814     2.3414 H       
  27 H27           -3.6186     2.9145    -0.4948 H       
  28 H28           -6.9947    -0.5314     1.9855 H       
  29 H29           -8.8241    -2.1606     1.7575 H       
  30 H30           -4.7351    -2.8466    -0.8477 H       
@<TRIPOS>BOND
   1    1    2 ar
   2    1   19 1
   3    1    6 ar
   4    2    3 ar
   5    2   22 1
   6    3    4 ar
   7    3   23 1
   8    4    5 ar
   9    4    7 1
  10    5    6 ar
  11    5   11 1
  12    6   24 1
  13    7    8 2
  14    8    9 1
  15    8   13 1
  16    9   10 1
  17    9   25 1
  18    9   26 1
  19   10   11 am
  20   10   12 2
  21   11   27 1
  22   13   14 ar
  23   13   18 ar
  24   14   15 ar
  25   14   28 1
  26   15   16 ar
  27   15   29 1
  28   16   17 ar
  29   17   18 ar
  30   17   20 1
  31   18   30 1
  32   20   21 3

#	End of record

