#	Name: ASD01411603
#	Creating user name:	WinNT
#	Creation time:	15. 06. 2019 19:19

#	Modifying user name:	WinNT
#	Modification time:	15. 06. 2019 19:19

#	Program:	/corina/corina34_cracker 3.40 0067  02.08.2006

@<TRIPOS>MOLECULE
ASD01411603
  65   67    0    0    0
SMALL
NO_CHARGES


@<TRIPOS>ATOM
   1 N1            -2.4119     2.8825     0.6283 N.am    
   2 C2            -3.1900    -0.4982     1.7611 C.3     
   3 C3            -2.8429     0.9629     2.1242 C.3     
   4 C4            -2.0700     1.4826     0.8918 C.3     
   5 O5            -2.5085     0.6440    -0.1993 O.3     
   6 C6            -2.5856    -0.6886     0.3522 C.3     
   7 C7            -3.4988    -1.5676    -0.5048 C.3     
   8 O8            -4.6066    -0.6829     1.7274 O.3     
   9 O9            -2.9017    -1.7661    -1.7878 O.3     
  10 F10           -2.0334     1.0057     3.2644 F       
  11 C11           -4.1188     1.7784     2.3434 C.3     
  12 P12           -3.5896    -2.6444    -2.9486 P.3     
  13 O13           -2.4991    -2.9813    -4.0842 O.3     
  14 O14           -4.1072    -3.9054    -2.3721 O.2     
  15 N15           -4.8599    -1.7764    -3.6307 N.3     
  16 C16           -4.3657    -0.5858    -4.3352 C.3     
  17 C17           -5.0791     0.6365    -3.8176 C.2     
  18 C18           -1.4594    -3.7382    -3.6449 C.ar    
  19 C19           -1.4927    -5.1172    -3.7924 C.ar    
  20 C20           -0.3603    -3.1326    -3.0533 C.ar    
  21 C21            0.6955    -3.9042    -2.6079 C.ar    
  22 C22            0.6577    -5.2788    -2.7518 C.ar    
  23 C23           -0.4344    -5.8843    -3.3454 C.ar    
  24 C24           -4.6303    -0.7340    -5.8348 C.3     
  25 O25           -4.7874     1.8468    -4.3195 O.3     
  26 C26           -5.5137     2.9793    -3.7736 C.3     
  27 C27           -4.6352     4.2301    -3.8431 C.3     
  28 C28           -6.7899     3.2066    -4.5864 C.3     
  29 O29           -5.9137     0.5271    -2.9507 O.2     
  30 C30           -1.8326     3.8576     1.3520 C.2     
  31 N31           -2.1284     5.1519     1.1311 N.am    
  32 C32           -3.0153     5.4926     0.1744 C.2     
  33 C33           -3.6319     4.4765    -0.5948 C.2     
  34 C34           -3.3133     3.1865    -0.3553 C.2     
  35 O35           -3.2838     6.6634    -0.0259 O.2     
  36 O36           -1.0309     3.5653     2.2182 O.2     
  37 H37           -2.7328    -1.1872     2.4713 H       
  38 H38           -0.9960     1.3775     1.0454 H       
  39 H39           -1.5908    -1.1284     0.4223 H       
  40 H40           -3.6382    -2.5318    -0.0158 H       
  41 H41           -4.4653    -1.0783    -0.6255 H       
  42 H42           -4.8807    -1.5830     1.5042 H       
  43 H43           -4.7261     1.3029     3.1137 H       
  44 H44           -3.8552     2.7875     2.6601 H       
  45 H45           -4.6842     1.8256     1.4127 H       
  46 H46           -5.4070    -2.3595    -4.2461 H       
  47 H47           -3.2943    -0.4810    -4.1640 H       
  48 H48           -2.3456    -5.5907    -4.2560 H       
  49 H49           -0.3300    -2.0589    -2.9413 H       
  50 H50            1.5513    -3.4332    -2.1473 H       
  51 H51            1.4843    -5.8802    -2.4034 H       
  52 H52           -0.4617    -6.9583    -3.4564 H       
  53 H53           -4.1863     0.1072    -6.3670 H       
  54 H54           -4.1879    -1.6641    -6.1917 H       
  55 H55           -5.7054    -0.7508    -6.0141 H       
  56 H56           -5.7757     2.7766    -2.7351 H       
  57 H57           -4.3733     4.4328    -4.8816 H       
  58 H58           -5.1805     5.0803    -3.4333 H       
  59 H59           -3.7261     4.0682    -3.2640 H       
  60 H60           -7.4157     2.3156    -4.5368 H       
  61 H61           -7.3351     4.0568    -4.1766 H       
  62 H62           -6.5279     3.4093    -5.6249 H       
  63 H63           -1.7020     5.8424     1.6625 H       
  64 H64           -4.3448     4.7301    -1.3655 H       
  65 H65           -3.7735     2.3978    -0.9321 H       
@<TRIPOS>BOND
   1    1    4 1
   2    1   30 am
   3    1   34 1
   4    2    3 1
   5    2    8 1
   6    2    6 1
   7    2   37 1
   8    3   10 1
   9    3   11 1
  10    3    4 1
  11    4    5 1
  12    4   38 1
  13    5    6 1
  14    6    7 1
  15    6   39 1
  16    7    9 1
  17    7   40 1
  18    7   41 1
  19    8   42 1
  20    9   12 1
  21   11   43 1
  22   11   44 1
  23   11   45 1
  24   12   13 1
  25   12   14 2
  26   12   15 1
  27   13   18 1
  28   15   16 1
  29   15   46 1
  30   16   17 1
  31   16   24 1
  32   16   47 1
  33   17   25 1
  34   17   29 2
  35   18   19 ar
  36   18   20 ar
  37   19   23 ar
  38   19   48 1
  39   20   21 ar
  40   20   49 1
  41   21   22 ar
  42   21   50 1
  43   22   23 ar
  44   22   51 1
  45   23   52 1
  46   24   53 1
  47   24   54 1
  48   24   55 1
  49   25   26 1
  50   26   27 1
  51   26   28 1
  52   26   56 1
  53   27   57 1
  54   27   58 1
  55   27   59 1
  56   28   60 1
  57   28   61 1
  58   28   62 1
  59   30   31 am
  60   30   36 2
  61   31   32 am
  62   31   63 1
  63   32   33 1
  64   32   35 2
  65   33   34 2
  66   33   64 1
  67   34   65 1

#	End of record

