#	Name: ASD05430022
#	Creating user name:	WinNT
#	Creation time:	15. 06. 2019 20:59

#	Modifying user name:	WinNT
#	Modification time:	15. 06. 2019 20:59

#	Program:	/corina/corina34_cracker 3.40 0067  02.08.2006

@<TRIPOS>MOLECULE
ASD05430022
  62   67    0    0    0
SMALL
NO_CHARGES


@<TRIPOS>ATOM
   1 C1             0.0553     1.1854     0.3898 C.ar    
   2 C2             0.0200    -0.0134    -0.3217 C.ar    
   3 C3             1.1705    -0.4971    -0.9314 C.ar    
   4 C4             2.3522     0.2050    -0.8356 C.ar    
   5 C5             2.3950     1.4081    -0.1237 C.ar    
   6 C6             1.2369     1.8952     0.4896 C.ar    
   7 C7             4.8636    -0.0031     0.2167 C.3     
   8 C8             4.8270     1.5012     0.0670 C.2     
   9 C9             3.6566     2.1597    -0.0203 C.2     
  10 C10            6.2025    -0.4410     0.8000 C.3     
  11 C11            6.8770     0.5984     1.6922 C.3     
  12 N12            7.0946     1.8209     0.9183 N.pl3   
  13 C13            6.1094     2.2254     0.0199 C.2     
  14 N14           -1.1789    -0.7321    -0.4215 N.pl3   
  15 C15           -2.0017    -1.0763     0.6030 C.2     
  16 C16           -1.7460    -1.2155    -1.5722 C.2     
  17 C17           -2.8845    -1.8391    -1.2140 C.2     
  18 N18           -3.0159    -1.7390     0.1171 N.2     
  19 C19           -3.8471    -2.5265    -2.1477 C.3     
  20 C20           -0.9652     2.8926     1.6931 C.3     
  21 O21           -1.0740     1.6587     0.9805 O.3     
  22 C22            6.1659    -1.8452     1.4249 C.3     
  23 C23            7.5098    -2.0737     0.7066 C.3     
  24 O24            7.0906    -1.0127    -0.1762 O.3     
  25 C25            8.2995     2.6354     1.0693 C.3     
  26 C26            8.6844     3.1888    -0.3071 C.3     
  27 O27            7.5693     3.8493    -0.8967 O.3     
  28 N28            6.3302     3.1825    -0.8209 N.2     
  29 C29            8.0262     3.7754     2.0163 C.ar    
  30 C30            8.9856     4.1537     2.9370 C.ar    
  31 C31            8.7362     5.1992     3.8056 C.ar    
  32 C32            7.5249     5.8679     3.7536 C.ar    
  33 C33            6.5648     5.4881     2.8311 C.ar    
  34 C34            6.8184     4.4457     1.9599 C.ar    
  35 F35            7.2799     6.8899     4.6026 F       
  36 H36            1.1389    -1.4260    -1.4814 H       
  37 H37            3.2454    -0.1738    -1.3101 H       
  38 H38            1.2656     2.8240     1.0400 H       
  39 H39            4.0594    -0.3196     0.8809 H       
  40 H40            4.7261    -0.4667    -0.7601 H       
  41 H41            3.6429     3.2396    -0.0145 H       
  42 H42            6.2362     0.8167     2.5465 H       
  43 H43            7.8346     0.2127     2.0419 H       
  44 H44           -1.8431    -0.8413     1.6452 H       
  45 H45           -1.3550    -1.1149    -2.5739 H       
  46 H46           -3.5612    -3.5725    -2.2588 H       
  47 H47           -4.8556    -2.4670    -1.7383 H       
  48 H48           -3.8208    -2.0373    -3.1214 H       
  49 H49           -0.2372     2.7848     2.4971 H       
  50 H50           -0.6398     3.6784     1.0113 H       
  51 H51           -1.9354     3.1557     2.1143 H       
  52 H52            6.2420    -1.8455     2.5122 H       
  53 H53            5.3555    -2.4720     1.0527 H       
  54 H54            8.3813    -1.8248     1.3122 H       
  55 H55            7.5901    -3.0459     0.2203 H       
  56 H56            9.1116     2.0211     1.4582 H       
  57 H57            9.5062     3.8962    -0.1955 H       
  58 H58            9.0008     2.3683    -0.9511 H       
  59 H59            9.9302     3.6317     2.9776 H       
  60 H60            9.4857     5.4944     4.5250 H       
  61 H61            5.6196     6.0090     2.7896 H       
  62 H62            6.0697     4.1493     1.2403 H       
@<TRIPOS>BOND
   1    1    2 ar
   2    1    6 ar
   3    1   21 1
   4    2    3 ar
   5    2   14 1
   6    3    4 ar
   7    3   36 1
   8    4    5 ar
   9    4   37 1
  10    5    6 ar
  11    5    9 1
  12    6   38 1
  13    7    8 1
  14    7   10 1
  15    7   39 1
  16    7   40 1
  17    8    9 2
  18    8   13 1
  19    9   41 1
  20   10   11 1
  21   10   22 1
  22   10   24 1
  23   11   12 1
  24   11   42 1
  25   11   43 1
  26   12   13 1
  27   12   25 1
  28   13   28 2
  29   14   15 1
  30   14   16 1
  31   15   18 2
  32   15   44 1
  33   16   17 2
  34   16   45 1
  35   17   18 1
  36   17   19 1
  37   19   46 1
  38   19   47 1
  39   19   48 1
  40   20   21 1
  41   20   49 1
  42   20   50 1
  43   20   51 1
  44   22   23 1
  45   22   52 1
  46   22   53 1
  47   23   24 1
  48   23   54 1
  49   23   55 1
  50   25   26 1
  51   25   29 1
  52   25   56 1
  53   26   27 1
  54   26   57 1
  55   26   58 1
  56   27   28 1
  57   29   30 ar
  58   29   34 ar
  59   30   31 ar
  60   30   59 1
  61   31   32 ar
  62   31   60 1
  63   32   33 ar
  64   32   35 1
  65   33   34 ar
  66   33   61 1
  67   34   62 1

#	End of record

