#	Name: ASD01870074
#	Creating user name:	WinNT
#	Creation time:	15. 06. 2019 19:38

#	Modifying user name:	WinNT
#	Modification time:	15. 06. 2019 19:38

#	Program:	/corina/corina34_cracker 3.40 0067  02.08.2006

@<TRIPOS>MOLECULE
ASD01870074
  38   39    0    0    0
SMALL
NO_CHARGES


@<TRIPOS>ATOM
   1 C1            -1.1135     1.2051     0.3818 C.3     
   2 C2            -1.0009    -0.3200     0.4267 C.3     
   3 O3            -0.0347    -0.7044     1.4401 O.3     
   4 C4             0.1834    -2.0219     1.6080 C.2     
   5 N5             1.0679    -2.4461     2.5321 N.am    
   6 C6             1.2863    -3.7654     2.7002 C.2     
   7 C7             2.2753    -4.2398     3.7336 C.3     
   8 C8             1.8434    -3.7656     5.0973 C.ar    
   9 C9             2.3325    -5.7456     3.7202 C.ar    
  10 O10            0.6871    -4.5705     2.0202 O.2     
  11 O11           -0.4170    -2.8285     0.9267 O.2     
  12 C12            1.1695    -6.4826     3.8440 C.ar    
  13 C13            1.2219    -7.8639     3.8318 C.ar    
  14 C14            2.4372    -8.5082     3.6952 C.ar    
  15 C15            3.6001    -7.7713     3.5705 C.ar    
  16 C16            3.5472    -6.3900     3.5784 C.ar    
  17 C17            2.7410    -3.1061     5.9160 C.ar    
  18 C18            2.3448    -2.6712     7.1669 C.ar    
  19 C19            1.0510    -2.8953     7.5989 C.ar    
  20 C20            0.1532    -3.5540     6.7798 C.ar    
  21 C21            0.5481    -3.9851     5.5272 C.ar    
  22 H22           -0.1415     1.6342     0.1384 H       
  23 H23           -1.8389     1.4937    -0.3789 H       
  24 H24           -1.4404     1.5741     1.3540 H       
  25 H25           -1.9729    -0.7491     0.6702 H       
  26 H26           -0.6741    -0.6890    -0.5454 H       
  27 H27            1.5474    -1.8020     3.0763 H       
  28 H28            3.2618    -3.8367     3.5043 H       
  29 H29            0.2200    -5.9791     3.9507 H       
  30 H30            0.3134    -8.4396     3.9293 H       
  31 H31            2.4783    -9.5874     3.6864 H       
  32 H32            4.5497    -8.2748     3.4641 H       
  33 H33            4.4557    -5.8142     3.4809 H       
  34 H34            3.7519    -2.9310     5.5785 H       
  35 H35            3.0463    -2.1565     7.8069 H       
  36 H36            0.7417    -2.5561     8.5765 H       
  37 H37           -0.8576    -3.7294     7.1174 H       
  38 H38           -0.1533    -4.4997     4.8872 H       
@<TRIPOS>BOND
   1    1    2 1
   2    1   22 1
   3    1   23 1
   4    1   24 1
   5    2    3 1
   6    2   25 1
   7    2   26 1
   8    3    4 1
   9    4    5 am
  10    4   11 2
  11    5    6 am
  12    5   27 1
  13    6    7 1
  14    6   10 2
  15    7    8 1
  16    7    9 1
  17    7   28 1
  18    8   17 ar
  19    8   21 ar
  20    9   12 ar
  21    9   16 ar
  22   12   13 ar
  23   12   29 1
  24   13   14 ar
  25   13   30 1
  26   14   15 ar
  27   14   31 1
  28   15   16 ar
  29   15   32 1
  30   16   33 1
  31   17   18 ar
  32   17   34 1
  33   18   19 ar
  34   18   35 1
  35   19   20 ar
  36   19   36 1
  37   20   21 ar
  38   20   37 1
  39   21   38 1

#	End of record

