#	Name: ASD01812717
#	Creating user name:	WinNT
#	Creation time:	15. 06. 2019 19:29

#	Modifying user name:	WinNT
#	Modification time:	15. 06. 2019 19:29

#	Program:	/corina/corina34_cracker 3.40 0067  02.08.2006

@<TRIPOS>MOLECULE
ASD01812717
  53   57    0    0    0
SMALL
NO_CHARGES


@<TRIPOS>ATOM
   1 C1            -0.0167     1.3764     0.0227 C.ar    
   2 C2             0.0019    -0.0040     0.0170 C.ar    
   3 C3             1.2084    -0.6873    -0.0072 C.ar    
   4 C4             2.3936     0.0073    -0.0260 C.ar    
   5 C5             2.3937     1.4056    -0.0210 C.ar    
   6 C6             1.1718     2.0915     0.0039 C.ar    
   7 C7             3.8406    -0.4179    -0.0540 C.3     
   8 N8             4.6307     0.8186    -0.0641 N.am    
   9 C9             3.7911     1.8681    -0.0449 C.2     
  10 C10            6.0934     0.8964    -0.0901 C.3     
  11 C11            6.5693     0.9279    -1.5196 C.ar    
  12 C12            6.7237     2.1390    -2.1689 C.ar    
  13 C13            7.1598     2.1711    -3.4791 C.ar    
  14 C14            7.4432     0.9857    -4.1441 C.ar    
  15 C15            7.2872    -0.2287    -3.4895 C.ar    
  16 C16            6.8562    -0.2540    -2.1775 C.ar    
  17 O17            1.1515     3.4479     0.0091 O.3     
  18 O18            4.1366     3.0339    -0.0467 O.2     
  19 C19           -0.1276     4.0779    -0.0868 C.3     
  20 N20            8.0858     2.1632    -6.2512 N.2     
  21 N21            7.8855     1.0150    -5.4740 N.pl3   
  22 C22            8.1951    -0.0600    -6.2336 C.2     
  23 C23            8.5783     0.3920    -7.4501 C.2     
  24 C24            8.5008     1.7890    -7.4346 C.2     
  25 C25            0.0363     5.4818    -0.6771 C.3     
  26 C26           -1.3291     6.1756    -0.7025 C.3     
  27 C27           -1.9043     6.2052     0.7159 C.3     
  28 O28           -2.0017     4.8705     1.2170 O.3     
  29 C29           -0.7492     4.1885     1.3079 C.3     
  30 O30            0.5478     5.3841    -2.0078 O.3     
  31 H31           -0.9603     1.9016     0.0374 H       
  32 H32           -0.9274    -0.5542     0.0317 H       
  33 H33            1.2164    -1.7672    -0.0109 H       
  34 H34            4.0757    -1.0056     0.8333 H       
  35 H35            4.0430    -0.9992    -0.9536 H       
  36 H36            6.4182     1.8027     0.4210 H       
  37 H37            6.5126     0.0252     0.4133 H       
  38 H38            6.5027     3.0607    -1.6512 H       
  39 H39            7.2798     3.1172    -3.9858 H       
  40 H40            7.5066    -1.1524    -4.0044 H       
  41 H41            6.7393    -1.1981    -1.6663 H       
  42 H42           -0.7780     3.4857    -0.7305 H       
  43 H43            8.1457    -1.0938    -5.9248 H       
  44 H44            8.8895    -0.2178    -8.2854 H       
  45 H45            8.7419     2.4455    -8.2576 H       
  46 H46            0.7266     6.0581    -0.0611 H       
  47 H47           -1.2128     7.1952    -1.0698 H       
  48 H48           -2.0047     5.6261    -1.3582 H       
  49 H49           -1.2486     6.7891     1.3619 H       
  50 H50           -2.8949     6.6596     0.6970 H       
  51 H51           -0.9076     3.1901     1.7155 H       
  52 H52           -0.0784     4.7460     1.9617 H       
  53 H53            0.6766     6.2379    -2.4433 H       
@<TRIPOS>BOND
   1    1    2 ar
   2    1    6 ar
   3    1   31 1
   4    2    3 ar
   5    2   32 1
   6    3    4 ar
   7    3   33 1
   8    4    7 1
   9    4    5 ar
  10    5    6 ar
  11    5    9 1
  12    6   17 1
  13    7    8 1
  14    7   34 1
  15    7   35 1
  16    8    9 am
  17    8   10 1
  18    9   18 2
  19   10   11 1
  20   10   36 1
  21   10   37 1
  22   11   12 ar
  23   11   16 ar
  24   12   13 ar
  25   12   38 1
  26   13   14 ar
  27   13   39 1
  28   14   15 ar
  29   14   21 1
  30   15   16 ar
  31   15   40 1
  32   16   41 1
  33   17   19 1
  34   19   25 1
  35   19   29 1
  36   19   42 1
  37   20   21 1
  38   20   24 2
  39   21   22 1
  40   22   23 2
  41   22   43 1
  42   23   24 1
  43   23   44 1
  44   24   45 1
  45   25   26 1
  46   25   30 1
  47   25   46 1
  48   26   27 1
  49   26   47 1
  50   26   48 1
  51   27   28 1
  52   27   49 1
  53   27   50 1
  54   28   29 1
  55   29   51 1
  56   29   52 1
  57   30   53 1

#	End of record

