#	Name: ASD01885586
#	Creating user name:	WinNT
#	Creation time:	15. 06. 2019 19:49

#	Modifying user name:	WinNT
#	Modification time:	15. 06. 2019 19:49

#	Program:	/corina/corina34_cracker 3.40 0067  02.08.2006

@<TRIPOS>MOLECULE
ASD01885586
  50   54    0    0    0
SMALL
NO_CHARGES


@<TRIPOS>ATOM
   1 C1            -0.4068     1.4928    -1.4416 C.ar    
   2 C2            -0.4376     0.1114    -1.6305 C.ar    
   3 C3            -1.4922    -0.6281    -1.1372 C.ar    
   4 C4            -2.5233     0.0005    -0.4533 C.ar    
   5 C5            -2.4967     1.3781    -0.2625 C.ar    
   6 C6            -1.4410     2.1225    -0.7484 C.ar    
   7 C7             0.7248     2.2892    -1.9706 C.2     
   8 C8             2.0324     2.1006    -1.4603 C.2     
   9 C9             3.0593     2.8248    -1.9426 C.2     
  10 N10            2.8619     3.7504    -2.9271 N.pl3   
  11 C11            1.6094     3.9644    -3.4497 C.2     
  12 C12            0.5159     3.2203    -2.9720 C.2     
  13 C13            3.6911     4.6043    -3.5883 C.2     
  14 N14            2.9645     5.2753    -4.4445 N.2     
  15 N15            1.7341     4.9063    -4.3720 N.2     
  16 C16            5.1754     4.7500    -3.3728 C.3     
  17 C17            5.9221     3.7882    -4.2994 C.3     
  18 Cl18          -1.0744     3.4762    -3.6196 Cl      
  19 O19           -3.5611    -0.7313     0.0306 O.3     
  20 C20           -3.4955    -2.0822    -0.0821 C.ar    
  21 C21           -2.8988    -2.8537     0.9121 C.ar    
  22 C22           -2.8525    -4.2245     0.7604 C.ar    
  23 N23           -3.3638    -4.8040    -0.3091 N.ar    
  24 C24           -3.9372    -4.1073    -1.2723 C.ar    
  25 C25           -4.0285    -2.7331    -1.1926 C.ar    
  26 C26           -4.5044    -4.8223    -2.4715 C.3     
  27 F27           -3.5021     1.9869     0.4038 F       
  28 C28            7.4499     3.8668    -4.3163 C.3     
  29 C29            6.7523     2.6808    -3.6474 C.3     
  30 C30           -3.4185    -5.6930    -3.1068 C.3     
  31 H31            0.3637    -0.3791    -2.1632 H       
  32 H32           -1.5158    -1.6979    -1.2836 H       
  33 H33           -1.4202     3.1921    -0.6004 H       
  34 H34            2.2061     1.3733    -0.6811 H       
  35 H35            4.0521     2.6723    -1.5457 H       
  36 H36            5.4759     5.7742    -3.5939 H       
  37 H37            5.4167     4.5163    -2.3359 H       
  38 H38            5.4197     3.5547    -5.2381 H       
  39 H39           -2.4779    -2.3856     1.7896 H       
  40 H40           -2.3917    -4.8305     1.5264 H       
  41 H41           -4.4989    -2.1689    -1.9843 H       
  42 H42           -5.3378    -5.4514    -2.1587 H       
  43 H43           -4.8549    -4.0902    -3.1989 H       
  44 H44            7.9528     3.6846    -5.2661 H       
  45 H45            7.9232     4.6037    -3.6674 H       
  46 H46            6.7666     2.6373    -2.5584 H       
  47 H47            6.7962     1.7183    -4.1571 H       
  48 H48           -2.5852    -5.0640    -3.4196 H       
  49 H49           -3.0681    -6.4252    -2.3794 H       
  50 H50           -3.8288    -6.2103    -3.9741 H       
@<TRIPOS>BOND
   1    1    2 ar
   2    1    7 1
   3    1    6 ar
   4    2    3 ar
   5    2   31 1
   6    3    4 ar
   7    3   32 1
   8    4    5 ar
   9    4   19 1
  10    5    6 ar
  11    5   27 1
  12    6   33 1
  13    7    8 1
  14    7   12 2
  15    8    9 2
  16    8   34 1
  17    9   10 1
  18    9   35 1
  19   10   11 1
  20   10   13 1
  21   11   12 1
  22   11   15 2
  23   12   18 1
  24   13   14 2
  25   13   16 1
  26   14   15 1
  27   16   17 1
  28   16   36 1
  29   16   37 1
  30   17   28 1
  31   17   29 1
  32   17   38 1
  33   19   20 1
  34   20   21 ar
  35   20   25 ar
  36   21   22 ar
  37   21   39 1
  38   22   23 ar
  39   22   40 1
  40   23   24 ar
  41   24   25 ar
  42   24   26 1
  43   25   41 1
  44   26   30 1
  45   26   42 1
  46   26   43 1
  47   28   29 1
  48   28   44 1
  49   28   45 1
  50   29   46 1
  51   29   47 1
  52   30   48 1
  53   30   49 1
  54   30   50 1

#	End of record

