#	Name: ASD00170063
#	Creating user name:	WinNT
#	Creation time:	15. 06. 2019 18:31

#	Modifying user name:	WinNT
#	Modification time:	15. 06. 2019 18:31

#	Program:	/corina/corina34_cracker 3.40 0067  02.08.2006

@<TRIPOS>MOLECULE
ASD00170063
  35   37    0    0    0
SMALL
NO_CHARGES


@<TRIPOS>ATOM
   1 C1             0.0144     1.3185    -0.0552 C.2     
   2 C2             0.0204    -0.0181    -0.0734 C.2     
   3 C3            -1.3168    -0.5800     0.0133 C.2     
   4 C4            -2.2999     0.3732     0.0955 C.2     
   5 S5            -1.6253     1.9358     0.0615 S.3     
   6 N6            -3.6501     0.1027     0.1864 N.pl3   
   7 C7            -1.5875    -2.0172     0.0121 C.2     
   8 C8            -1.8380    -2.7216    -1.2644 C.ar    
   9 O9            -1.6066    -2.6340     1.0618 O.2     
  10 C10           -1.9792    -4.1101    -1.2828 C.ar    
  11 C11           -2.2132    -4.7609    -2.4764 C.ar    
  12 C12           -2.3081    -4.0402    -3.6538 C.ar    
  13 C13           -2.1691    -2.6636    -3.6425 C.ar    
  14 C14           -1.9401    -2.0001    -2.4548 C.ar    
  15 C15            1.2607     2.1799    -0.1318 C.3     
  16 C16            2.4803     1.3110     0.1871 C.3     
  17 C17            2.4273     0.0424    -0.6694 C.3     
  18 C18            1.2884    -0.8512    -0.1730 C.3     
  19 N19           -2.5588    -4.7450    -4.9310 N.pl3   
  20 O20           -2.6811    -5.9568    -4.9440 O.2     
  21 O21           -2.6428    -4.1132    -5.9689 O.2     
  22 H22           -3.9671    -0.8116     0.1198 H       
  23 H23           -4.2821     0.8268     0.3168 H       
  24 H24           -1.9050    -4.6738    -0.3645 H       
  25 H25           -2.3222    -5.8352    -2.4921 H       
  26 H26           -2.2439    -2.1069    -4.5649 H       
  27 H27           -1.8322    -0.9255    -2.4473 H       
  28 H28            1.3585     2.5925    -1.1359 H       
  29 H29            1.1898     2.9905     0.5934 H       
  30 H30            3.3916     1.8651    -0.0379 H       
  31 H31            2.4684     1.0392     1.2426 H       
  32 H32            2.2512     0.3128    -1.7105 H       
  33 H33            3.3731    -0.4931    -0.5862 H       
  34 H34            1.5402    -1.2527     0.8085 H       
  35 H35            1.1332    -1.6697    -0.8760 H       
@<TRIPOS>BOND
   1    1    2 2
   2    1   15 1
   3    1    5 1
   4    2    3 1
   5    2   18 1
   6    3    4 2
   7    3    7 1
   8    4    5 1
   9    4    6 1
  10    6   22 1
  11    6   23 1
  12    7    8 1
  13    7    9 2
  14    8   10 ar
  15    8   14 ar
  16   10   11 ar
  17   10   24 1
  18   11   12 ar
  19   11   25 1
  20   12   13 ar
  21   12   19 1
  22   13   14 ar
  23   13   26 1
  24   14   27 1
  25   15   16 1
  26   15   28 1
  27   15   29 1
  28   16   17 1
  29   16   30 1
  30   16   31 1
  31   17   18 1
  32   17   32 1
  33   17   33 1
  34   18   34 1
  35   18   35 1
  36   19   20 2
  37   19   21 2

#	End of record

