#	Name: ASD03570038
#	Creating user name:	WinNT
#	Creation time:	15. 06. 2019 20:43

#	Modifying user name:	WinNT
#	Modification time:	15. 06. 2019 20:43

#	Program:	/corina/corina34_cracker 3.40 0067  02.08.2006

@<TRIPOS>MOLECULE
ASD03570038
  76   80    0    0    0
SMALL
NO_CHARGES


@<TRIPOS>ATOM
   1 C1             1.3921     2.8137    -1.4869 C.ar    
   2 C2             0.9568     1.5495    -1.1351 C.ar    
   3 C3             1.8154     0.6714    -0.4995 C.ar    
   4 C4             3.1111     1.0594    -0.2152 C.ar    
   5 C5             2.7040     3.2121    -1.2018 C.ar    
   6 N6             3.3388     4.4297    -1.4698 N.pl3   
   7 C7             3.5535     2.3224    -0.5635 C.ar    
   8 C8             4.8908     2.9943    -0.3748 C.3     
   9 C9             4.7228     4.3907    -0.9862 C.3     
  10 C10            5.2274     3.1040     1.1103 C.3     
  11 C11            6.5993     3.7648     1.2708 C.3     
  12 N12            7.6110     2.9695     0.5631 N.3     
  13 C13            7.3323     2.9119    -0.8775 C.3     
  14 C14            5.9844     2.2234    -1.1096 C.3     
  15 C15            2.7415     5.5233    -2.1058 C.ar    
  16 C16            2.8047     5.6454    -3.4942 C.ar    
  17 C17            2.2108     6.7314    -4.1181 C.ar    
  18 C18            1.5584     7.6901    -3.3647 C.ar    
  19 C19            1.4960     7.5696    -1.9889 C.ar    
  20 C20            2.0797     6.4863    -1.3586 C.ar    
  21 C21            8.9614     3.4888     0.8177 C.3     
  22 C22            9.5155     2.8624     2.0989 C.3     
  23 C23            9.4616     1.3375     1.9857 C.3     
  24 C24           10.9655     3.3080     2.2987 C.3     
  25 C25            8.6736     3.3152     3.2935 C.3     
  26 N26            3.4673     4.6731    -4.2559 N.am    
  27 C27            3.0758     4.4265    -5.5217 C.2     
  28 N28            3.7822     3.5755    -6.2920 N.am    
  29 O29            2.0851     4.9718    -5.9689 O.2     
  30 C30            3.4338     3.3941    -7.6372 C.ar    
  31 C31            4.4249     3.2243    -8.5945 C.ar    
  32 C32            2.0972     3.3784    -8.0123 C.ar    
  33 C33            1.7545     3.1996    -9.3381 C.ar    
  34 C34            2.7454     3.0352   -10.2948 C.ar    
  35 C35            4.0809     3.0456    -9.9199 C.ar    
  36 O36            2.4073     2.8588   -11.6000 O.3     
  37 C37            3.4788     2.6958   -12.5314 C.3     
  38 O38            0.5451     3.6712    -2.1169 O.3     
  39 F39            4.2963     3.8307   -12.5050 F       
  40 F40            4.2324     1.5699   -12.1828 F       
  41 H41           -0.0560     1.2472    -1.3569 H       
  42 H42            1.4739    -0.3159    -0.2254 H       
  43 H43            3.7810     0.3732     0.2816 H       
  44 H44            5.4175     4.5277    -1.8148 H       
  45 H45            4.8807     5.1575    -0.2278 H       
  46 H46            4.4714     3.7088     1.6109 H       
  47 H47            5.2491     2.1081     1.5529 H       
  48 H48            6.5695     4.7706     0.8518 H       
  49 H49            6.8548     3.8193     2.3290 H       
  50 H50            7.2978     3.9237    -1.2816 H       
  51 H51            8.1194     2.3476    -1.3776 H       
  52 H52            6.0273     1.2024    -0.7304 H       
  53 H53            5.7634     2.2067    -2.1768 H       
  54 H54            2.2579     6.8291    -5.1926 H       
  55 H55            1.0965     8.5357    -3.8525 H       
  56 H56            0.9858     8.3215    -1.4052 H       
  57 H57            2.0249     6.3927    -0.2840 H       
  58 H58            9.6114     3.2372    -0.0203 H       
  59 H59            8.9186     4.5719     0.9319 H       
  60 H60           10.1260     1.0088     1.1866 H       
  61 H61            9.7789     0.8917     2.9285 H       
  62 H62            8.4416     1.0257     1.7615 H       
  63 H63           11.0039     4.3943     2.3794 H       
  64 H64           11.3603     2.8617     3.2115 H       
  65 H65           11.5653     2.9854     1.4477 H       
  66 H66            7.7108     2.8045     3.2738 H       
  67 H67            9.1953     3.0714     4.2190 H       
  68 H68            8.5149     4.3922     3.2387 H       
  69 H69            4.2076     4.1777    -3.8720 H       
  70 H70            4.5318     3.0887    -5.9152 H       
  71 H71            5.4647     3.2323    -8.3027 H       
  72 H72            1.3256     3.5056    -7.2675 H       
  73 H73            0.7148     3.1874    -9.6301 H       
  74 H74            4.8518     2.9138   -10.6647 H       
  75 H75            3.0718     2.5644   -13.5340 H       
  76 H76            0.0320     4.2292    -1.5166 H       
@<TRIPOS>BOND
   1    1    2 ar
   2    1    5 ar
   3    1   38 1
   4    2    3 ar
   5    2   41 1
   6    3    4 ar
   7    3   42 1
   8    4    7 ar
   9    4   43 1
  10    5    7 ar
  11    5    6 1
  12    6    9 1
  13    6   15 1
  14    7    8 1
  15    8    9 1
  16    8   10 1
  17    8   14 1
  18    9   44 1
  19    9   45 1
  20   10   11 1
  21   10   46 1
  22   10   47 1
  23   11   12 1
  24   11   48 1
  25   11   49 1
  26   12   13 1
  27   12   21 1
  28   13   14 1
  29   13   50 1
  30   13   51 1
  31   14   52 1
  32   14   53 1
  33   15   16 ar
  34   15   20 ar
  35   16   17 ar
  36   16   26 1
  37   17   18 ar
  38   17   54 1
  39   18   19 ar
  40   18   55 1
  41   19   20 ar
  42   19   56 1
  43   20   57 1
  44   21   22 1
  45   21   58 1
  46   21   59 1
  47   22   23 1
  48   22   24 1
  49   22   25 1
  50   23   60 1
  51   23   61 1
  52   23   62 1
  53   24   63 1
  54   24   64 1
  55   24   65 1
  56   25   66 1
  57   25   67 1
  58   25   68 1
  59   26   27 am
  60   26   69 1
  61   27   28 am
  62   27   29 2
  63   28   30 1
  64   28   70 1
  65   30   32 ar
  66   30   31 ar
  67   31   35 ar
  68   31   71 1
  69   32   33 ar
  70   32   72 1
  71   33   34 ar
  72   33   73 1
  73   34   35 ar
  74   34   36 1
  75   35   74 1
  76   36   37 1
  77   37   39 1
  78   37   40 1
  79   37   75 1
  80   38   76 1

#	End of record

