#	Name: ASD05740222
#	Creating user name:	WinNT
#	Creation time:	15. 06. 2019 21:03

#	Modifying user name:	WinNT
#	Modification time:	15. 06. 2019 21:03

#	Program:	/corina/corina34_cracker 3.40 0067  02.08.2006

@<TRIPOS>MOLECULE
ASD05740222
  58   62    0    0    0
SMALL
NO_CHARGES


@<TRIPOS>ATOM
   1 C1             0.6202    -1.6856    -2.7841 C.3     
   2 N2             0.0444    -1.0038    -1.6165 N.3     
   3 C3            -1.2923    -1.3731    -1.4289 C.ar    
   4 C4            -2.0194    -0.8367    -0.3742 C.ar    
   5 C5            -3.3383    -1.2012    -0.1892 C.ar    
   6 C6            -3.9375    -2.1043    -1.0573 C.ar    
   7 C7            -3.2103    -2.6409    -2.1117 C.ar    
   8 C8            -1.8935    -2.2715    -2.3008 C.ar    
   9 N9            -5.2753    -2.4743    -0.8692 N.pl3   
  10 C10           -6.1904    -1.5470    -0.4105 C.ar    
  11 N11           -5.8007    -0.2861    -0.2578 N.ar    
  12 N12           -7.4250    -1.9476    -0.1443 N.ar    
  13 C13           -8.3299    -1.0841     0.2979 C.ar    
  14 C14           -7.9500     0.2643     0.4778 C.ar    
  15 C15           -6.6358     0.6402     0.1777 C.ar    
  16 N16           -9.6151    -1.4683     0.5815 N.am    
  17 C17          -10.5198    -0.5793     1.0287 C.2     
  18 C18          -10.1938     0.7778     1.2252 C.2     
  19 C19           -8.9371     1.2235     0.9639 C.2     
  20 C20          -10.0085    -2.8669     0.3943 C.3     
  21 O21          -11.6530    -0.9576     1.2703 O.2     
  22 C22           -9.9051    -3.5981     1.7080 C.ar    
  23 C23          -11.0469    -3.8739     2.4381 C.ar    
  24 C24            0.8389    -1.2708    -0.4095 C.3     
  25 C25            2.2726    -0.7812    -0.6270 C.3     
  26 N26            2.8484    -1.4630    -1.7945 N.3     
  27 C27            2.0539    -1.1960    -3.0016 C.3     
  28 C28          -10.9517    -4.5445     3.6440 C.ar    
  29 C29           -9.7155    -4.9395     4.1205 C.ar    
  30 C30           -8.5736    -4.6648     3.3925 C.ar    
  31 C31           -8.6679    -3.9989     2.1819 C.ar    
  32 Br32         -12.7384    -3.3336     1.7878 Br      
  33 F33           -7.5518    -3.7304     1.4694 F       
  34 C34            4.2516    -1.0754    -1.9915 C.3     
  35 H35            0.6258    -2.7617    -2.6106 H       
  36 H36            0.0217    -1.4624    -3.6673 H       
  37 H37           -1.5532    -0.1349     0.3014 H       
  38 H38           -3.9037    -0.7841     0.6310 H       
  39 H39           -3.6762    -3.3439    -2.7864 H       
  40 H40           -1.3279    -2.6889    -3.1208 H       
  41 H41           -5.5591    -3.3818    -1.0612 H       
  42 H42           -6.3108     1.6624     0.3036 H       
  43 H43          -10.9450     1.4654     1.5850 H       
  44 H44           -8.6755     2.2609     1.1110 H       
  45 H45          -11.0365    -2.9101     0.0344 H       
  46 H46           -9.3481    -3.3356    -0.3353 H       
  47 H47            0.3999    -0.7451     0.4385 H       
  48 H48            0.8470    -2.3421    -0.2090 H       
  49 H49            2.2670     0.2949    -0.8005 H       
  50 H50            2.8710    -1.0044     0.2562 H       
  51 H51            2.4929    -1.7217    -3.8496 H       
  52 H52            2.0458    -0.1246    -3.2021 H       
  53 H53          -11.8435    -4.7593     4.2140 H       
  54 H54           -9.6422    -5.4627     5.0625 H       
  55 H55           -7.6081    -4.9730     3.7656 H       
  56 H56            4.8305    -1.3454    -1.1083 H       
  57 H57            4.6532    -1.5943    -2.8618 H       
  58 H58            4.3122     0.0013    -2.1504 H       
@<TRIPOS>BOND
   1    1    2 1
   2    1   27 1
   3    1   35 1
   4    1   36 1
   5    2    3 1
   6    2   24 1
   7    3    4 ar
   8    3    8 ar
   9    4    5 ar
  10    4   37 1
  11    5    6 ar
  12    5   38 1
  13    6    7 ar
  14    6    9 1
  15    7    8 ar
  16    7   39 1
  17    8   40 1
  18    9   10 1
  19    9   41 1
  20   10   11 ar
  21   10   12 ar
  22   11   15 ar
  23   12   13 ar
  24   13   14 ar
  25   13   16 1
  26   14   15 ar
  27   14   19 1
  28   15   42 1
  29   16   17 am
  30   16   20 1
  31   17   18 1
  32   17   21 2
  33   18   19 2
  34   18   43 1
  35   19   44 1
  36   20   22 1
  37   20   45 1
  38   20   46 1
  39   22   23 ar
  40   22   31 ar
  41   23   28 ar
  42   23   32 1
  43   24   25 1
  44   24   47 1
  45   24   48 1
  46   25   26 1
  47   25   49 1
  48   25   50 1
  49   26   27 1
  50   26   34 1
  51   27   51 1
  52   27   52 1
  53   28   29 ar
  54   28   53 1
  55   29   30 ar
  56   29   54 1
  57   30   31 ar
  58   30   55 1
  59   31   33 1
  60   34   56 1
  61   34   57 1
  62   34   58 1

#	End of record

