#	Name: ASD04170011
#	Creating user name:	WinNT
#	Creation time:	15. 06. 2019 20:48

#	Modifying user name:	WinNT
#	Modification time:	15. 06. 2019 20:48

#	Program:	/corina/corina34_cracker 3.40 0067  02.08.2006

@<TRIPOS>MOLECULE
ASD04170011
  39   41    0    0    0
SMALL
NO_CHARGES


@<TRIPOS>ATOM
   1 Br1            0.1118     0.0786    -0.9441 Br      
   2 C2             0.0517     1.9434    -0.6364 C.ar    
   3 C3             0.1281     2.4332     0.6552 C.ar    
   4 C4             0.0843     3.7952     0.8821 C.ar    
   5 C5            -0.0358     4.6718    -0.1862 C.ar    
   6 C6            -0.1118     4.1787    -1.4805 C.ar    
   7 C7            -0.0629     2.8163    -1.7036 C.ar    
   8 O8            -0.0795     6.0125     0.0351 O.3     
   9 C9            -1.2840     6.6082    -0.0553 C.2     
  10 O10           -2.2820     5.9373    -0.2302 O.2     
  11 N11           -1.3825     7.9483     0.0483 N.am    
  12 C12           -2.6897     8.6123    -0.0483 C.3     
  13 C13           -2.8834     9.4975     1.1878 C.3     
  14 C14           -2.9354     8.6134     2.4368 C.3     
  15 C15           -1.6096     7.8617     2.5771 C.3     
  16 N16           -0.5089     8.8272     2.6886 N.3     
  17 C17           -0.4079     9.6628     1.4865 C.3     
  18 C18           -0.1855     8.7719     0.2659 C.3     
  19 C19           -1.6997    10.4627     1.3038 C.3     
  20 C20            0.7630     8.1460     2.9646 C.3     
  21 H21            0.2217     1.7503     1.4867 H       
  22 H22            0.1433     4.1771     1.8906 H       
  23 H23           -0.2055     4.8596    -2.3136 H       
  24 H24           -0.1217     2.4320    -2.7112 H       
  25 H25           -2.7217     9.2277    -0.9474 H       
  26 H26           -3.4791     7.8617    -0.0879 H       
  27 H27           -3.8148    10.0563     1.0957 H       
  28 H28           -3.0961     9.2358     3.3171 H       
  29 H29           -3.7517     7.8973     2.3423 H       
  30 H30           -1.6381     7.2385     3.4709 H       
  31 H31           -1.4539     7.2329     1.7005 H       
  32 H32            0.4308    10.3509     1.5924 H       
  33 H33            0.6763     8.1268     0.4368 H       
  34 H34           -0.0107     9.3930    -0.6126 H       
  35 H35           -1.6302    11.0634     0.3970 H       
  36 H36           -1.8469    11.1168     2.1632 H       
  37 H37            0.9524     7.4025     2.1904 H       
  38 H38            1.5721     8.8763     2.9728 H       
  39 H39            0.7082     7.6536     3.9356 H       
@<TRIPOS>BOND
   1    1    2 1
   2    2    3 ar
   3    2    7 ar
   4    3    4 ar
   5    3   21 1
   6    4    5 ar
   7    4   22 1
   8    5    6 ar
   9    5    8 1
  10    6    7 ar
  11    6   23 1
  12    7   24 1
  13    8    9 1
  14    9   10 2
  15    9   11 am
  16   11   12 1
  17   11   18 1
  18   12   13 1
  19   12   25 1
  20   12   26 1
  21   13   14 1
  22   13   19 1
  23   13   27 1
  24   14   15 1
  25   14   28 1
  26   14   29 1
  27   15   16 1
  28   15   30 1
  29   15   31 1
  30   16   17 1
  31   16   20 1
  32   17   18 1
  33   17   19 1
  34   17   32 1
  35   18   33 1
  36   18   34 1
  37   19   35 1
  38   19   36 1
  39   20   37 1
  40   20   38 1
  41   20   39 1

#	End of record

