#	Name: ASD02430002
#	Creating user name:	WinNT
#	Creation time:	15. 06. 2019 20:21

#	Modifying user name:	WinNT
#	Modification time:	15. 06. 2019 20:21

#	Program:	/corina/corina34_cracker 3.40 0067  02.08.2006

@<TRIPOS>MOLECULE
ASD02430002
  51   52    0    0    0
SMALL
NO_CHARGES


@<TRIPOS>ATOM
   1 C1            -0.0187     1.5275     0.0104 C.3     
   2 C2             0.0021    -0.0041     0.0020 C.3     
   3 C3             0.6555    -0.4877    -1.2962 C.3     
   4 C4            -0.1102     0.0895    -2.4896 C.3     
   5 O5            -0.1178     1.5160    -2.4042 O.3     
   6 C6            -0.7584     2.0269    -1.2334 C.3     
   7 C7             0.5722    -0.3401    -3.7898 C.3     
   8 C8             0.4816    -0.1882    -6.2821 C.3     
   9 C9            -0.2613     0.1311    -4.9832 C.3     
  10 C10           -1.6116    -0.5883    -4.9779 C.3     
  11 C11           -2.4452    -0.1171    -6.1712 C.3     
  12 C12           -1.7023    -0.4364    -7.4701 C.3     
  13 C13           -0.3520     0.2830    -7.4754 C.3     
  14 O14            1.3215     2.0234     0.0003 O.3     
  15 C15           -2.2092     1.5427    -1.1931 C.3     
  16 O16           -2.9291     2.1031    -2.2930 O.3     
  17 O17            0.7538    -0.4781     1.1210 O.3     
  18 N18            2.0516    -0.0329    -1.3422 N.3     
  19 O19            1.7428     0.4837    -6.2870 O.3     
  20 O20           -0.5632     1.6932    -7.3817 O.3     
  21 O21           -1.4911    -1.8466    -7.5638 O.3     
  22 O22           -3.7064    -0.7890    -6.1663 O.3     
  23 O23           -1.4005    -1.9985    -5.0716 O.3     
  24 C24            2.7620    -0.1988    -7.0200 C.3     
  25 H25           -0.5307     1.8800     0.9058 H       
  26 H26           -1.0183    -0.3829     0.0598 H       
  27 H27            0.6257    -1.5766    -1.3353 H       
  28 H28           -1.1353    -0.2808    -2.4773 H       
  29 H29           -0.7391     3.1166    -1.2548 H       
  30 H30            1.5661     0.1044    -3.8427 H       
  31 H31            0.6584    -1.4265    -3.8132 H       
  32 H32            0.6427    -1.2639    -6.3535 H       
  33 H33           -0.4224     1.2067    -4.9117 H       
  34 H34           -2.1409    -0.3608    -4.0526 H       
  35 H35           -2.6063     0.9586    -6.0998 H       
  36 H36           -2.2962    -0.1007    -8.3203 H       
  37 H37            0.1773     0.0555    -8.4007 H       
  38 H38            1.3839     2.9883     0.0049 H       
  39 H39           -2.2312     0.4550    -1.2608 H       
  40 H40           -2.6716     1.8579    -0.2578 H       
  41 H41           -3.8584     1.8383    -2.3306 H       
  42 H42            0.3997    -0.2029     1.9778 H       
  43 H43            2.5764    -0.3970    -0.5612 H       
  44 H44            2.4851    -0.2843    -2.2179 H       
  45 H45           -1.0856     2.0617    -8.1072 H       
  46 H46           -2.3061    -2.3670    -7.5658 H       
  47 H47           -4.2883    -0.5385    -6.8968 H       
  48 H48           -2.2154    -2.5190    -5.0736 H       
  49 H49            3.6876     0.3751    -6.9756 H       
  50 H50            2.9245    -1.1847    -6.5845 H       
  51 H51            2.4514    -0.3074    -8.0592 H       
@<TRIPOS>BOND
   1    1    2 1
   2    1   14 1
   3    1    6 1
   4    1   25 1
   5    2    3 1
   6    2   17 1
   7    2   26 1
   8    3   18 1
   9    3    4 1
  10    3   27 1
  11    4    5 1
  12    4    7 1
  13    4   28 1
  14    5    6 1
  15    6   15 1
  16    6   29 1
  17    7    9 1
  18    7   30 1
  19    7   31 1
  20    8    9 1
  21    8   19 1
  22    8   13 1
  23    8   32 1
  24    9   10 1
  25    9   33 1
  26   10   23 1
  27   10   11 1
  28   10   34 1
  29   11   22 1
  30   11   12 1
  31   11   35 1
  32   12   13 1
  33   12   21 1
  34   12   36 1
  35   13   20 1
  36   13   37 1
  37   14   38 1
  38   15   16 1
  39   15   39 1
  40   15   40 1
  41   16   41 1
  42   17   42 1
  43   18   43 1
  44   18   44 1
  45   19   24 1
  46   20   45 1
  47   21   46 1
  48   22   47 1
  49   23   48 1
  50   24   49 1
  51   24   50 1
  52   24   51 1

#	End of record

