#	Name: ASD01720095
#	Creating user name:	WinNT
#	Creation time:	15. 06. 2019 19:23

#	Modifying user name:	WinNT
#	Modification time:	15. 06. 2019 19:23

#	Program:	/corina/corina34_cracker 3.40 0067  02.08.2006

@<TRIPOS>MOLECULE
ASD01720095
  66   69    0    0    0
SMALL
NO_CHARGES


@<TRIPOS>ATOM
   1 C1            -0.0165     1.3645     0.0095 C.ar    
   2 C2             0.0021    -0.0041     0.0020 C.ar    
   3 C3             1.2239    -0.6746    -0.0132 C.ar    
   4 N4             2.3695    -0.0074    -0.0202 N.ar    
   5 C5             2.4006     1.3140    -0.0134 C.ar    
   6 C6             1.2064     2.0517     0.0016 C.ar    
   7 N7             1.2414    -2.0588    -0.0209 N.3     
   8 O8             3.5909     1.9597    -0.0203 O.3     
   9 C9             4.7682     1.1498    -0.0350 C.3     
  10 C10            6.0059     2.0492    -0.0411 C.3     
  11 C11            7.2664     1.1821    -0.0568 C.3     
  12 C12            8.4999     2.0777    -0.1886 C.3     
  13 C13            7.3525     0.3838     1.2456 C.3     
  14 C14            1.2369     3.5235     0.0092 C.2     
  15 O15            2.3026     4.1098     0.0021 O.2     
  16 C16            2.6350    -2.5735    -0.0369 C.3     
  17 C17            2.5114    -4.0141    -0.5779 C.3     
  18 C18            1.1996    -4.0263    -1.3896 C.3     
  19 C19            0.6410    -2.5920    -1.2707 C.3     
  20 C20            2.5441    -4.2207    -2.0936 C.3     
  21 C21            2.8699    -5.6024    -2.5993 C.2     
  22 O22            3.0927    -6.4953    -1.8164 O.2     
  23 O23            2.9124    -5.8411    -3.9195 O.3     
  24 N24            0.0839     4.2214     0.0239 N.am    
  25 C25            0.1143     5.6860     0.0315 C.3     
  26 C26           -1.1291     6.1862    -0.5359 C.3     
  27 C27            0.3385     6.1735     1.4776 C.3     
  28 C28           -1.1559     7.7256    -0.6281 C.3     
  29 C29            0.8706     7.5803     1.4309 C.3     
  30 C30           -1.4970     8.2800     0.7286 C.3     
  31 C31           -0.2444     8.6367     1.5517 C.3     
  32 H32           -0.9523     1.9036     0.0169 H       
  33 H33           -0.9235    -0.5605     0.0082 H       
  34 H34            4.7841     0.5158     0.8515 H       
  35 H35            4.7685     0.5254    -0.9284 H       
  36 H36            5.9900     2.6833    -0.9276 H       
  37 H37            6.0056     2.6737     0.8523 H       
  38 H38            7.2242     0.4951    -0.9020 H       
  39 H39            8.5420     2.7647     0.6566 H       
  40 H40            9.3979     1.4600    -0.1998 H       
  41 H41            8.4385     2.6464    -1.1164 H       
  42 H42            7.3946     1.0709     2.0907 H       
  43 H43            6.4737    -0.2542     1.3394 H       
  44 H44            8.2505    -0.2339     1.2344 H       
  45 H45            3.2553    -1.9704    -0.6999 H       
  46 H46            3.0494    -2.5803     0.9712 H       
  47 H47            2.7789    -4.8303     0.0931 H       
  48 H48            0.4907    -4.8516    -1.3228 H       
  49 H49           -0.4459    -2.6127    -1.1916 H       
  50 H50            0.9493    -1.9918    -2.1267 H       
  51 H51            2.9147    -3.3979    -2.7048 H       
  52 H52            3.1257    -6.7429    -4.1959 H       
  53 H53           -0.7659     3.7538     0.0295 H       
  54 H54            0.9457     6.0247    -0.5866 H       
  55 H55           -1.2532     5.7704    -1.5358 H       
  56 H56           -1.9598     5.8553     0.0875 H       
  57 H57           -0.6068     6.1574     2.0201 H       
  58 H58            1.0602     5.5254     1.9747 H       
  59 H59           -0.1766     8.0909    -0.9373 H       
  60 H60           -1.9105     8.0360    -1.3507 H       
  61 H61            1.5767     7.7176     2.2498 H       
  62 H62            1.3953     7.7277     0.4869 H       
  63 H63           -2.1023     9.1774     0.6008 H       
  64 H64           -2.0795     7.5390     1.2761 H       
  65 H65           -0.5276     8.7306     2.6000 H       
  66 H66            0.1415     9.5960     1.2068 H       
@<TRIPOS>BOND
   1    1    2 ar
   2    1    6 ar
   3    1   32 1
   4    2    3 ar
   5    2   33 1
   6    3    4 ar
   7    3    7 1
   8    4    5 ar
   9    5    6 ar
  10    5    8 1
  11    6   14 1
  12    7   16 1
  13    7   19 1
  14    8    9 1
  15    9   10 1
  16    9   34 1
  17    9   35 1
  18   10   11 1
  19   10   36 1
  20   10   37 1
  21   11   12 1
  22   11   13 1
  23   11   38 1
  24   12   39 1
  25   12   40 1
  26   12   41 1
  27   13   42 1
  28   13   43 1
  29   13   44 1
  30   14   15 2
  31   14   24 am
  32   16   17 1
  33   16   45 1
  34   16   46 1
  35   17   18 1
  36   17   20 1
  37   17   47 1
  38   18   19 1
  39   18   20 1
  40   18   48 1
  41   19   49 1
  42   19   50 1
  43   20   21 1
  44   20   51 1
  45   21   22 2
  46   21   23 1
  47   23   52 1
  48   24   25 1
  49   24   53 1
  50   25   26 1
  51   25   27 1
  52   25   54 1
  53   26   28 1
  54   26   55 1
  55   26   56 1
  56   27   29 1
  57   27   57 1
  58   27   58 1
  59   28   30 1
  60   28   59 1
  61   28   60 1
  62   29   31 1
  63   29   61 1
  64   29   62 1
  65   30   31 1
  66   30   63 1
  67   30   64 1
  68   31   65 1
  69   31   66 1

#	End of record

