#	Name: ASD01150689
#	Creating user name:	WinNT
#	Creation time:	15. 06. 2019 19:04

#	Modifying user name:	WinNT
#	Modification time:	15. 06. 2019 19:04

#	Program:	/corina/corina34_cracker 3.40 0067  02.08.2006

@<TRIPOS>MOLECULE
ASD01150689
  36   39    0    0    0
SMALL
NO_CHARGES


@<TRIPOS>ATOM
   1 C1            -0.0178     1.5020     0.0016 C.2     
   2 C2            -0.7738     1.3027     1.2899 C.3     
   3 C3             3.6836     3.5309     0.0125 C.ar    
   4 C4             2.5283     4.3009    -0.0766 C.ar    
   5 C5             1.2657     3.6442    -0.0838 C.ar    
   6 C6             1.2495     2.2343     0.0025 C.ar    
   7 C7             2.4698     1.5492     0.0896 C.ar    
   8 N8             3.6080     2.1947     0.0920 N.ar    
   9 C9             2.8078     5.7373    -0.1525 C.2     
  10 C10            4.0990     6.0360    -0.1233 C.2     
  11 S11            5.0903     4.5844     0.0059 S.3     
  12 C12            4.3002     7.5467    -0.2062 C.3     
  13 C13            2.9283     8.1482     0.1577 C.3     
  14 C14            1.9727     7.0131    -0.2598 C.3     
  15 C15            2.4704     0.0451     0.1823 C.3     
  16 O16           -0.4534     5.2764     0.7430 O.3     
  17 C17            0.0156     4.4103    -0.1775 C.2     
  18 C18           -0.8736     4.3703    -1.2122 C.2     
  19 C19           -1.9154     5.2552    -0.8843 C.2     
  20 C20           -1.6190     5.7885     0.3199 C.2     
  21 O21           -0.4573     1.0512    -1.0359 O.2     
  22 H22           -0.1920     1.7058     2.1187 H       
  23 H23           -1.7316     1.8199     1.2329 H       
  24 H24           -0.9447     0.2381     1.4498 H       
  25 H25            5.0572     7.8683     0.5091 H       
  26 H26            4.5853     7.8365    -1.2175 H       
  27 H27            2.8587     8.3437     1.2278 H       
  28 H28            2.7339     9.0538    -0.4168 H       
  29 H29            1.6349     7.1600    -1.2857 H       
  30 H30            1.1203     6.9665     0.4180 H       
  31 H31            2.4149    -0.3807    -0.8195 H       
  32 H32            3.3870    -0.2885     0.6687 H       
  33 H33            1.6097    -0.2834     0.7649 H       
  34 H34           -0.7924     3.7744    -2.1092 H       
  35 H35           -2.7885     5.4686    -1.4832 H       
  36 H36           -2.2208     6.5085     0.8544 H       
@<TRIPOS>BOND
   1    1    2 1
   2    1    6 1
   3    1   21 2
   4    2   22 1
   5    2   23 1
   6    2   24 1
   7    3    4 ar
   8    3    8 ar
   9    3   11 1
  10    4    5 ar
  11    4    9 1
  12    5    6 ar
  13    5   17 1
  14    6    7 ar
  15    7    8 ar
  16    7   15 1
  17    9   10 2
  18    9   14 1
  19   10   11 1
  20   10   12 1
  21   12   13 1
  22   12   25 1
  23   12   26 1
  24   13   14 1
  25   13   27 1
  26   13   28 1
  27   14   29 1
  28   14   30 1
  29   15   31 1
  30   15   32 1
  31   15   33 1
  32   16   17 1
  33   16   20 1
  34   17   18 2
  35   18   19 1
  36   18   34 1
  37   19   20 2
  38   19   35 1
  39   20   36 1

#	End of record

