#	Name: ASD02038133
#	Creating user name:	WinNT
#	Creation time:	15. 06. 2019 20:16

#	Modifying user name:	WinNT
#	Modification time:	15. 06. 2019 20:16

#	Program:	/corina/corina34_cracker 3.40 0067  02.08.2006

@<TRIPOS>MOLECULE
ASD02038133
  54   56    0    0    0
SMALL
NO_CHARGES


@<TRIPOS>ATOM
   1 C1            -0.1416     1.1159     0.0877 C.ar    
   2 C2            -0.1430    -0.2500     0.3150 C.ar    
   3 C3             1.0527     1.7829    -0.1268 C.ar    
   4 C4             2.2456     1.0866    -0.1150 C.ar    
   5 C5             2.2465    -0.2834     0.1127 C.ar    
   6 C6             1.0475    -0.9502     0.3281 C.ar    
   7 N7             3.4528    -0.9902     0.1251 N.3     
   8 C8             6.7558    -3.3439     1.3068 C.3     
   9 C9             7.7826    -2.5858     2.1505 C.3     
  10 C10            9.1026    -3.3593     2.1641 C.3     
  11 O11           10.0615    -2.6512     2.9522 O.3     
  12 C12           11.2970    -3.2072     3.0678 C.ar    
  13 C13           12.2756    -2.5722     3.8183 C.ar    
  14 C14           13.5304    -3.1366     3.9365 C.ar    
  15 C15           13.8124    -4.3398     3.3039 C.ar    
  16 C16           12.8325    -4.9749     2.5528 C.ar    
  17 C17           11.5765    -4.4121     2.4398 C.ar    
  18 N18           15.0859    -4.9129     3.4230 N.am    
  19 C19            3.2235    -2.4188     0.3826 C.3     
  20 C20            4.5561    -3.1679     0.3093 C.3     
  21 N21            5.4885    -2.6013     1.2938 N.3     
  22 C22            5.7178    -1.1728     1.0363 C.3     
  23 C23            4.3852    -0.4236     1.1096 C.3     
  24 F24           -1.3076     1.7979     0.0698 F       
  25 C25           15.7699    -4.8006     4.5788 C.2     
  26 O26           16.9514    -5.4297     4.7258 O.3     
  27 O27           15.3205    -4.1316     5.4883 O.2     
  28 C28           17.6326    -5.2642     5.9973 C.3     
  29 H29           -1.0756    -0.7682     0.4825 H       
  30 H30            1.0515     2.8483    -0.3038 H       
  31 H31            3.1768     1.6071    -0.2831 H       
  32 H32            1.0459    -2.0155     0.5057 H       
  33 H33            7.1276    -3.4460     0.2872 H       
  34 H34            6.5930    -4.3331     1.7348 H       
  35 H35            7.9454    -1.5967     1.7225 H       
  36 H36            7.4108    -2.4838     3.1701 H       
  37 H37            8.9397    -4.3484     2.5922 H       
  38 H38            9.4744    -3.4613     1.1446 H       
  39 H39           12.0562    -1.6360     4.3101 H       
  40 H40           14.2923    -2.6419     4.5206 H       
  41 H41           13.0513    -5.9109     2.0604 H       
  42 H42           10.8141    -4.9062     1.8559 H       
  43 H43           15.4749    -5.3904     2.6736 H       
  44 H44            2.7898    -2.5444     1.3746 H       
  45 H45            2.5401    -2.8182    -0.3667 H       
  46 H46            4.3926    -4.2231     0.5285 H       
  47 H47            4.9766    -3.0650    -0.6911 H       
  48 H48            6.4012    -0.7733     1.7855 H       
  49 H49            6.1515    -1.0471     0.0442 H       
  50 H50            4.5486     0.6315     0.8903 H       
  51 H51            3.9646    -0.5266     2.1099 H       
  52 H52           17.8411    -4.2072     6.1630 H       
  53 H53           16.9989    -5.6398     6.8007 H       
  54 H54           18.5694    -5.8214     5.9829 H       
@<TRIPOS>BOND
   1    1    2 ar
   2    1    3 ar
   3    1   24 1
   4    2    6 ar
   5    2   29 1
   6    3    4 ar
   7    3   30 1
   8    4    5 ar
   9    4   31 1
  10    5    6 ar
  11    5    7 1
  12    6   32 1
  13    7   19 1
  14    7   23 1
  15    8    9 1
  16    8   21 1
  17    8   33 1
  18    8   34 1
  19    9   10 1
  20    9   35 1
  21    9   36 1
  22   10   11 1
  23   10   37 1
  24   10   38 1
  25   11   12 1
  26   12   13 ar
  27   12   17 ar
  28   13   14 ar
  29   13   39 1
  30   14   15 ar
  31   14   40 1
  32   15   16 ar
  33   15   18 1
  34   16   17 ar
  35   16   41 1
  36   17   42 1
  37   18   25 am
  38   18   43 1
  39   19   20 1
  40   19   44 1
  41   19   45 1
  42   20   21 1
  43   20   46 1
  44   20   47 1
  45   21   22 1
  46   22   23 1
  47   22   48 1
  48   22   49 1
  49   23   50 1
  50   23   51 1
  51   25   26 1
  52   25   27 2
  53   26   28 1
  54   28   52 1
  55   28   53 1
  56   28   54 1

#	End of record

