#	Name: ASD01870716
#	Creating user name:	WinNT
#	Creation time:	15. 06. 2019 19:39

#	Modifying user name:	WinNT
#	Modification time:	15. 06. 2019 19:39

#	Program:	/corina/corina34_cracker 3.40 0067  02.08.2006

@<TRIPOS>MOLECULE
ASD01870716
  47   50    0    0    0
SMALL
NO_CHARGES


@<TRIPOS>ATOM
   1 C1            -0.0908     1.1855    -0.2229 C.ar    
   2 C2            -0.0717    -0.1956    -0.2664 C.ar    
   3 C3             1.1308    -0.8792    -0.2872 C.ar    
   4 C4             2.3282    -0.1896    -0.2644 C.ar    
   5 C5             1.1077     1.9023    -0.1996 C.ar    
   6 C6             1.3588     3.3539    -0.1537 C.2     
   7 C7             2.3318     1.2064    -0.2203 C.ar    
   8 C8             3.4518     2.1640    -0.1891 C.2     
   9 C9             2.8561     3.5511    -0.1467 C.3     
  10 C10            3.2829     4.3388    -1.3584 C.ar    
  11 C11            3.9299     5.5504    -1.2025 C.ar    
  12 C12            4.3214     6.2730    -2.3141 C.ar    
  13 C13            4.0662     5.7837    -3.5815 C.ar    
  14 C14            3.4199     4.5717    -3.7374 C.ar    
  15 C15            3.0324     3.8471    -2.6259 C.ar    
  16 O16            0.5190     4.2278    -0.1267 O.2     
  17 O17            4.6325     1.8892    -0.1968 O.2     
  18 C18            4.4921     6.5719    -4.7933 C.3     
  19 C19            5.8877     6.1660    -5.1916 C.2     
  20 C20            6.5355     6.7979    -6.3570 C.ar    
  21 O21            6.4780     5.3205    -4.5545 O.2     
  22 N22            5.8431     7.6349    -7.1229 N.ar    
  23 C23            7.8717     6.5165    -6.6430 C.ar    
  24 C24            8.4659     7.1185    -7.7411 C.ar    
  25 C25            7.7051     7.9803    -8.5151 C.ar    
  26 C26            6.3831     8.2185    -8.1693 C.ar    
  27 C27            8.6577     5.5722    -5.7704 C.3     
  28 C28           -1.4068     1.9196    -0.2068 C.3     
  29 H29           -1.0015    -0.7447    -0.2839 H       
  30 H30            1.1339    -1.9587    -0.3213 H       
  31 H31            3.2625    -0.7310    -0.2802 H       
  32 H32            3.1638     4.0645     0.7643 H       
  33 H33            4.1293     5.9326    -0.2123 H       
  34 H34            4.8263     7.2199    -2.1923 H       
  35 H35            3.2203     4.1897    -4.7277 H       
  36 H36            2.5308     2.8984    -2.7476 H       
  37 H37            3.8064     6.3713    -5.6166 H       
  38 H38            4.4763     7.6362    -4.5585 H       
  39 H39            9.4986     6.9207    -7.9877 H       
  40 H40            8.1387     8.4652    -9.3773 H       
  41 H41            5.7893     8.8929    -8.7684 H       
  42 H42            8.4591     4.5449    -6.0758 H       
  43 H43            9.7222     5.7827    -5.8740 H       
  44 H44            8.3604     5.7060    -4.7303 H       
  45 H45           -1.7296     2.0642     0.8243 H       
  46 H46           -1.2877     2.8896    -0.6896 H       
  47 H47           -2.1549     1.3361    -0.7433 H       
@<TRIPOS>BOND
   1    1    2 ar
   2    1    5 ar
   3    1   28 1
   4    2    3 ar
   5    2   29 1
   6    3    4 ar
   7    3   30 1
   8    4    7 ar
   9    4   31 1
  10    5    7 ar
  11    5    6 1
  12    6    9 1
  13    6   16 2
  14    7    8 1
  15    8    9 1
  16    8   17 2
  17    9   10 1
  18    9   32 1
  19   10   11 ar
  20   10   15 ar
  21   11   12 ar
  22   11   33 1
  23   12   13 ar
  24   12   34 1
  25   13   14 ar
  26   13   18 1
  27   14   15 ar
  28   14   35 1
  29   15   36 1
  30   18   19 1
  31   18   37 1
  32   18   38 1
  33   19   20 1
  34   19   21 2
  35   20   23 ar
  36   20   22 ar
  37   22   26 ar
  38   23   24 ar
  39   23   27 1
  40   24   25 ar
  41   24   39 1
  42   25   26 ar
  43   25   40 1
  44   26   41 1
  45   27   42 1
  46   27   43 1
  47   27   44 1
  48   28   45 1
  49   28   46 1
  50   28   47 1

#	End of record

