#	Name: ASD01148164
#	Creating user name:	WinNT
#	Creation time:	15. 06. 2019 19:02

#	Modifying user name:	WinNT
#	Modification time:	15. 06. 2019 19:02

#	Program:	/corina/corina34_cracker 3.40 0067  02.08.2006

@<TRIPOS>MOLECULE
ASD01148164
  59   63    0    0    0
SMALL
NO_CHARGES


@<TRIPOS>ATOM
   1 N1            -0.0111     1.3363     0.0377 N.pl3   
   2 C2             0.0054    -0.0025     0.0180 C.2     
   3 C3             1.1805    -0.7271     0.0055 C.2     
   4 C4             2.4621    -0.0042     0.0142 C.2     
   5 C5             2.3999     1.4691     0.0360 C.ar    
   6 C6             3.5473     2.2579     0.0463 C.ar    
   7 C7             3.4002     3.6389     0.0672 C.ar    
   8 N8             2.1973     4.1951     0.0776 N.ar    
   9 C9             1.0883     3.4853     0.0685 C.ar    
  10 C10            1.1397     2.0948     0.0470 C.ar    
  11 C11            1.1518    -2.1981    -0.0156 C.2     
  12 O12            0.0915    -2.7871     0.0762 O.2     
  13 N13            2.3003    -2.8929    -0.1366 N.am    
  14 O14            3.5269    -0.5962     0.0043 O.2     
  15 C15           -1.3052     2.0230     0.0435 C.3     
  16 C16           -1.7605     2.2407     1.4878 C.3     
  17 N17            4.5321     4.4501     0.0779 N.pl3   
  18 C18            6.9050     4.8195    -0.5295 C.3     
  19 C19            5.8665     3.8458     0.0670 C.3     
  20 C20            6.3893     3.6443     1.5052 C.3     
  21 C21            7.8795     3.8976     1.4241 C.ar    
  22 C22            8.8958     3.5636     2.3038 C.ar    
  23 C23           10.2032     3.9031     2.0163 C.ar    
  24 C24           10.4995     4.5785     0.8470 C.ar    
  25 C25            9.4875     4.9124    -0.0314 C.ar    
  26 C26            8.1757     4.5728     0.2550 C.ar    
  27 O27            1.4305    -6.8484    -0.6962 O.3     
  28 C28            2.7115    -6.3981    -1.1451 C.3     
  29 C29            2.6814    -4.8767    -1.3138 C.3     
  30 N30            2.2877    -4.2554    -0.0409 N.3     
  31 C31            0.9686    -4.7411     0.3899 C.3     
  32 C32            1.0159    -6.2638     0.5415 C.3     
  33 H33           -0.9344    -0.5347     0.0119 H       
  34 H34            4.5284     1.8066     0.0385 H       
  35 H35            0.1314     3.9861     0.0776 H       
  36 H36            3.1359    -2.4253    -0.2917 H       
  37 H37           -1.2073     2.9869    -0.4558 H       
  38 H38           -2.0416     1.4148    -0.4819 H       
  39 H39           -1.8584     1.2768     1.9872 H       
  40 H40           -1.0241     2.8489     2.0132 H       
  41 H41           -2.7234     2.7516     1.4922 H       
  42 H42            4.4369     5.4154     0.0925 H       
  43 H43            7.0643     4.6020    -1.5857 H       
  44 H44            6.5748     5.8502    -0.4004 H       
  45 H45            5.8590     2.9037    -0.4813 H       
  46 H46            5.9205     4.3590     2.1816 H       
  47 H47            6.1966     2.6245     1.8383 H       
  48 H48            8.6650     3.0364     3.2176 H       
  49 H49           10.9934     3.6415     2.7046 H       
  50 H50           11.5214     4.8450     0.6208 H       
  51 H51            9.7198     5.4400    -0.9447 H       
  52 H52            3.4702    -6.6678    -0.4103 H       
  53 H53            2.9473    -6.8657    -2.1010 H       
  54 H54            3.6715    -4.5226    -1.6007 H       
  55 H55            1.9607    -4.6105    -2.0870 H       
  56 H56            0.7085    -4.2880     1.3465 H       
  57 H57            0.2206    -4.4727    -0.3561 H       
  58 H58            0.0254    -6.6343     0.8053 H       
  59 H59            1.7253    -6.5296     1.3252 H       
@<TRIPOS>BOND
   1    1    2 1
   2    1   10 1
   3    1   15 1
   4    2    3 2
   5    2   33 1
   6    3    4 1
   7    3   11 1
   8    4    5 1
   9    4   14 2
  10    5    6 ar
  11    5   10 ar
  12    6    7 ar
  13    6   34 1
  14    7    8 ar
  15    7   17 1
  16    8    9 ar
  17    9   10 ar
  18    9   35 1
  19   11   12 2
  20   11   13 am
  21   13   30 1
  22   13   36 1
  23   15   16 1
  24   15   37 1
  25   15   38 1
  26   16   39 1
  27   16   40 1
  28   16   41 1
  29   17   19 1
  30   17   42 1
  31   18   19 1
  32   18   26 1
  33   18   43 1
  34   18   44 1
  35   19   20 1
  36   19   45 1
  37   20   21 1
  38   20   46 1
  39   20   47 1
  40   21   22 ar
  41   21   26 ar
  42   22   23 ar
  43   22   48 1
  44   23   24 ar
  45   23   49 1
  46   24   25 ar
  47   24   50 1
  48   25   26 ar
  49   25   51 1
  50   27   28 1
  51   27   32 1
  52   28   29 1
  53   28   52 1
  54   28   53 1
  55   29   30 1
  56   29   54 1
  57   29   55 1
  58   30   31 1
  59   31   32 1
  60   31   56 1
  61   31   57 1
  62   32   58 1
  63   32   59 1

#	End of record

