#	Name: ASD00131010
#	Creating user name:	WinNT
#	Creation time:	15. 06. 2019 18:31

#	Modifying user name:	WinNT
#	Modification time:	15. 06. 2019 18:31

#	Program:	/corina/corina34_cracker 3.40 0067  02.08.2006

@<TRIPOS>MOLECULE
ASD00131010
  61   66    0    0    0
SMALL
NO_CHARGES


@<TRIPOS>ATOM
   1 N1             0.0806     1.4909    -0.0259 N.am    
   2 C2            -0.0790     0.1604    -0.1253 C.2     
   3 C3             1.0747    -0.7378    -0.1024 C.2     
   4 C4             2.3551    -0.1942     0.0246 C.2     
   5 C5             2.4838     1.2630     0.1298 C.ar    
   6 C6             3.7435     1.8592     0.2592 C.ar    
   7 C7             3.8453     3.2177     0.3564 C.ar    
   8 C8             2.7081     4.0131     0.3277 C.ar    
   9 C9             1.4581     3.4475     0.2010 C.ar    
  10 C10            1.3290     2.0645     0.1008 C.ar    
  11 C11            0.8898    -2.1902    -0.2107 C.2     
  12 O12            1.8574    -2.9205    -0.3155 O.2     
  13 N13           -0.3517    -2.7146    -0.1941 N.am    
  14 O14           -1.1999    -0.3038    -0.2357 O.2     
  15 O15            3.4452    -0.9890     0.0504 O.3     
  16 C16           -1.1016     2.3555    -0.0589 C.3     
  17 C17           -1.2304     3.3318    -1.2300 C.3     
  18 C18           -2.1339     2.0991    -1.1587 C.3     
  19 N19           -1.7179    -5.3515     1.5963 N.3     
  20 C20           -0.4528    -4.6916     1.2469 C.3     
  21 C21           -0.5327    -4.1684    -0.1901 C.3     
  22 C22           -1.9105    -4.5163    -0.7676 C.3     
  23 C23           -2.9875    -3.8723     0.1146 C.3     
  24 C24           -2.8399    -4.4042     1.5429 C.3     
  25 C25           -1.9664    -6.5104     0.7276 C.3     
  26 C26           -2.0887    -6.0392    -0.7243 C.3     
  27 C27           -0.2060    -3.5226     2.2027 C.3     
  28 C28           -0.0077    -4.0499     3.6005 C.ar    
  29 C29            1.1362    -3.7155     4.3009 C.ar    
  30 C30            1.3087    -4.2054     5.5862 C.ar    
  31 C31            0.3198    -5.0170     6.1214 C.ar    
  32 C32           -0.7968    -5.3084     5.3612 C.ar    
  33 N33           -0.9298    -4.8204     4.1432 N.ar    
  34 H34            4.6327     1.2466     0.2826 H       
  35 H35            4.8178     3.6766     0.4566 H       
  36 H36            2.8039     5.0860     0.4059 H       
  37 H37            0.5798     4.0756     0.1802 H       
  38 H38           -1.1252    -2.1295    -0.1847 H       
  39 H39            3.2424    -1.9345     0.0597 H       
  40 H40           -1.4717     2.6833     0.9125 H       
  41 H41           -1.6855     4.3016    -1.0290 H       
  42 H42           -0.4355     3.3307    -1.9758 H       
  43 H43           -1.9334     1.2871    -1.8577 H       
  44 H44           -3.1834     2.2580    -0.9109 H       
  45 H45            0.3653    -5.4073     1.3284 H       
  46 H46            0.2465    -4.6351    -0.7926 H       
  47 H47           -1.9927    -4.1466    -1.7897 H       
  48 H48           -2.8614    -2.7896     0.1132 H       
  49 H49           -3.9750    -4.1274    -0.2699 H       
  50 H50           -3.7584    -4.9111     1.8389 H       
  51 H51           -2.6473    -3.5737     2.2221 H       
  52 H52           -1.1378    -7.2133     0.8132 H       
  53 H53           -2.8920    -7.0000     1.0302 H       
  54 H54           -3.0727    -6.3029    -1.1121 H       
  55 H55           -1.3164    -6.5146    -1.3289 H       
  56 H56            0.6855    -2.9792     1.8895 H       
  57 H57           -1.0650    -2.8519     2.1859 H       
  58 H58            1.8861    -3.0809     3.8523 H       
  59 H59            2.1923    -3.9611     6.1570 H       
  60 H60            0.4212    -5.4166     7.1196 H       
  61 H61           -1.5714    -5.9397     5.7708 H       
@<TRIPOS>BOND
   1    1    2 am
   2    1   10 1
   3    1   16 1
   4    2    3 1
   5    2   14 2
   6    3    4 2
   7    3   11 1
   8    4    5 1
   9    4   15 1
  10    5    6 ar
  11    5   10 ar
  12    6    7 ar
  13    6   34 1
  14    7    8 ar
  15    7   35 1
  16    8    9 ar
  17    8   36 1
  18    9   10 ar
  19    9   37 1
  20   11   12 2
  21   11   13 am
  22   13   21 1
  23   13   38 1
  24   15   39 1
  25   16   17 1
  26   16   18 1
  27   16   40 1
  28   17   18 1
  29   17   41 1
  30   17   42 1
  31   18   43 1
  32   18   44 1
  33   19   20 1
  34   19   24 1
  35   19   25 1
  36   20   21 1
  37   20   27 1
  38   20   45 1
  39   21   22 1
  40   21   46 1
  41   22   23 1
  42   22   26 1
  43   22   47 1
  44   23   24 1
  45   23   48 1
  46   23   49 1
  47   24   50 1
  48   24   51 1
  49   25   26 1
  50   25   52 1
  51   25   53 1
  52   26   54 1
  53   26   55 1
  54   27   28 1
  55   27   56 1
  56   27   57 1
  57   28   29 ar
  58   28   33 ar
  59   29   30 ar
  60   29   58 1
  61   30   31 ar
  62   30   59 1
  63   31   32 ar
  64   31   60 1
  65   32   33 ar
  66   32   61 1

#	End of record

