#	Name: ASD02030501
#	Creating user name:	WinNT
#	Creation time:	15. 06. 2019 20:15

#	Modifying user name:	WinNT
#	Modification time:	15. 06. 2019 20:15

#	Program:	/corina/corina34_cracker 3.40 0067  02.08.2006

@<TRIPOS>MOLECULE
ASD02030501
  55   58    0    0    0
SMALL
NO_CHARGES


@<TRIPOS>ATOM
   1 N1            -0.0559     1.3158     0.3299 N.am    
   2 C2            -0.2479    -0.1411     0.3538 C.3     
   3 C3            -1.2910    -0.4804     1.4258 C.3     
   4 N4            -2.4626     0.3854     1.2318 N.am    
   5 C5            -2.2705     1.8422     1.2078 C.3     
   6 C6            -1.2283     2.1817     0.1414 C.3     
   7 C7             1.1726     1.8483     0.4836 C.2     
   8 C8             2.3218     0.9754     0.8043 C.2     
   9 N9             3.5396     1.3766     1.0989 N.2     
  10 N10            2.3051    -0.3693     0.8522 N.2     
  11 C11            3.5124    -0.7622     1.1697 C.2     
  12 N12            4.2735     0.3410     1.3209 N.pl3   
  13 O13            1.3357     3.0465     0.3585 O.2     
  14 C14           -3.6911    -0.1472     1.0780 C.2     
  15 C15           -3.8555    -1.6127     0.9943 C.2     
  16 O16           -4.6638     0.5787     1.0083 O.2     
  17 C17           -0.8128     3.6479     0.2778 C.3     
  18 C18           -1.8185     1.9389    -1.2491 C.3     
  19 C19            5.6329     0.3581     1.6613 C.ar    
  20 C20            6.3034     1.5671     1.7860 C.ar    
  21 C21            7.6443     1.5804     2.1224 C.ar    
  22 C22            8.3173     0.3900     2.3343 C.ar    
  23 C23            7.6510    -0.8154     2.2106 C.ar    
  24 C24            6.3102    -0.8344     1.8803 C.ar    
  25 Cl25           8.4844     3.0916     2.2787 Cl      
  26 N26           -2.9156    -2.5190     1.1742 N.2     
  27 N27           -3.4055    -3.6975     1.0278 N.pl3   
  28 C28           -4.7223    -3.6230     0.7377 C.2     
  29 C29           -5.0535    -2.3108     0.7118 C.2     
  30 C30           -2.6452    -4.9431     1.1570 C.3     
  31 C31           -1.4399    -4.9048     0.2153 C.3     
  32 H32           -0.6011    -0.4795    -0.6203 H       
  33 H33            0.6959    -0.6306     0.5938 H       
  34 H34           -1.5879    -1.5247     1.3297 H       
  35 H35           -0.8681    -0.3072     2.4154 H       
  36 H36           -3.2144     2.3318     0.9678 H       
  37 H37           -1.9174     2.1807     2.1819 H       
  38 H38            3.8391    -1.7843     1.2916 H       
  39 H39           -0.2861     3.7900     1.2215 H       
  40 H40           -0.1560     3.9179    -0.5491 H       
  41 H41           -1.7004     4.2804     0.2583 H       
  42 H42           -2.6962     2.5704    -1.3866 H       
  43 H43           -1.0740     2.1815    -2.0073 H       
  44 H44           -2.1059     0.8918    -1.3440 H       
  45 H45            5.7783     2.4961     1.6199 H       
  46 H46            9.3649     0.4024     2.5964 H       
  47 H47            8.1789    -1.7429     2.3762 H       
  48 H48            5.7907    -1.7764     1.7843 H       
  49 H49           -5.3879    -4.4554     0.5630 H       
  50 H50           -6.0259    -1.8859     0.5110 H       
  51 H51           -2.2998    -5.0529     2.1850 H       
  52 H52           -3.2835    -5.7872     0.8961 H       
  53 H53           -0.8016    -4.0607     0.4763 H       
  54 H54           -0.8742    -5.8315     0.3115 H       
  55 H55           -1.7853    -4.7950    -0.8126 H       
@<TRIPOS>BOND
   1    1    2 1
   2    1    7 am
   3    1    6 1
   4    2    3 1
   5    2   32 1
   6    2   33 1
   7    3    4 1
   8    3   34 1
   9    3   35 1
  10    4    5 1
  11    4   14 am
  12    5    6 1
  13    5   36 1
  14    5   37 1
  15    6   17 1
  16    6   18 1
  17    7    8 1
  18    7   13 2
  19    8    9 2
  20    8   10 1
  21    9   12 1
  22   10   11 2
  23   11   12 1
  24   11   38 1
  25   12   19 1
  26   14   15 1
  27   14   16 2
  28   15   26 2
  29   15   29 1
  30   17   39 1
  31   17   40 1
  32   17   41 1
  33   18   42 1
  34   18   43 1
  35   18   44 1
  36   19   20 ar
  37   19   24 ar
  38   20   21 ar
  39   20   45 1
  40   21   22 ar
  41   21   25 1
  42   22   23 ar
  43   22   46 1
  44   23   24 ar
  45   23   47 1
  46   24   48 1
  47   26   27 1
  48   27   28 1
  49   27   30 1
  50   28   29 2
  51   28   49 1
  52   29   50 1
  53   30   31 1
  54   30   51 1
  55   30   52 1
  56   31   53 1
  57   31   54 1
  58   31   55 1

#	End of record

