#	Name: ASD03092299
#	Creating user name:	WinNT
#	Creation time:	15. 06. 2019 20:32

#	Modifying user name:	WinNT
#	Modification time:	15. 06. 2019 20:32

#	Program:	/corina/corina34_cracker 3.40 0067  02.08.2006

@<TRIPOS>MOLECULE
ASD03092299
  59   62    0    0    0
SMALL
NO_CHARGES


@<TRIPOS>ATOM
   1 C1             0.3381     1.9860     0.1444 C.2     
   2 C2             0.5502     0.5257     0.2226 C.ar    
   3 C3             1.8466     0.0044     0.2343 C.ar    
   4 C4             2.0367    -1.3616     0.3081 C.ar    
   5 C5             0.9476    -2.2119     0.3699 C.ar    
   6 C6            -0.3386    -1.7015     0.3583 C.ar    
   7 C7            -0.5434    -0.3390     0.2911 C.ar    
   8 O8             1.2926     2.7368     0.0899 O.2     
   9 N9            -0.9137     2.4852     0.1277 N.am    
  10 C10           -1.1240     3.9330     0.0501 C.3     
  11 S11           -4.9831     4.7269    -0.6389 S.3     
  12 C12           -4.5795     4.5790     1.0156 C.2     
  13 N13           -3.3130     4.3222     1.1493 N.2     
  14 C14           -2.6022     4.2264     0.0467 C.2     
  15 C15           -3.3087     4.4131    -1.0878 C.2     
  16 C16           -2.5481     5.2845    -4.6608 C.ar    
  17 C17           -3.0704     5.3713    -3.3885 C.ar    
  18 C18           -2.7731     4.3627    -2.4622 C.ar    
  19 C19           -1.9528     3.3052    -2.8774 C.ar    
  20 C20           -1.4745     3.2988    -4.1697 C.ar    
  21 N21           -1.7790     4.2700    -5.0105 N.ar    
  22 C22           -0.5913     2.1676    -4.6296 C.3     
  23 C23           -2.8648     6.3590    -5.6689 C.3     
  24 N24           -5.4733     4.7138     2.0623 N.3     
  25 C25           -6.8266     5.0025     1.5656 C.3     
  26 C26           -7.7691     5.2028     2.7553 C.3     
  27 O27           -7.7340     4.0391     3.5860 O.3     
  28 C28           -6.4312     3.7289     4.0877 C.3     
  29 C29           -5.4751     3.5138     2.9115 C.3     
  30 C30           -6.4987     2.4542     4.9311 C.3     
  31 C31           -9.1947     5.4242     2.2460 C.3     
  32 Cl32           3.2143     1.0706     0.1556 Cl      
  33 H33            3.0379    -1.7667     0.3173 H       
  34 H34            1.1017    -3.2793     0.4272 H       
  35 H35           -1.1843    -2.3715     0.4064 H       
  36 H36           -1.5479     0.0576     0.2867 H       
  37 H37           -1.6754     1.8859     0.1671 H       
  38 H38           -0.6600     4.4142     0.9111 H       
  39 H39           -0.6753     4.3167    -0.8661 H       
  40 H40           -3.6986     6.2043    -3.1094 H       
  41 H41           -1.6990     2.5076    -2.1948 H       
  42 H42           -1.2081     1.3707    -5.0449 H       
  43 H43            0.0960     2.5308    -5.3937 H       
  44 H44           -0.0228     1.7832    -3.7827 H       
  45 H45           -2.1137     7.1466    -5.6085 H       
  46 H46           -2.8611     5.9296    -6.6708 H       
  47 H47           -3.8485     6.7778    -5.4567 H       
  48 H48           -6.8065     5.9090     0.9605 H       
  49 H49           -7.1777     4.1673     0.9596 H       
  50 H50           -7.4487     6.0709     3.3313 H       
  51 H51           -6.0719     4.5542     4.7025 H       
  52 H52           -5.8047     2.6548     2.3270 H       
  53 H53           -4.4686     3.3334     3.2889 H       
  54 H54           -6.8562     1.6293     4.3148 H       
  55 H55           -5.5055     2.2183     5.3132 H       
  56 H56           -7.1824     2.6067     5.7661 H       
  57 H57           -9.5146     4.5547     1.6719 H       
  58 H58           -9.8653     5.5667     3.0935 H       
  59 H59           -9.2200     6.3090     1.6099 H       
@<TRIPOS>BOND
   1    1    2 1
   2    1    8 2
   3    1    9 am
   4    2    3 ar
   5    2    7 ar
   6    3    4 ar
   7    3   32 1
   8    4    5 ar
   9    4   33 1
  10    5    6 ar
  11    5   34 1
  12    6    7 ar
  13    6   35 1
  14    7   36 1
  15    9   10 1
  16    9   37 1
  17   10   14 1
  18   10   38 1
  19   10   39 1
  20   11   12 1
  21   11   15 1
  22   12   13 2
  23   12   24 1
  24   13   14 1
  25   14   15 2
  26   15   18 1
  27   16   17 ar
  28   16   21 ar
  29   16   23 1
  30   17   18 ar
  31   17   40 1
  32   18   19 ar
  33   19   20 ar
  34   19   41 1
  35   20   21 ar
  36   20   22 1
  37   22   42 1
  38   22   43 1
  39   22   44 1
  40   23   45 1
  41   23   46 1
  42   23   47 1
  43   24   25 1
  44   24   29 1
  45   25   26 1
  46   25   48 1
  47   25   49 1
  48   26   27 1
  49   26   31 1
  50   26   50 1
  51   27   28 1
  52   28   29 1
  53   28   30 1
  54   28   51 1
  55   29   52 1
  56   29   53 1
  57   30   54 1
  58   30   55 1
  59   30   56 1
  60   31   57 1
  61   31   58 1
  62   31   59 1

#	End of record

