#	Name: ASD01910149
#	Creating user name:	WinNT
#	Creation time:	15. 06. 2019 19:55

#	Modifying user name:	WinNT
#	Modification time:	15. 06. 2019 19:55

#	Program:	/corina/corina34_cracker 3.40 0067  02.08.2006

@<TRIPOS>MOLECULE
ASD01910149
  33   35    0    0    0
SMALL
NO_CHARGES


@<TRIPOS>ATOM
   1 C1             0.3390     2.4669    -1.3208 C.ar    
   2 C2             0.1497     1.0964    -1.3097 C.ar    
   3 N3             1.1600     0.2760    -1.1098 N.ar    
   4 C4             2.3923     0.7251    -0.9125 C.ar    
   5 C5             2.6557     2.0927    -0.9112 C.ar    
   6 C6             1.6121     2.9791    -1.1185 C.ar    
   7 C7             3.4998    -0.2377    -0.6908 C.ar    
   8 N8             3.2209    -1.5285    -0.5788 N.ar    
   9 C9             4.1816    -2.4182    -0.3805 C.ar    
  10 C10            5.4919    -1.9894    -0.2898 C.ar    
  11 C11            5.7559    -0.6219    -0.4117 C.ar    
  12 N12            4.7433     0.2143    -0.6151 N.ar    
  13 C13            3.8492    -3.8827    -0.2546 C.3     
  14 S14            7.4073    -0.0170    -0.3045 S.3     
  15 C15            7.2072     1.1970     0.9568 C.ar    
  16 C16            8.2564     2.0506     1.2740 C.ar    
  17 C17            8.0967     3.0010     2.2629 C.ar    
  18 C18            6.8930     3.1034     2.9383 C.ar    
  19 C19            5.8462     2.2540     2.6248 C.ar    
  20 C20            5.9980     1.3061     1.6322 C.ar    
  21 Cl21           6.6960     4.2990     4.1814 Cl      
  22 H22           -0.4956     3.1313    -1.4897 H       
  23 H23           -0.8402     0.6941    -1.4669 H       
  24 H24            3.6596     2.4568    -0.7500 H       
  25 H25            1.7857     4.0450    -1.1233 H       
  26 H26            6.2939    -2.6944    -0.1280 H       
  27 H27            3.8755    -4.3473    -1.2403 H       
  28 H28            4.5789    -4.3664     0.3946 H       
  29 H29            2.8527    -3.9936     0.1728 H       
  30 H30            9.1961     1.9708     0.7478 H       
  31 H31            8.9119     3.6649     2.5099 H       
  32 H32            4.9081     2.3359     3.1537 H       
  33 H33            5.1806     0.6438     1.3878 H       
@<TRIPOS>BOND
   1    1    2 ar
   2    1    6 ar
   3    1   22 1
   4    2    3 ar
   5    2   23 1
   6    3    4 ar
   7    4    5 ar
   8    4    7 1
   9    5    6 ar
  10    5   24 1
  11    6   25 1
  12    7    8 ar
  13    7   12 ar
  14    8    9 ar
  15    9   10 ar
  16    9   13 1
  17   10   11 ar
  18   10   26 1
  19   11   12 ar
  20   11   14 1
  21   13   27 1
  22   13   28 1
  23   13   29 1
  24   14   15 1
  25   15   16 ar
  26   15   20 ar
  27   16   17 ar
  28   16   30 1
  29   17   18 ar
  30   17   31 1
  31   18   19 ar
  32   18   21 1
  33   19   20 ar
  34   19   32 1
  35   20   33 1

#	End of record

