#	Name: ASD01882307
#	Creating user name:	WinNT
#	Creation time:	15. 06. 2019 19:44

#	Modifying user name:	WinNT
#	Modification time:	15. 06. 2019 19:44

#	Program:	/corina/corina34_cracker 3.40 0067  02.08.2006

@<TRIPOS>MOLECULE
ASD01882307
  44   47    0    0    0
SMALL
NO_CHARGES


@<TRIPOS>ATOM
   1 C1             1.5484     1.4579    -1.0838 C.2     
   2 C2             1.6032     0.0534    -1.1156 C.2     
   3 C3             1.2066    -0.6546    -0.0130 C.2     
   4 C4             0.7515     0.0354     1.1313 C.2     
   5 C5             0.7072     1.3822     1.1399 C.2     
   6 N6             1.1002     2.0975     0.0463 N.pl3   
   7 N7             1.6255     3.5578    -1.4478 N.2     
   8 N8             1.8579     2.4009    -1.9607 N.2     
   9 C9             1.1652     3.4314    -0.2310 C.2     
  10 C10            0.7792     4.5543     0.6970 C.3     
  11 C11            1.9966     4.9750     1.5226 C.3     
  12 F12            3.0145     5.4072     0.6657 F       
  13 F13            1.6383     6.0174     2.3841 F       
  14 F14            2.4504     3.8849     2.2731 F       
  15 N15            1.2514    -2.0467    -0.0204 N.pl3   
  16 C16            2.5313    -2.7602    -0.1465 C.3     
  17 C17            2.6246    -3.7953     0.9796 C.3     
  18 N18            1.4311    -4.6513     0.9536 N.3     
  19 C19            0.2121    -3.8741     1.2140 C.3     
  20 C20            0.0205    -2.8422     0.1037 C.3     
  21 C21            1.5536    -5.7084     1.8582 C.ar    
  22 C22            0.5280    -6.6364     1.9874 C.ar    
  23 C23            0.6525    -7.6807     2.8825 C.ar    
  24 C24            1.7966    -7.8032     3.6497 C.ar    
  25 C25            2.8194    -6.8812     3.5236 C.ar    
  26 C26            2.7036    -5.8374     2.6266 C.ar    
  27 Cl27           2.1662    -0.7725    -2.5350 Cl      
  28 H28            0.4372    -0.5184     2.0036 H       
  29 H29            0.3571     1.9003     2.0204 H       
  30 H30            0.4256     5.4035     0.1123 H       
  31 H31           -0.0139     4.2175     1.3646 H       
  32 H32            2.5760    -3.2643    -1.1119 H       
  33 H33            3.3553    -2.0517    -0.0618 H       
  34 H34            3.5149    -4.4080     0.8376 H       
  35 H35            2.6843    -3.2834     1.9401 H       
  36 H36           -0.6473    -4.5440     1.2420 H       
  37 H37            0.3053    -3.3612     2.1713 H       
  38 H38           -0.8147    -2.1880     0.3537 H       
  39 H39           -0.1808    -3.3544    -0.8372 H       
  40 H40           -0.3659    -6.5412     1.3888 H       
  41 H41           -0.1446    -8.4024     2.9837 H       
  42 H42            1.8912    -8.6206     4.3492 H       
  43 H43            3.7115    -6.9797     4.1242 H       
  44 H44            3.5047    -5.1202     2.5254 H       
@<TRIPOS>BOND
   1    1    2 1
   2    1    6 1
   3    1    8 2
   4    2    3 2
   5    2   27 1
   6    3    4 1
   7    3   15 1
   8    4    5 2
   9    4   28 1
  10    5    6 1
  11    5   29 1
  12    6    9 1
  13    7    8 1
  14    7    9 2
  15    9   10 1
  16   10   11 1
  17   10   30 1
  18   10   31 1
  19   11   12 1
  20   11   13 1
  21   11   14 1
  22   15   16 1
  23   15   20 1
  24   16   17 1
  25   16   32 1
  26   16   33 1
  27   17   18 1
  28   17   34 1
  29   17   35 1
  30   18   19 1
  31   18   21 1
  32   19   20 1
  33   19   36 1
  34   19   37 1
  35   20   38 1
  36   20   39 1
  37   21   22 ar
  38   21   26 ar
  39   22   23 ar
  40   22   40 1
  41   23   24 ar
  42   23   41 1
  43   24   25 ar
  44   24   42 1
  45   25   26 ar
  46   25   43 1
  47   26   44 1

#	End of record

