#	Name: ASD01120228
#	Creating user name:	WinNT
#	Creation time:	15. 06. 2019 18:59

#	Modifying user name:	WinNT
#	Modification time:	15. 06. 2019 18:59

#	Program:	/corina/corina34_cracker 3.40 0067  02.08.2006

@<TRIPOS>MOLECULE
ASD01120228
  55   56    0    0    0
SMALL
NO_CHARGES


@<TRIPOS>ATOM
   1 C1            -0.0167     1.3779     0.0096 C.ar    
   2 C2             0.0021    -0.0041     0.0020 C.ar    
   3 C3            -1.1857    -0.7116     0.0095 C.ar    
   4 C4            -2.3919    -0.0369     0.0251 C.ar    
   5 C5            -2.4106     1.3455     0.0336 C.ar    
   6 C6            -1.2232     2.0528     0.0305 C.ar    
   7 S7            -3.9483     2.2057     0.0529 S.o2    
   8 N8            -4.3616     2.4354     1.6399 N.am    
   9 C9            -3.6009     3.2212     2.4274 C.2     
  10 N10           -3.9372     3.4082     3.7191 N.am    
  11 O11           -3.6934     3.4955    -0.4862 O.2     
  12 O12           -4.9136     1.3142    -0.4882 O.2     
  13 O13           -2.6111     3.7615     1.9726 O.2     
  14 C14           -1.8025    10.4847     9.9865 C.ar    
  15 C15           -2.8906    11.2454    10.3709 C.ar    
  16 C16           -3.8946    10.6794    11.1346 C.ar    
  17 C17           -3.8101     9.3530    11.5137 C.ar    
  18 C18           -2.7216     8.5921    11.1292 C.ar    
  19 C19           -1.7208     9.1563    10.3610 C.ar    
  20 S20           -2.6140     6.9011    11.6125 S.o2    
  21 N21           -3.3472     6.0052    10.4284 N.am    
  22 C22           -2.8204     5.9675     9.1884 C.2     
  23 N23           -3.4171     5.2383     8.2247 N.am    
  24 O24           -1.2348     6.5607    11.5772 O.2     
  25 O25           -3.4188     6.7641    12.7756 O.2     
  26 O26           -1.8069     6.5912     8.9391 O.2     
  27 C27           -2.8446     5.1973     6.8768 C.3     
  28 C28           -3.7082     4.3052     5.9828 C.3     
  29 C29           -0.7082    11.1017     9.1541 C.3     
  30 C30            1.2780     2.1491     0.0014 C.3     
  31 C31           -3.1103     4.2624     4.5751 C.3     
  32 H32            0.9446    -0.5313    -0.0101 H       
  33 H33           -1.1711    -1.7915     0.0029 H       
  34 H34           -3.3198    -0.5895     0.0302 H       
  35 H35           -1.2378     3.1327     0.0372 H       
  36 H36           -5.1512     2.0044     2.0027 H       
  37 H37           -4.7269     2.9772     4.0819 H       
  38 H38           -2.9564    12.2820    10.0749 H       
  39 H39           -4.7445    11.2740    11.4355 H       
  40 H40           -4.5940     8.9110    12.1108 H       
  41 H41           -0.8705     8.5620    10.0606 H       
  42 H42           -4.1557     5.5076    10.6272 H       
  43 H43           -4.2257     4.7407     8.4235 H       
  44 H44           -2.8149     6.2056     6.4638 H       
  45 H45           -1.8331     4.7940     6.9238 H       
  46 H46           -3.7379     3.2969     6.3958 H       
  47 H47           -4.7198     4.7085     5.9357 H       
  48 H48            0.0515    11.5268     9.8101 H       
  49 H49           -0.2563    10.3363     8.5232 H       
  50 H50           -1.1281    11.8881     8.5271 H       
  51 H51            1.5804     2.3405    -1.0282 H       
  52 H52            1.1397     3.0969     0.5217 H       
  53 H53            2.0505     1.5677     0.5048 H       
  54 H54           -2.0987     3.8591     4.6222 H       
  55 H55           -3.0806     5.2707     4.1621 H       
@<TRIPOS>BOND
   1    1    2 ar
   2    1   30 1
   3    1    6 ar
   4    2    3 ar
   5    2   32 1
   6    3    4 ar
   7    3   33 1
   8    4    5 ar
   9    4   34 1
  10    5    6 ar
  11    5    7 1
  12    6   35 1
  13    7    8 am
  14    7   11 2
  15    7   12 2
  16    8    9 am
  17    8   36 1
  18    9   10 am
  19    9   13 2
  20   10   31 1
  21   10   37 1
  22   14   15 ar
  23   14   29 1
  24   14   19 ar
  25   15   16 ar
  26   15   38 1
  27   16   17 ar
  28   16   39 1
  29   17   18 ar
  30   17   40 1
  31   18   19 ar
  32   18   20 1
  33   19   41 1
  34   20   21 am
  35   20   24 2
  36   20   25 2
  37   21   22 am
  38   21   42 1
  39   22   23 am
  40   22   26 2
  41   23   27 1
  42   23   43 1
  43   27   28 1
  44   27   44 1
  45   27   45 1
  46   28   31 1
  47   28   46 1
  48   28   47 1
  49   29   48 1
  50   29   49 1
  51   29   50 1
  52   30   51 1
  53   30   52 1
  54   30   53 1
  55   31   54 1
  56   31   55 1

#	End of record

