#	Name: ASD01913260
#	Creating user name:	WinNT
#	Creation time:	15. 06. 2019 20:01

#	Modifying user name:	WinNT
#	Modification time:	15. 06. 2019 20:01

#	Program:	/corina/corina34_cracker 3.40 0067  02.08.2006

@<TRIPOS>MOLECULE
ASD01913260
  46   49    0    0    0
SMALL
NO_CHARGES


@<TRIPOS>ATOM
   1 N1             5.2346     8.3060     2.0985 N.ar    
   2 C2             6.3799     8.9518     2.1031 C.ar    
   3 C3             7.2722     8.8125     1.0564 C.ar    
   4 C4             6.9359     7.9841    -0.0005 C.ar    
   5 C5             5.7143     7.3193     0.0307 C.ar    
   6 C6             5.3599     6.4337    -1.1356 C.3     
   7 N7             4.1818     5.6257    -0.8013 N.am    
   8 C8             3.0626     6.3084    -0.1312 C.3     
   9 C9             3.5529     6.7889     1.2337 C.3     
  10 C10            4.8775     7.4964     1.1086 C.ar    
  11 C11            4.1265     4.3116    -1.0953 C.2     
  12 O12            3.1872     3.6420    -0.7119 O.2     
  13 C13            5.2084     3.6843    -1.8842 C.ar    
  14 C14            5.8409     4.4029    -2.8963 C.ar    
  15 C15            6.8608     3.8035    -3.6353 C.ar    
  16 C16            7.2410     2.4871    -3.3554 C.ar    
  17 C17            6.6092     1.7822    -2.3510 C.ar    
  18 C18            5.6022     2.3721    -1.6124 C.ar    
  19 C19            8.3423     1.8368    -4.1524 C.3     
  20 F20            8.5418     0.5306    -3.6928 F       
  21 F21            7.9837     1.8058    -5.5043 F       
  22 F22            9.5238     2.5703    -4.0001 F       
  23 C23            7.5165     4.5340    -4.6779 C.1     
  24 C24            8.0541     5.1329    -5.5326 C.1     
  25 C25            8.7098     5.8634    -6.5753 C.ar    
  26 C26            9.7308     5.2563    -7.3113 C.ar    
  27 C27           10.3535     5.9754    -8.3151 C.ar    
  28 C28            9.9379     7.2787    -8.5533 C.ar    
  29 C29            8.9210     7.8186    -7.7873 C.ar    
  30 N30            8.3392     7.1125    -6.8397 N.ar    
  31 H31            6.6259     9.5979     2.9328 H       
  32 H32            8.2143     9.3405     1.0630 H       
  33 H33            7.6098     7.8565    -0.8347 H       
  34 H34            5.1410     7.0513    -2.0067 H       
  35 H35            6.1994     5.7756    -1.3598 H       
  36 H36            2.7406     7.1615    -0.7284 H       
  37 H37            2.2323     5.6143    -0.0011 H       
  38 H38            2.8190     7.4745     1.6572 H       
  39 H39            3.6654     5.9310     1.8966 H       
  40 H40            5.5427     5.4190    -3.1080 H       
  41 H41            6.9065     0.7658    -2.1389 H       
  42 H42            5.1153     1.8160    -0.8249 H       
  43 H43           10.0295     4.2403    -7.0991 H       
  44 H44           11.1460     5.5331    -8.9006 H       
  45 H45           10.4051     7.8659    -9.3301 H       
  46 H46            8.5966     8.8322    -7.9713 H       
@<TRIPOS>BOND
   1    1    2 ar
   2    1   10 ar
   3    2    3 ar
   4    2   31 1
   5    3    4 ar
   6    3   32 1
   7    4    5 ar
   8    4   33 1
   9    5    6 1
  10    5   10 ar
  11    6    7 1
  12    6   34 1
  13    6   35 1
  14    7    8 1
  15    7   11 am
  16    8    9 1
  17    8   36 1
  18    8   37 1
  19    9   10 1
  20    9   38 1
  21    9   39 1
  22   11   12 2
  23   11   13 1
  24   13   14 ar
  25   13   18 ar
  26   14   15 ar
  27   14   40 1
  28   15   16 ar
  29   15   23 1
  30   16   17 ar
  31   16   19 1
  32   17   18 ar
  33   17   41 1
  34   18   42 1
  35   19   20 1
  36   19   21 1
  37   19   22 1
  38   23   24 3
  39   24   25 1
  40   25   26 ar
  41   25   30 ar
  42   26   27 ar
  43   26   43 1
  44   27   28 ar
  45   27   44 1
  46   28   29 ar
  47   28   45 1
  48   29   30 ar
  49   29   46 1

#	End of record

