#	Name: ASD05430399
#	Creating user name:	WinNT
#	Creation time:	15. 06. 2019 21:00

#	Modifying user name:	WinNT
#	Modification time:	15. 06. 2019 21:00

#	Program:	/corina/corina34_cracker 3.40 0067  02.08.2006

@<TRIPOS>MOLECULE
ASD05430399
  61   65    0    0    0
SMALL
NO_CHARGES


@<TRIPOS>ATOM
   1 C1            -0.2768     1.9393    -1.8400 C.ar    
   2 C2            -0.0916     0.6125    -1.4498 C.ar    
   3 C3            -1.1713    -0.1431    -1.0084 C.ar    
   4 C4            -2.4294     0.4136    -0.9539 C.ar    
   5 C5            -2.6233     1.7446    -1.3434 C.ar    
   6 C6            -1.5346     2.5071    -1.7825 C.ar    
   7 C7            -5.0148     1.6038    -0.8567 C.2     
   8 C8            -3.9648     2.3408    -1.2862 C.2     
   9 C9            -6.3070     2.1781    -0.8016 C.2     
  10 O10            0.7819     2.6749    -2.2716 O.3     
  11 C11            0.5196     4.0262    -2.6554 C.3     
  12 C12            1.8120    -0.6494    -0.4982 C.2     
  13 N13            1.1850     0.0409    -1.5034 N.pl3   
  14 C14            3.0162    -1.0209    -0.9725 C.2     
  15 N15            3.1270    -0.5726    -2.2319 N.2     
  16 C16            2.0370     0.0649    -2.5616 C.2     
  17 C17            4.0595    -1.8045    -0.2184 C.3     
  18 N18           -7.4350     1.4899    -0.4904 N.pl3   
  19 C19           -8.5179     2.4926    -0.3825 C.3     
  20 C20           -7.8495     3.7579    -0.8689 C.2     
  21 N21           -6.5648     3.4547    -1.0417 N.2     
  22 O22           -8.3777     4.8361    -1.0592 O.2     
  23 C23           -7.6543     0.0501    -0.3445 C.3     
  24 C24           -8.8193    -0.3290    -1.2729 C.3     
  25 C25          -10.0048     0.6027    -1.0214 C.3     
  26 C26           -9.6294     2.0534    -1.3404 C.3     
  27 C27           -9.0080     2.6336     1.0356 C.ar    
  28 C28          -10.0208     3.5271     1.3307 C.ar    
  29 C29           -8.4484     1.8653     2.0394 C.ar    
  30 C30           -8.8976     1.9931     3.3400 C.ar    
  31 C31           -9.9083     2.8915     3.6377 C.ar    
  32 C32          -10.4714     3.6570     2.6307 C.ar    
  33 F33          -10.3483     3.0173     4.9088 F       
  34 C34           -6.3928    -0.7130    -0.7534 C.3     
  35 H35           -1.0231    -1.1698    -0.7077 H       
  36 H36           -3.2667    -0.1763    -0.6111 H       
  37 H37           -1.6792     3.5341    -2.0836 H       
  38 H38           -4.8669     0.5771    -0.5560 H       
  39 H39           -4.1127     3.3675    -1.5869 H       
  40 H40            0.1104     4.5724    -1.8055 H       
  41 H41            1.4472     4.4987    -2.9785 H       
  42 H42           -0.1989     4.0382    -3.4750 H       
  43 H43            1.4176    -0.8522     0.4865 H       
  44 H44            1.8444     0.5330    -3.5156 H       
  45 H45            3.9035    -2.8705    -0.3843 H       
  46 H46            5.0514    -1.5231    -0.5721 H       
  47 H47            3.9782    -1.5868     0.8465 H       
  48 H48           -7.9119    -0.1832     0.6886 H       
  49 H49           -8.5001    -0.2373    -2.3111 H       
  50 H50           -9.1192    -1.3583    -1.0763 H       
  51 H51          -10.8397     0.3004    -1.6536 H       
  52 H52          -10.3027     0.5306     0.0247 H       
  53 H53          -10.5009     2.6945    -1.2082 H       
  54 H54           -9.2743     2.1218    -2.3687 H       
  55 H55          -10.4599     4.1241     0.5450 H       
  56 H56           -7.6600     1.1647     1.8070 H       
  57 H57           -8.4607     1.3923     4.1240 H       
  58 H58          -11.2596     4.3582     2.8617 H       
  59 H59           -5.6438    -0.6250     0.0336 H       
  60 H60           -6.6375    -1.7641    -0.9062 H       
  61 H61           -5.9983    -0.2935    -1.6789 H       
@<TRIPOS>BOND
   1    1    2 ar
   2    1   10 1
   3    1    6 ar
   4    2    3 ar
   5    2   13 1
   6    3    4 ar
   7    3   35 1
   8    4    5 ar
   9    4   36 1
  10    5    6 ar
  11    5    8 1
  12    6   37 1
  13    7    8 2
  14    7    9 1
  15    7   38 1
  16    8   39 1
  17    9   18 1
  18    9   21 2
  19   10   11 1
  20   11   40 1
  21   11   41 1
  22   11   42 1
  23   12   13 1
  24   12   14 2
  25   12   43 1
  26   13   16 1
  27   14   15 1
  28   14   17 1
  29   15   16 2
  30   16   44 1
  31   17   45 1
  32   17   46 1
  33   17   47 1
  34   18   19 1
  35   18   23 1
  36   19   20 1
  37   19   27 1
  38   19   26 1
  39   20   21 1
  40   20   22 2
  41   23   24 1
  42   23   34 1
  43   23   48 1
  44   24   25 1
  45   24   49 1
  46   24   50 1
  47   25   26 1
  48   25   51 1
  49   25   52 1
  50   26   53 1
  51   26   54 1
  52   27   28 ar
  53   27   29 ar
  54   28   32 ar
  55   28   55 1
  56   29   30 ar
  57   29   56 1
  58   30   31 ar
  59   30   57 1
  60   31   32 ar
  61   31   33 1
  62   32   58 1
  63   34   59 1
  64   34   60 1
  65   34   61 1

#	End of record

