#	Name: ASD01350042
#	Creating user name:	WinNT
#	Creation time:	15. 06. 2019 19:16

#	Modifying user name:	WinNT
#	Modification time:	15. 06. 2019 19:16

#	Program:	/corina/corina34_cracker 3.40 0067  02.08.2006

@<TRIPOS>MOLECULE
ASD01350042
  49   52    0    0    0
SMALL
NO_CHARGES


@<TRIPOS>ATOM
   1 C1             0.0266     1.7642     0.1948 C.ar    
   2 C2            -0.0736     0.3859     0.1698 C.ar    
   3 C3             1.0686    -0.3870     0.0894 C.ar    
   4 C4             2.3144     0.2144     0.0343 C.ar    
   5 C5             2.4147     1.5932     0.0594 C.ar    
   6 C6             1.2688     2.3661     0.1394 C.ar    
   7 C7             3.6961    -0.3974    -0.0551 C.3     
   8 C8             4.6167     0.7504    -0.5212 C.3     
   9 C9             3.8705     2.0016    -0.0115 C.3     
  10 C10            5.9973     0.6382     0.1287 C.3     
  11 C11            6.6740    -0.6226    -0.3440 C.ar    
  12 C12            6.6614    -1.7531     0.4508 C.ar    
  13 C13            7.2816    -2.9102     0.0177 C.ar    
  14 C14            7.9153    -2.9371    -1.2117 C.ar    
  15 C15            7.9283    -1.8056    -2.0078 C.ar    
  16 C16            7.3031    -0.6498    -1.5763 C.ar    
  17 N17            4.0419     3.1162    -0.9529 N.3     
  18 Cl18           7.3184     0.7702    -2.5748 Cl      
  19 Cl19           8.6945    -4.3900    -1.7552 Cl      
  20 C20            3.4854     2.7822    -2.2714 C.3     
  21 C21            3.6119     3.9942    -3.1974 C.3     
  22 N22            5.0263     4.3775    -3.3078 N.3     
  23 C23            5.5829     4.7114    -1.9894 C.3     
  24 C24            5.4563     3.4995    -1.0633 C.3     
  25 C25            5.1977     5.4920    -4.2493 C.3     
  26 H26           -0.8655     2.3700     0.2531 H       
  27 H27           -1.0439    -0.0863     0.2134 H       
  28 H28            0.9894    -1.4639     0.0699 H       
  29 H29            1.3463     3.4432     0.1586 H       
  30 H30            4.0120    -0.7625     0.9222 H       
  31 H31            3.7042    -1.2083    -0.7834 H       
  32 H32            4.6988     0.7642    -1.6080 H       
  33 H33            4.2333     2.2817     0.9775 H       
  34 H34            6.6015     1.5014    -0.1505 H       
  35 H35            5.8872     0.6070     1.2127 H       
  36 H36            6.1671    -1.7325     1.4108 H       
  37 H37            7.2717    -3.7932     0.6394 H       
  38 H38            8.4231    -1.8261    -2.9676 H       
  39 H39            4.0344     1.9415    -2.6956 H       
  40 H40            2.4342     2.5140    -2.1651 H       
  41 H41            3.2261     3.7394    -4.1845 H       
  42 H42            3.0405     4.8267    -2.7870 H       
  43 H43            6.6340     4.9797    -2.0957 H       
  44 H44            5.0338     5.5521    -1.5652 H       
  45 H45            5.8422     3.7542    -0.0762 H       
  46 H46            6.0278     2.6670    -1.4738 H       
  47 H47            4.6284     6.3534    -3.9001 H       
  48 H48            6.2536     5.7555    -4.3120 H       
  49 H49            4.8385     5.1941    -5.2343 H       
@<TRIPOS>BOND
   1    1    2 ar
   2    1    6 ar
   3    1   26 1
   4    2    3 ar
   5    2   27 1
   6    3    4 ar
   7    3   28 1
   8    4    5 ar
   9    4    7 1
  10    5    6 ar
  11    5    9 1
  12    6   29 1
  13    7    8 1
  14    7   30 1
  15    7   31 1
  16    8    9 1
  17    8   10 1
  18    8   32 1
  19    9   17 1
  20    9   33 1
  21   10   11 1
  22   10   34 1
  23   10   35 1
  24   11   12 ar
  25   11   16 ar
  26   12   13 ar
  27   12   36 1
  28   13   14 ar
  29   13   37 1
  30   14   15 ar
  31   14   19 1
  32   15   16 ar
  33   15   38 1
  34   16   18 1
  35   17   20 1
  36   17   24 1
  37   20   21 1
  38   20   39 1
  39   20   40 1
  40   21   22 1
  41   21   41 1
  42   21   42 1
  43   22   23 1
  44   22   25 1
  45   23   24 1
  46   23   43 1
  47   23   44 1
  48   24   45 1
  49   24   46 1
  50   25   47 1
  51   25   48 1
  52   25   49 1

#	End of record

