#	Name: ASD03180029
#	Creating user name:	WinNT
#	Creation time:	15. 06. 2019 20:33

#	Modifying user name:	WinNT
#	Modification time:	15. 06. 2019 20:33

#	Program:	/corina/corina34_cracker 3.40 0067  02.08.2006

@<TRIPOS>MOLECULE
ASD03180029
  51   53    0    0    0
SMALL
NO_CHARGES


@<TRIPOS>ATOM
   1 C1             7.4412     3.6373     1.7860 C.ar    
   2 C2             7.1998     4.9763     2.0304 C.ar    
   3 C3             5.9921     5.5392     1.6625 C.ar    
   4 C4             5.0260     4.7633     1.0497 C.ar    
   5 C5             5.2677     3.4246     0.8045 C.ar    
   6 C6             6.4749     2.8613     1.1737 C.ar    
   7 S7             4.0358     2.4353     0.0245 S.o2    
   8 O8             2.7829     3.0141     0.3627 O.2     
   9 N9             4.2143     2.6290    -1.6105 N.am    
  10 O10            4.3689     1.0831     0.3070 O.2     
  11 C11            3.4093     3.6247    -2.3223 C.3     
  12 C12            5.1773     1.8047    -2.3450 C.3     
  13 C13            4.4595     0.6456    -2.9871 C.ar    
  14 C14            4.1917     4.9065    -2.4481 C.2     
  15 N15            3.6470     5.9701    -3.0714 N.am    
  16 C16            4.4088     7.1281    -3.2759 C.ar    
  17 O17            5.3116     4.9811    -1.9883 O.2     
  18 C18            4.0098     0.7478    -4.2903 C.ar    
  19 C19            3.3514    -0.3149    -4.8798 C.ar    
  20 C20            3.1425    -1.4811    -4.1653 C.ar    
  21 C21            3.5928    -1.5828    -2.8611 C.ar    
  22 C22            4.2561    -0.5214    -2.2746 C.ar    
  23 C23            4.2326     7.8806    -4.4294 C.ar    
  24 C24            4.9834     9.0221    -4.6301 C.ar    
  25 C25            5.9134     9.4169    -3.6797 C.ar    
  26 C26            6.0903     8.6653    -2.5272 C.ar    
  27 C27            5.3361     7.5268    -2.3226 C.ar    
  28 Cl28           2.3152    -2.8162    -4.9049 Cl      
  29 O29            6.6524    10.5410    -3.8779 O.3     
  30 C30            7.5912    10.8884    -2.8582 C.3     
  31 H31            8.3865     3.1985     2.0694 H       
  32 H32            7.9546     5.5825     2.5091 H       
  33 H33            5.8032     6.5852     1.8541 H       
  34 H34            4.0821     5.2030     0.7629 H       
  35 H35            6.6636     1.8152     0.9824 H       
  36 H36            3.1634     3.2501    -3.3160 H       
  37 H37            2.4902     3.8130    -1.7674 H       
  38 H38            5.6574     2.4071    -3.1162 H       
  39 H39            5.9328     1.4275    -1.6558 H       
  40 H40            2.7276     5.9339    -3.3784 H       
  41 H41            4.1726     1.6584    -4.8478 H       
  42 H42            2.9998    -0.2348    -5.8978 H       
  43 H43            3.4301    -2.4929    -2.3029 H       
  44 H44            4.6115    -0.6023    -1.2580 H       
  45 H45            3.5088     7.5731    -5.1696 H       
  46 H46            4.8467     9.6073    -5.5275 H       
  47 H47            6.8150     8.9729    -1.7879 H       
  48 H48            5.4705     6.9444    -1.4231 H       
  49 H49            7.0639    11.0467    -1.9175 H       
  50 H50            8.3132    10.0806    -2.7385 H       
  51 H51            8.1127    11.8029    -3.1408 H       
@<TRIPOS>BOND
   1    1    2 ar
   2    1    6 ar
   3    1   31 1
   4    2    3 ar
   5    2   32 1
   6    3    4 ar
   7    3   33 1
   8    4    5 ar
   9    4   34 1
  10    5    6 ar
  11    5    7 1
  12    6   35 1
  13    7    8 2
  14    7    9 am
  15    7   10 2
  16    9   11 1
  17    9   12 1
  18   11   14 1
  19   11   36 1
  20   11   37 1
  21   12   13 1
  22   12   38 1
  23   12   39 1
  24   13   18 ar
  25   13   22 ar
  26   14   15 am
  27   14   17 2
  28   15   16 1
  29   15   40 1
  30   16   23 ar
  31   16   27 ar
  32   18   19 ar
  33   18   41 1
  34   19   20 ar
  35   19   42 1
  36   20   21 ar
  37   20   28 1
  38   21   22 ar
  39   21   43 1
  40   22   44 1
  41   23   24 ar
  42   23   45 1
  43   24   25 ar
  44   24   46 1
  45   25   26 ar
  46   25   29 1
  47   26   27 ar
  48   26   47 1
  49   27   48 1
  50   29   30 1
  51   30   49 1
  52   30   50 1
  53   30   51 1

#	End of record

