#	Name: ASD03740207
#	Creating user name:	WinNT
#	Creation time:	15. 06. 2019 20:46

#	Modifying user name:	WinNT
#	Modification time:	15. 06. 2019 20:46

#	Program:	/corina/corina34_cracker 3.40 0067  02.08.2006

@<TRIPOS>MOLECULE
ASD03740207
  76   80    0    0    0
SMALL
NO_CHARGES


@<TRIPOS>ATOM
   1 C1            -0.0166     1.3757     0.0096 C.ar    
   2 N2             0.0021    -0.0041     0.0020 N.pl3   
   3 O3            -2.9809     4.3004     0.0572 O.2     
   4 C4             1.3240     1.8119    -0.0009 C.ar    
   5 N5            -2.6644    -1.9489    -1.6492 N.am    
   6 O6            -1.5297     5.9811     0.0527 O.3     
   7 C7             1.6137     3.1842     0.0042 C.ar    
   8 N8            -2.1568    -5.9106    -3.1941 N.3     
   9 O9            -0.9698    -0.6919    -2.3348 O.2     
  10 C10            0.6018     4.0940     0.0196 C.ar    
  11 C11           -0.7355     3.6693     0.0305 C.ar    
  12 C12           -1.0410     2.3091     0.0193 C.ar    
  13 C13            2.1326     0.6502    -0.0148 C.2     
  14 C14           -1.8219     4.6655     0.0476 C.2     
  15 C15            1.3093    -0.4289    -0.0127 C.2     
  16 C16            1.7497    -1.8405    -0.0245 C.ar    
  17 C17            1.1515    -2.7683     0.8293 C.ar    
  18 C18            1.5666    -4.0839     0.8130 C.ar    
  19 C19            2.5736    -4.4841    -0.0473 C.ar    
  20 C20            3.1707    -3.5692    -0.8962 C.ar    
  21 C21            2.7612    -2.2518    -0.8936 C.ar    
  22 C22            3.6391     0.6173    -0.0294 C.3     
  23 C23            4.1528     1.3345    -1.2794 C.3     
  24 C24            4.1767     1.3200     1.2189 C.3     
  25 C25            5.7062     1.2867     1.2041 C.3     
  26 C26            5.6824     1.3011    -1.2942 C.3     
  27 C27            6.2199     2.0039    -0.0459 C.3     
  28 C28           -1.1773    -0.8732     0.0090 C.3     
  29 C29           -1.5954    -1.1641    -1.4093 C.2     
  30 C30           -3.4200    -2.5193    -0.5312 C.3     
  31 C31           -3.0709    -2.2317    -3.0280 C.3     
  32 C32           -2.3567    -3.4913    -3.5220 C.3     
  33 C33           -2.8263    -4.6981    -2.7064 C.3     
  34 C34           -2.6873    -3.7202    -4.9995 C.3     
  35 C35           -2.0178    -5.0145    -5.4697 C.3     
  36 C36           -2.4972    -6.1771    -4.5976 C.3     
  37 C37           -2.4775    -7.0664    -2.3461 C.3     
  38 H38           -2.2756     6.5964     0.0641 H       
  39 H39            2.6405     3.5191    -0.0038 H       
  40 H40            0.8295     5.1497     0.0237 H       
  41 H41           -2.0710     1.9843     0.0223 H       
  42 H42            0.3656    -2.4571     1.5015 H       
  43 H43            1.1048    -4.8029     1.4735 H       
  44 H44            2.8952    -5.5151    -0.0559 H       
  45 H45            3.9565    -3.8879    -1.5651 H       
  46 H46            3.2253    -1.5395    -1.5597 H       
  47 H47            3.9799    -0.4180    -0.0386 H       
  48 H48            3.7699     0.8339    -2.1687 H       
  49 H49            3.8121     2.3698    -1.2702 H       
  50 H50            3.8359     2.3553     1.2281 H       
  51 H51            3.8107     0.8091     2.1095 H       
  52 H52            6.0892     1.7873     2.0934 H       
  53 H53            6.0470     0.2513     1.1949 H       
  54 H54            6.0232     0.2658    -1.3035 H       
  55 H55            6.0484     1.8121    -2.1848 H       
  56 H56            5.8792     3.0392    -0.0367 H       
  57 H57            7.3096     1.9801    -0.0565 H       
  58 H58           -0.9368    -1.8077     0.5159 H       
  59 H59           -1.9927    -0.3749     0.5333 H       
  60 H60           -4.2170    -1.8335    -0.2438 H       
  61 H61           -3.8528    -3.4728    -0.8340 H       
  62 H62           -2.7525    -2.6760     0.3162 H       
  63 H63           -4.1491    -2.3875    -3.0642 H       
  64 H64           -2.8039    -1.3889    -3.6656 H       
  65 H65           -1.2800    -3.3691    -3.4042 H       
  66 H66           -3.9051    -4.8110    -2.8131 H       
  67 H67           -2.5795    -4.5446    -1.6558 H       
  68 H68           -3.7672    -3.8032    -5.1225 H       
  69 H69           -2.3159    -2.8826    -5.5899 H       
  70 H70           -2.2844    -5.2053    -6.5092 H       
  71 H71           -0.9356    -4.9167    -5.3830 H       
  72 H72           -2.0113    -7.0978    -4.9206 H       
  73 H73           -3.5776    -6.2831    -4.6954 H       
  74 H74           -3.5544    -7.2348    -2.3535 H       
  75 H75           -1.9689    -7.9509    -2.7297 H       
  76 H76           -2.1473    -6.8713    -1.3258 H       
@<TRIPOS>BOND
   1    1    2 1
   2    1    4 ar
   3    1   12 ar
   4    2   15 1
   5    2   28 1
   6    3   14 2
   7    4    7 ar
   8    4   13 1
   9    5   29 am
  10    5   30 1
  11    5   31 1
  12    6   14 1
  13    6   38 1
  14    7   10 ar
  15    7   39 1
  16    8   33 1
  17    8   36 1
  18    8   37 1
  19    9   29 2
  20   10   11 ar
  21   10   40 1
  22   11   12 ar
  23   11   14 1
  24   12   41 1
  25   13   15 2
  26   13   22 1
  27   15   16 1
  28   16   17 ar
  29   16   21 ar
  30   17   18 ar
  31   17   42 1
  32   18   19 ar
  33   18   43 1
  34   19   20 ar
  35   19   44 1
  36   20   21 ar
  37   20   45 1
  38   21   46 1
  39   22   23 1
  40   22   24 1
  41   22   47 1
  42   23   26 1
  43   23   48 1
  44   23   49 1
  45   24   25 1
  46   24   50 1
  47   24   51 1
  48   25   27 1
  49   25   52 1
  50   25   53 1
  51   26   27 1
  52   26   54 1
  53   26   55 1
  54   27   56 1
  55   27   57 1
  56   28   29 1
  57   28   58 1
  58   28   59 1
  59   30   60 1
  60   30   61 1
  61   30   62 1
  62   31   32 1
  63   31   63 1
  64   31   64 1
  65   32   33 1
  66   32   34 1
  67   32   65 1
  68   33   66 1
  69   33   67 1
  70   34   35 1
  71   34   68 1
  72   34   69 1
  73   35   36 1
  74   35   70 1
  75   35   71 1
  76   36   72 1
  77   36   73 1
  78   37   74 1
  79   37   75 1
  80   37   76 1

#	End of record

