#	Name: ASD01150867
#	Creating user name:	WinNT
#	Creation time:	15. 06. 2019 19:05

#	Modifying user name:	WinNT
#	Modification time:	15. 06. 2019 19:05

#	Program:	/corina/corina34_cracker 3.40 0067  02.08.2006

@<TRIPOS>MOLECULE
ASD01150867
  59   61    0    0    0
SMALL
NO_CHARGES


@<TRIPOS>ATOM
   1 C1            -0.0179     1.4713     0.0101 C.ar    
   2 C2             0.0021    -0.0041     0.0020 C.2     
   3 N3            -1.1558    -0.6938     0.0094 N.am    
   4 O4             1.0631    -0.5976    -0.0113 O.2     
   5 C5            -1.1370    -2.0836     0.0017 C.2     
   6 N6            -0.0478    -2.8559    -0.0124 N.2     
   7 C7            -0.3959    -4.1265    -0.0160 C.2     
   8 N8            -1.7505    -4.2220    -0.0042 N.pl3   
   9 C9            -2.2479    -2.9178     0.0134 C.2     
  10 C10           -3.6019    -2.5267     0.0308 C.2     
  11 O11           -4.5752    -3.4630     0.0315 O.3     
  12 O12           -3.8941    -1.3445     0.0452 O.2     
  13 C13           -5.9253    -2.9952     0.0495 C.3     
  14 C14           -6.8795    -4.1912     0.0475 C.3     
  15 S15            0.7214    -5.4888    -0.0341 S.3     
  16 C16            2.2989    -4.6014    -0.0434 C.3     
  17 C17           -2.5386    -5.4570    -0.0044 C.3     
  18 C18            1.1816     2.1884     0.0025 C.ar    
  19 C19            1.1586     3.5651     0.0097 C.ar    
  20 C20           -0.0555     4.2418     0.0249 C.ar    
  21 C21           -1.2508     3.5323     0.0325 C.ar    
  22 C22           -1.2366     2.1555     0.0196 C.ar    
  23 O23           -0.0739     5.5987     0.0328 O.3     
  24 C24           -2.8002    -5.8952     1.4380 C.3     
  25 N25           -3.5905    -7.1336     1.4377 N.3     
  26 C26           -3.6611    -7.7137     2.7867 C.3     
  27 C27           -4.5408    -8.9662     2.7523 C.3     
  28 O28           -4.0130    -9.8872     1.7939 O.3     
  29 C29           -3.9308    -9.3551     0.4689 C.3     
  30 C30           -3.0449    -8.1065     0.4802 C.3     
  31 C31           -1.3558     6.2301     0.0483 C.3     
  32 H32           -2.0023    -0.2203     0.0200 H       
  33 H33           -6.0914    -2.3994     0.9470 H       
  34 H34           -6.1093    -2.3821    -0.8327 H       
  35 H35           -7.9094    -3.8344     0.0613 H       
  36 H36           -6.7134    -4.7870    -0.8500 H       
  37 H37           -6.6956    -4.8042     0.9298 H       
  38 H38            2.3556    -3.9704    -0.9303 H       
  39 H39            2.3718    -3.9806     0.8496 H       
  40 H40            3.1194    -5.3190    -0.0550 H       
  41 H41           -3.4887    -5.2816    -0.5089 H       
  42 H42           -1.9883    -6.2390    -0.5276 H       
  43 H43            2.1254     1.6634    -0.0086 H       
  44 H44            2.0852     4.1200     0.0038 H       
  45 H45           -2.1921     4.0618     0.0443 H       
  46 H46           -2.1657     1.6050     0.0255 H       
  47 H47           -1.8501    -6.0706     1.9424 H       
  48 H48           -3.3505    -5.1132     1.9612 H       
  49 H49           -2.6587    -7.9820     3.1205 H       
  50 H50           -4.0915    -6.9854     3.4741 H       
  51 H51           -4.5498    -9.4318     3.7378 H       
  52 H52           -5.5568    -8.6898     2.4704 H       
  53 H53           -3.4986   -10.1020    -0.1970 H       
  54 H54           -4.9290    -9.0900     0.1205 H       
  55 H55           -3.0255    -7.6650    -0.5162 H       
  56 H56           -2.0327    -8.3811     0.7771 H       
  57 H57           -1.9171     5.9347    -0.8381 H       
  58 H58           -1.9004     5.9246     0.9417 H       
  59 H59           -1.2276     7.3125     0.0533 H       
@<TRIPOS>BOND
   1    1    2 1
   2    1   18 ar
   3    1   22 ar
   4    2    3 am
   5    2    4 2
   6    3    5 1
   7    3   32 1
   8    5    6 1
   9    5    9 2
  10    6    7 2
  11    7    8 1
  12    7   15 1
  13    8    9 1
  14    8   17 1
  15    9   10 1
  16   10   11 1
  17   10   12 2
  18   11   13 1
  19   13   14 1
  20   13   33 1
  21   13   34 1
  22   14   35 1
  23   14   36 1
  24   14   37 1
  25   15   16 1
  26   16   38 1
  27   16   39 1
  28   16   40 1
  29   17   24 1
  30   17   41 1
  31   17   42 1
  32   18   19 ar
  33   18   43 1
  34   19   20 ar
  35   19   44 1
  36   20   21 ar
  37   20   23 1
  38   21   22 ar
  39   21   45 1
  40   22   46 1
  41   23   31 1
  42   24   25 1
  43   24   47 1
  44   24   48 1
  45   25   26 1
  46   25   30 1
  47   26   27 1
  48   26   49 1
  49   26   50 1
  50   27   28 1
  51   27   51 1
  52   27   52 1
  53   28   29 1
  54   29   30 1
  55   29   53 1
  56   29   54 1
  57   30   55 1
  58   30   56 1
  59   31   57 1
  60   31   58 1
  61   31   59 1

#	End of record

