#	Name: ASD08150036
#	Creating user name:	WinNT
#	Creation time:	15. 06. 2019 21:15

#	Modifying user name:	WinNT
#	Modification time:	15. 06. 2019 21:15

#	Program:	/corina/corina34_cracker 3.40 0067  02.08.2006

@<TRIPOS>MOLECULE
ASD08150036
  46   50    0    0    0
SMALL
NO_CHARGES


@<TRIPOS>ATOM
   1 N1            -0.0157     1.2952    -0.0517 N.2     
   2 C2             0.0018    -0.0026    -0.0878 C.2     
   3 N3             1.1483    -0.7345    -0.1047 N.am    
   4 C4             2.3558    -0.1235    -0.0841 C.2     
   5 C5             2.3701     1.3460    -0.0436 C.ar    
   6 C6             3.5601     2.0708    -0.0195 C.ar    
   7 C7             3.5159     3.4471     0.0187 C.ar    
   8 C8             2.2979     4.1146     0.0336 C.ar    
   9 C9             1.1111     3.4174     0.0102 C.ar    
  10 C10            1.1296     2.0215    -0.0285 C.ar    
  11 O11            3.3898    -0.7657    -0.0981 O.2     
  12 C12            4.8858     1.3542    -0.0344 C.3     
  13 C13            1.0786    -2.1336    -0.1434 C.ar    
  14 C14            1.0406    -2.8627     1.0404 C.ar    
  15 C15            0.9719    -4.2432     0.9976 C.ar    
  16 C16            0.9410    -4.8975    -0.2204 C.ar    
  17 C17            0.9787    -4.1746    -1.3983 C.ar    
  18 C18            1.0417    -2.7947    -1.3631 C.ar    
  19 F19            1.0712    -2.2234     2.2302 F       
  20 C20           -1.3148    -0.7353    -0.1116 C.3     
  21 N21           -3.9986     1.5255     0.6756 N.2     
  22 C22           -3.0841     0.6652     1.0180 C.2     
  23 N23           -2.4134     0.2336    -0.0875 N.pl3   
  24 C24           -2.9555     0.8734    -1.1734 C.ar    
  25 N25           -2.7244     0.8607    -2.4820 N.ar    
  26 C26           -3.4366     1.6108    -3.2964 C.ar    
  27 N27           -4.4019     2.4034    -2.8680 N.ar    
  28 C28           -4.7052     2.4826    -1.5764 C.ar    
  29 C29           -3.9729     1.7003    -0.6675 C.ar    
  30 N30           -5.7183     3.3166    -1.1368 N.pl3   
  31 H31            4.4362     4.0120     0.0375 H       
  32 H32            2.2817     5.1940     0.0642 H       
  33 H33            0.1702     3.9474     0.0225 H       
  34 H34            5.1540     1.1077    -1.0617 H       
  35 H35            5.6520     1.9985     0.3966 H       
  36 H36            4.8101     0.4379     0.5511 H       
  37 H37            0.9426    -4.8108     1.9160 H       
  38 H38            0.8877    -5.9757    -0.2516 H       
  39 H39            0.9545    -4.6890    -2.3475 H       
  40 H40            1.0666    -2.2312    -2.2841 H       
  41 H41           -1.3800    -1.3360    -1.0188 H       
  42 H42           -1.3847    -1.3855     0.7604 H       
  43 H43           -2.8857     0.3412     2.0290 H       
  44 H44           -3.2231     1.5768    -4.3545 H       
  45 H45           -6.2165     3.8520    -1.7741 H       
  46 H46           -5.9303     3.3657    -0.1916 H       
@<TRIPOS>BOND
   1    1    2 2
   2    1   10 1
   3    2    3 1
   4    2   20 1
   5    3    4 am
   6    3   13 1
   7    4    5 1
   8    4   11 2
   9    5    6 ar
  10    5   10 ar
  11    6    7 ar
  12    6   12 1
  13    7    8 ar
  14    7   31 1
  15    8    9 ar
  16    8   32 1
  17    9   10 ar
  18    9   33 1
  19   12   34 1
  20   12   35 1
  21   12   36 1
  22   13   14 ar
  23   13   18 ar
  24   14   15 ar
  25   14   19 1
  26   15   16 ar
  27   15   37 1
  28   16   17 ar
  29   16   38 1
  30   17   18 ar
  31   17   39 1
  32   18   40 1
  33   20   23 1
  34   20   41 1
  35   20   42 1
  36   21   22 2
  37   21   29 1
  38   22   23 1
  39   22   43 1
  40   23   24 1
  41   24   25 ar
  42   24   29 ar
  43   25   26 ar
  44   26   27 ar
  45   26   44 1
  46   27   28 ar
  47   28   29 ar
  48   28   30 1
  49   30   45 1
  50   30   46 1

#	End of record

