#	Name: ASD06170153
#	Creating user name:	WinNT
#	Creation time:	15. 06. 2019 21:05

#	Modifying user name:	WinNT
#	Modification time:	15. 06. 2019 21:05

#	Program:	/corina/corina34_cracker 3.40 0067  02.08.2006

@<TRIPOS>MOLECULE
ASD06170153
  71   75    0    0    0
SMALL
NO_CHARGES


@<TRIPOS>ATOM
   1 N1             0.2336    -2.8971     0.7007 N.pl3   
   2 N2             0.3060    -1.6692     0.0360 N.am    
   3 C3             1.6054    -1.3441    -0.1254 C.2     
   4 C4             2.3874    -2.4363     0.4754 C.2     
   5 C5             1.4742    -3.3516     0.9611 C.2     
   6 C6             3.8504    -2.5340     0.5445 C.2     
   7 O7             4.3715    -3.4986     1.0727 O.2     
   8 N8             4.6166    -1.5555     0.0229 N.am    
   9 C9            -1.0078    -3.5842     1.0654 C.3     
  10 C10           -1.4182    -4.5300    -0.0651 C.3     
  11 C11           -2.7147    -5.2477     0.3158 C.3     
  12 C12           -0.7858    -0.9058    -0.3901 C.ar    
  13 C13           -1.8089    -0.5986     0.4974 C.ar    
  14 C14           -2.8853     0.1558     0.0736 C.ar    
  15 C15           -2.9450     0.6052    -1.2328 C.ar    
  16 C16           -1.9282     0.3007    -2.1191 C.ar    
  17 C17           -0.8462    -0.4485    -1.7001 C.ar    
  18 O18            2.0445    -0.3445    -0.6629 O.2     
  19 C19            1.8096    -4.6417     1.6641 C.3     
  20 C20            6.0078    -1.5989     0.1760 C.ar    
  21 C21            6.6711    -2.8189     0.1562 C.ar    
  22 C22            8.0445    -2.8605     0.3070 C.ar    
  23 C23            8.7602    -1.6817     0.4782 C.ar    
  24 C24            8.0971    -0.4645     0.4978 C.ar    
  25 C25            6.7251    -0.4218     0.3419 C.ar    
  26 O26           10.1116    -1.7223     0.6271 O.3     
  27 C27           11.0411    -1.8909    -2.7859 C.ar    
  28 N28           10.3075    -1.8554    -1.6919 N.ar    
  29 C29           10.8742    -1.7586    -0.4927 C.ar    
  30 C30           12.2603    -1.6947    -0.4042 C.ar    
  31 C31           12.9987    -1.7351    -1.5825 C.ar    
  32 N32           12.3564    -1.8328    -2.7441 N.ar    
  33 C33           15.0883    -1.6014    -2.6963 C.2     
  34 O34           14.5054    -1.5010    -3.7584 O.2     
  35 N35           14.3876    -1.6738    -1.5473 N.am    
  36 N36           16.4352    -1.6403    -2.6678 N.am    
  37 C37           17.3194    -1.5710    -3.8403 C.3     
  38 C38           18.7708    -1.6778    -3.3267 C.3     
  39 C39           18.6015    -2.3694    -1.9481 C.3     
  40 C40           17.2660    -1.7530    -1.4551 C.3     
  41 F41            8.6907    -4.0468     0.2883 F       
  42 H42            4.2043    -0.8213    -0.4585 H       
  43 H43           -0.8510    -4.1570     1.9794 H       
  44 H44           -1.7958    -2.8489     1.2280 H       
  45 H45           -1.5750    -3.9573    -0.9791 H       
  46 H46           -0.6302    -5.2653    -0.2277 H       
  47 H47           -3.5027    -4.5124     0.4785 H       
  48 H48           -3.0071    -5.9215    -0.4896 H       
  49 H49           -2.5579    -5.8205     1.2298 H       
  50 H50           -1.7631    -0.9496     1.5178 H       
  51 H51           -3.6815     0.3948     0.7631 H       
  52 H52           -3.7879     1.1950    -1.5618 H       
  53 H53           -1.9781     0.6526    -3.1390 H       
  54 H54           -0.0501    -0.6819    -2.3915 H       
  55 H55            1.9007    -5.4424     0.9301 H       
  56 H56            2.7530    -4.5296     2.1985 H       
  57 H57            1.0177    -4.8862     2.3721 H       
  58 H58            6.1142    -3.7346     0.0235 H       
  59 H59            8.6539     0.4513     0.6310 H       
  60 H60            6.2097     0.5273     0.3533 H       
  61 H61           10.5500    -1.9744    -3.7442 H       
  62 H62           12.7510    -1.6153     0.5546 H       
  63 H63           14.8520    -1.6832    -0.6957 H       
  64 H64           17.1038    -2.3982    -4.5166 H       
  65 H65           17.1776    -0.6212    -4.3559 H       
  66 H66           19.3723    -2.2932    -3.9956 H       
  67 H67           19.2123    -0.6881    -3.2100 H       
  68 H68           18.5186    -3.4504    -2.0609 H       
  69 H69           19.4207    -2.1098    -1.2776 H       
  70 H70           17.4377    -0.7684    -1.0201 H       
  71 H71           16.7899    -2.4117    -0.7289 H       
@<TRIPOS>BOND
   1    1    2 1
   2    1    5 1
   3    1    9 1
   4    2    3 am
   5    2   12 1
   6    3    4 1
   7    3   18 2
   8    4    5 2
   9    4    6 1
  10    5   19 1
  11    6    7 2
  12    6    8 am
  13    8   20 1
  14    8   42 1
  15    9   10 1
  16    9   43 1
  17    9   44 1
  18   10   11 1
  19   10   45 1
  20   10   46 1
  21   11   47 1
  22   11   48 1
  23   11   49 1
  24   12   13 ar
  25   12   17 ar
  26   13   14 ar
  27   13   50 1
  28   14   15 ar
  29   14   51 1
  30   15   16 ar
  31   15   52 1
  32   16   17 ar
  33   16   53 1
  34   17   54 1
  35   19   55 1
  36   19   56 1
  37   19   57 1
  38   20   21 ar
  39   20   25 ar
  40   21   22 ar
  41   21   58 1
  42   22   23 ar
  43   22   41 1
  44   23   24 ar
  45   23   26 1
  46   24   25 ar
  47   24   59 1
  48   25   60 1
  49   26   29 1
  50   27   28 ar
  51   27   32 ar
  52   27   61 1
  53   28   29 ar
  54   29   30 ar
  55   30   31 ar
  56   30   62 1
  57   31   32 ar
  58   31   35 1
  59   33   34 2
  60   33   35 am
  61   33   36 am
  62   35   63 1
  63   36   37 1
  64   36   40 1
  65   37   38 1
  66   37   64 1
  67   37   65 1
  68   38   39 1
  69   38   66 1
  70   38   67 1
  71   39   40 1
  72   39   68 1
  73   39   69 1
  74   40   70 1
  75   40   71 1

#	End of record

