#	Name: ASD00122006
#	Creating user name:	WinNT
#	Creation time:	15. 06. 2019 18:31

#	Modifying user name:	WinNT
#	Modification time:	15. 06. 2019 18:31

#	Program:	/corina/corina34_cracker 3.40 0067  02.08.2006

@<TRIPOS>MOLECULE
ASD00122006
  35   35    0    0    0
SMALL
NO_CHARGES


@<TRIPOS>ATOM
   1 C1            -0.0166     1.3763     0.0096 C.ar    
   2 C2             0.0021    -0.0041     0.0020 C.ar    
   3 C3             1.2066    -0.6886    -0.0127 C.ar    
   4 C4             2.3987     0.0021    -0.0203 C.ar    
   5 C5             2.3944     1.3992    -0.0132 C.ar    
   6 C6             1.1740     2.0879     0.0021 C.ar    
   7 C7             3.6672     2.1452    -0.0209 C.2     
   8 N8             4.8387     1.4789    -0.0347 N.am    
   9 O9             3.6593     3.3610    -0.0147 O.2     
  10 C10            6.1026     2.2196    -0.0423 C.3     
  11 C11            7.2090     1.3465     0.5530 C.3     
  12 C12            6.4662     2.5932    -1.4808 C.3     
  13 C13            5.4233     3.5665    -2.0340 C.3     
  14 C14            6.9071     1.0763     2.0284 C.3     
  15 O15            1.1571     3.4443     0.0086 O.3     
  16 C16           -0.1240     4.0771     0.0243 C.3     
  17 H17           -0.9596     1.9029     0.0169 H       
  18 H18           -0.9277    -0.5536     0.0079 H       
  19 H19            1.2110    -1.7686    -0.0178 H       
  20 H20            3.3352    -0.5356    -0.0314 H       
  21 H21            4.8450     0.5090    -0.0397 H       
  22 H22            5.9957     3.1267     0.5527 H       
  23 H23            7.2561     0.4011     0.0127 H       
  24 H24            8.1652     1.8625     0.4665 H       
  25 H25            7.4483     3.0657    -1.4963 H       
  26 H26            6.4860     1.6936    -2.0959 H       
  27 H27            5.6823     3.8326    -3.0588 H       
  28 H28            4.4411     3.0941    -2.0185 H       
  29 H29            5.4035     4.4661    -1.4189 H       
  30 H30            6.8600     2.0217     2.5688 H       
  31 H31            5.9509     0.5603     2.1150 H       
  32 H32            7.6953     0.4542     2.4525 H       
  33 H33           -0.6861     3.7815    -0.8616 H       
  34 H34           -0.6685     3.7731     0.9182 H       
  35 H35            0.0053     5.1594     0.0281 H       
@<TRIPOS>BOND
   1    1    2 ar
   2    1    6 ar
   3    1   17 1
   4    2    3 ar
   5    2   18 1
   6    3    4 ar
   7    3   19 1
   8    4    5 ar
   9    4   20 1
  10    5    6 ar
  11    5    7 1
  12    6   15 1
  13    7    8 am
  14    7    9 2
  15    8   10 1
  16    8   21 1
  17   10   11 1
  18   10   12 1
  19   10   22 1
  20   11   14 1
  21   11   23 1
  22   11   24 1
  23   12   13 1
  24   12   25 1
  25   12   26 1
  26   13   27 1
  27   13   28 1
  28   13   29 1
  29   14   30 1
  30   14   31 1
  31   14   32 1
  32   15   16 1
  33   16   33 1
  34   16   34 1
  35   16   35 1

#	End of record

