#	Name: ASD01912116
#	Creating user name:	WinNT
#	Creation time:	15. 06. 2019 19:59

#	Modifying user name:	WinNT
#	Modification time:	15. 06. 2019 19:59

#	Program:	/corina/corina34_cracker 3.40 0067  02.08.2006

@<TRIPOS>MOLECULE
ASD01912116
  59   63    0    0    0
SMALL
NO_CHARGES


@<TRIPOS>ATOM
   1 N1             0.0490     1.3700    -0.0780 N.2     
   2 C2            -0.0015     0.0390     0.1132 C.2     
   3 C3             1.2747    -0.4260     0.1808 C.2     
   4 N4             2.1000     0.6531     0.0262 N.pl3   
   5 C5             1.3047     1.7509    -0.1320 C.2     
   6 C6             1.7780     3.1378    -0.3314 C.ar    
   7 C7             3.0842     3.4882     0.0128 C.ar    
   8 C8             3.5205     4.7829    -0.1751 C.ar    
   9 C9             2.6643     5.7353    -0.7047 C.ar    
  10 C10            1.3661     5.3925    -1.0482 C.ar    
  11 C11            0.9216     4.0992    -0.8697 C.ar    
  12 C12           -1.2343    -0.7785     0.2299 C.ar    
  13 C13           -2.4857    -0.1722     0.1415 C.ar    
  14 C14           -3.6297    -0.9365     0.2501 C.ar    
  15 C15           -3.5352    -2.3044     0.4467 C.ar    
  16 C16           -2.2928    -2.9114     0.5357 C.ar    
  17 C17           -1.1439    -2.1559     0.4224 C.ar    
  18 C18            3.5649     0.6344     0.0298 C.3     
  19 C19            4.0670     0.8819     1.4290 C.2     
  20 N20            5.3920     0.9090     1.6745 N.am    
  21 O21            3.2789     1.0567     2.3340 O.2     
  22 F22           -4.6576    -3.0488     0.5525 F       
  23 F23            3.0964     7.0023    -0.8864 F       
  24 C24           -4.9838    -0.2818     0.1552 C.3     
  25 C25            6.3737     0.7009     0.5997 C.3     
  26 C26            7.4648    -0.2031     1.1051 C.2     
  27 N27            7.6195    -0.5049     2.3950 N.am    
  28 C28            6.7169    -0.0822     3.4571 C.3     
  29 C29            5.9154     1.1545     3.0290 C.3     
  30 C30            8.7223    -1.2796     2.7517 C.ar    
  31 C31            9.9474    -0.6666     2.9869 C.ar    
  32 C32           11.0341    -1.4474     3.3402 C.ar    
  33 C33           10.8566    -2.8199     3.4465 C.ar    
  34 C34            9.6107    -3.3618     3.1985 C.ar    
  35 N35            8.5917    -2.5917     2.8686 N.ar    
  36 O36            8.2392    -0.6798     0.3026 O.2     
  37 H37            1.5783    -1.4518     0.3289 H       
  38 H38            3.7522     2.7468     0.4260 H       
  39 H39            4.5311     5.0552     0.0913 H       
  40 H40            0.7027     6.1385    -1.4602 H       
  41 H41           -0.0901     3.8331    -1.1380 H       
  42 H42           -2.5604     0.8943    -0.0114 H       
  43 H43           -2.2236    -3.9782     0.6893 H       
  44 H44           -0.1760    -2.6298     0.4919 H       
  45 H45            3.9167    -0.3376    -0.3159 H       
  46 H46            3.9398     1.4136    -0.6339 H       
  47 H47           -5.3094    -0.2698    -0.8850 H       
  48 H48           -5.7013    -0.8427     0.7541 H       
  49 H49           -4.9200     0.7405     0.5278 H       
  50 H50            5.8842     0.2384    -0.2574 H       
  51 H51            6.8010     1.6593     0.3049 H       
  52 H52            6.0292    -0.8957     3.6884 H       
  53 H53            7.2982     0.1591     4.3470 H       
  54 H54            6.5645     2.0301     3.0248 H       
  55 H55            5.0872     1.3131     3.7196 H       
  56 H56           10.0500     0.4046     2.8947 H       
  57 H57           11.9984    -0.9990     3.5287 H       
  58 H58           11.6843    -3.4575     3.7200 H       
  59 H59            9.4678    -4.4292     3.2795 H       
@<TRIPOS>BOND
   1    1    2 1
   2    1    5 2
   3    2    3 2
   4    2   12 1
   5    3    4 1
   6    3   37 1
   7    4    5 1
   8    4   18 1
   9    5    6 1
  10    6    7 ar
  11    6   11 ar
  12    7    8 ar
  13    7   38 1
  14    8    9 ar
  15    8   39 1
  16    9   10 ar
  17    9   23 1
  18   10   11 ar
  19   10   40 1
  20   11   41 1
  21   12   13 ar
  22   12   17 ar
  23   13   14 ar
  24   13   42 1
  25   14   15 ar
  26   14   24 1
  27   15   16 ar
  28   15   22 1
  29   16   17 ar
  30   16   43 1
  31   17   44 1
  32   18   19 1
  33   18   45 1
  34   18   46 1
  35   19   20 am
  36   19   21 2
  37   20   25 1
  38   20   29 1
  39   24   47 1
  40   24   48 1
  41   24   49 1
  42   25   26 1
  43   25   50 1
  44   25   51 1
  45   26   27 am
  46   26   36 2
  47   27   28 1
  48   27   30 1
  49   28   29 1
  50   28   52 1
  51   28   53 1
  52   29   54 1
  53   29   55 1
  54   30   31 ar
  55   30   35 ar
  56   31   32 ar
  57   31   56 1
  58   32   33 ar
  59   32   57 1
  60   33   34 ar
  61   33   58 1
  62   34   35 ar
  63   34   59 1

#	End of record

