#	Name: ASD01885002
#	Creating user name:	WinNT
#	Creation time:	15. 06. 2019 19:49

#	Modifying user name:	WinNT
#	Modification time:	15. 06. 2019 19:49

#	Program:	/corina/corina34_cracker 3.40 0067  02.08.2006

@<TRIPOS>MOLECULE
ASD01885002
  42   45    0    0    0
SMALL
NO_CHARGES


@<TRIPOS>ATOM
   1 N1            -0.0162     1.3436     0.0094 N.am    
   2 C2             0.0021    -0.0041     0.0020 C.2     
   3 O3             1.0628    -0.5974    -0.0113 O.2     
   4 C4            -1.2689    -0.7611     0.0101 C.ar    
   5 C5            -1.2403    -2.1529     0.0081 C.ar    
   6 C6            -2.4467    -2.8542     0.0163 C.ar    
   7 C7            -3.6411    -2.1188     0.0261 C.ar    
   8 O8            -4.8399    -2.7544     0.0348 O.3     
   9 C9            -6.0094    -1.9333     0.0445 C.3     
  10 C10           -7.2369    -2.8075     0.0531 C.2     
  11 C11           -8.5131    -2.2208     0.0576 C.2     
  12 C12           -9.6189    -3.0129     0.0649 C.2     
  13 C13           -9.4646    -4.4137     0.0679 C.2     
  14 N14          -10.3409    -5.4083     0.0754 N.2     
  15 C15           -9.6843    -6.5708     0.0758 C.2     
  16 C16           -8.3574    -6.3170     0.0685 C.2     
  17 N17           -8.2060    -4.9571     0.0634 N.pl3   
  18 C18           -7.1050    -4.1506     0.0509 C.2     
  19 C19           -3.5799    -0.7296     0.0274 C.ar    
  20 N20           -2.4240    -0.1044     0.0246 N.ar    
  21 C21           -2.4654    -4.3372     0.0141 C.ar    
  22 C22           -3.2467    -5.0277     0.9391 C.ar    
  23 C23           -3.2611    -6.4072     0.9334 C.ar    
  24 C24           -2.5004    -7.1063     0.0101 C.ar    
  25 F25           -2.5175    -8.4572     0.0081 F       
  26 C26           -1.7227    -6.4240    -0.9116 C.ar    
  27 C27           -1.7063    -5.0444    -0.9167 C.ar    
  28 H28            0.8172     1.8399     0.0041 H       
  29 H29           -0.8627     1.8171     0.0160 H       
  30 H30           -0.2988    -2.6819     0.0001 H       
  31 H31           -6.0047    -1.3048     0.9351 H       
  32 H32           -6.0184    -1.3032    -0.8448 H       
  33 H33           -8.6160    -1.1457     0.0556 H       
  34 H34          -10.6052    -2.5728     0.0688 H       
  35 H35          -10.1383    -7.5508     0.0812 H       
  36 H36           -7.5644    -7.0503     0.0672 H       
  37 H37           -6.1190    -4.5914     0.0433 H       
  38 H38           -4.4951    -0.1563     0.0350 H       
  39 H39           -3.8396    -4.4836     1.6594 H       
  40 H40           -3.8659    -6.9431     1.6500 H       
  41 H41           -1.1314    -6.9729    -1.6295 H       
  42 H42           -1.1030    -4.5134    -1.6381 H       
@<TRIPOS>BOND
   1    1    2 am
   2    1   28 1
   3    1   29 1
   4    2    3 2
   5    2    4 1
   6    4   20 ar
   7    4    5 ar
   8    5    6 ar
   9    5   30 1
  10    6    7 ar
  11    6   21 1
  12    7    8 1
  13    7   19 ar
  14    8    9 1
  15    9   10 1
  16    9   31 1
  17    9   32 1
  18   10   18 2
  19   10   11 1
  20   11   12 2
  21   11   33 1
  22   12   13 1
  23   12   34 1
  24   13   17 1
  25   13   14 2
  26   14   15 1
  27   15   16 2
  28   15   35 1
  29   16   17 1
  30   16   36 1
  31   17   18 1
  32   18   37 1
  33   19   20 ar
  34   19   38 1
  35   21   27 ar
  36   21   22 ar
  37   22   23 ar
  38   22   39 1
  39   23   24 ar
  40   23   40 1
  41   24   25 1
  42   24   26 ar
  43   26   27 ar
  44   26   41 1
  45   27   42 1

#	End of record

