#	Name: ASD01885425
#	Creating user name:	WinNT
#	Creation time:	15. 06. 2019 19:49

#	Modifying user name:	WinNT
#	Modification time:	15. 06. 2019 19:49

#	Program:	/corina/corina34_cracker 3.40 0067  02.08.2006

@<TRIPOS>MOLECULE
ASD01885425
  44   47    0    0    0
SMALL
NO_CHARGES


@<TRIPOS>ATOM
   1 C1            -0.0387     1.4159     0.0072 C.ar    
   2 C2            -0.0161     0.0211     0.0396 C.ar    
   3 N3            -1.1310    -0.7519     0.0521 N.2     
   4 C4            -2.1916    -0.5694    -0.6469 C.2     
   5 C5            -2.3339     0.6049    -1.5794 C.3     
   6 C6            -2.2857     1.8671    -0.7560 C.2     
   7 N7            -1.2069     2.1664    -0.0335 N.am    
   8 C8             1.1632     2.1205     0.0092 C.ar    
   9 C9             2.3789     1.4482     0.0380 C.ar    
  10 C10            2.4000     0.0527     0.0648 C.ar    
  11 C11            1.2209    -0.6493     0.0654 C.ar    
  12 C12           -3.2988    -1.5338    -0.5348 C.ar    
  13 O13           -3.2381     2.6181    -0.7527 O.2     
  14 C14           -3.1334    -2.7085     0.2065 C.ar    
  15 C15           -4.1707    -3.6131     0.3122 C.ar    
  16 C16           -5.3775    -3.3662    -0.3117 C.ar    
  17 C17           -5.5578    -2.1968    -1.0558 C.ar    
  18 C18           -4.5182    -1.2757    -1.1630 C.ar    
  19 C19           -6.8103    -1.9435    -1.7021 C.1     
  20 N20           -7.8039    -1.7426    -2.2148 N.1     
  21 C21            3.6506     2.2112     0.0398 C.ar    
  22 C22            4.8673     1.5373     0.0687 C.ar    
  23 C23            6.0588     2.2617     0.0702 C.ar    
  24 C24            6.0230     3.6578     0.0429 C.ar    
  25 C25            4.8114     4.3190     0.0148 C.ar    
  26 C26            3.6287     3.6059     0.0069 C.ar    
  27 C27            7.3556     1.5545     0.1012 C.2     
  28 O28            7.3848     0.3404     0.1254 O.2     
  29 O29            8.5056     2.2560     0.1027 O.3     
  30 H30           -1.5157     0.6040    -2.2996 H       
  31 H31           -3.2871     0.5444    -2.1046 H       
  32 H32           -1.2402     2.9700     0.5087 H       
  33 H33            1.1499     3.2002    -0.0121 H       
  34 H34            3.3429    -0.4737     0.0852 H       
  35 H35            1.2425    -1.7289     0.0860 H       
  36 H36           -2.1921    -2.9083     0.6968 H       
  37 H37           -4.0376    -4.5187     0.8854 H       
  38 H38           -6.1844    -4.0788    -0.2247 H       
  39 H39           -4.6522    -0.3704    -1.7364 H       
  40 H40            4.8890     0.4577     0.0901 H       
  41 H41            6.9446     4.2208     0.0440 H       
  42 H42            4.7884     5.3986    -0.0055 H       
  43 H43            2.6843     4.1293    -0.0155 H       
  44 H44            9.3289     1.7494     0.1235 H       
@<TRIPOS>BOND
   1    1    2 ar
   2    1    8 ar
   3    1    7 1
   4    2    3 1
   5    2   11 ar
   6    3    4 2
   7    4    5 1
   8    4   12 1
   9    5    6 1
  10    5   30 1
  11    5   31 1
  12    6    7 am
  13    6   13 2
  14    7   32 1
  15    8    9 ar
  16    8   33 1
  17    9   10 ar
  18    9   21 1
  19   10   11 ar
  20   10   34 1
  21   11   35 1
  22   12   14 ar
  23   12   18 ar
  24   14   15 ar
  25   14   36 1
  26   15   16 ar
  27   15   37 1
  28   16   17 ar
  29   16   38 1
  30   17   18 ar
  31   17   19 1
  32   18   39 1
  33   19   20 3
  34   21   22 ar
  35   21   26 ar
  36   22   23 ar
  37   22   40 1
  38   23   24 ar
  39   23   27 1
  40   24   25 ar
  41   24   41 1
  42   25   26 ar
  43   25   42 1
  44   26   43 1
  45   27   28 2
  46   27   29 1
  47   29   44 1

#	End of record

