#	Name: ASD03331376
#	Creating user name:	WinNT
#	Creation time:	15. 06. 2019 20:39

#	Modifying user name:	WinNT
#	Modification time:	15. 06. 2019 20:39

#	Program:	/corina/corina34_cracker 3.40 0067  02.08.2006

@<TRIPOS>MOLECULE
ASD03331376
  57   59    0    0    0
SMALL
NO_CHARGES


@<TRIPOS>ATOM
   1 N1            -0.2571     1.5588    -0.6100 N.2     
   2 N2            -0.1327     0.1798    -0.3781 N.am    
   3 C3             1.1847    -0.1008    -0.2404 C.2     
   4 C4             1.8736     1.0587    -0.3779 C.2     
   5 C5             0.9502     2.0882    -0.6103 C.2     
   6 C6             1.8514    -1.4288     0.0181 C.3     
   7 C7             3.3774     1.1358    -0.2806 C.3     
   8 C8             3.8706    -0.1659     0.3683 C.3     
   9 O9             3.2494    -1.2855    -0.2680 O.3     
  10 C10           -1.1449    -0.7071    -0.3051 C.2     
  11 O11           -0.9101    -1.8812    -0.0982 O.2     
  12 N12           -2.4174    -0.2918    -0.4616 N.am    
  13 C13            1.2748     3.5205    -0.8199 C.ar    
  14 C14            0.5497     4.5077    -0.1509 C.ar    
  15 C15            0.8559     5.8408    -0.3489 C.ar    
  16 C16            1.8805     6.1975    -1.2095 C.ar    
  17 C17            2.6039     5.2194    -1.8766 C.ar    
  18 C18            2.3082     3.8840    -1.6807 C.ar    
  19 F19            3.6022     5.5732    -2.7154 F       
  20 F20            2.1762     7.5018    -1.4005 F       
  21 F21           -0.4504     4.1607     0.6886 F       
  22 C22           -4.6991    -0.7348    -1.1592 C.2     
  23 C23           -3.5177    -1.2558    -0.3822 C.3     
  24 C24           -3.9172    -1.4544     1.0813 C.3     
  25 C25           -4.3192    -0.1083     1.6873 C.3     
  26 O26           -4.7619     0.4405    -1.4518 O.2     
  27 C27           -5.0991    -2.4227     1.1604 C.3     
  28 C28           -2.7327    -2.0307     1.8596 C.3     
  29 N29           -5.6860    -1.5750    -1.5290 N.am    
  30 C30           -6.8716    -1.0555    -2.2150 C.3     
  31 C31           -7.8300    -2.2083    -2.5208 C.3     
  32 O32           -8.3145    -2.7626    -1.2960 O.3     
  33 H33            1.7160    -1.7121     1.0619 H       
  34 H34            1.4187    -2.1907    -0.6303 H       
  35 H35            3.8073     1.2379    -1.2770 H       
  36 H36            3.6645     1.9878     0.3356 H       
  37 H37            4.9524    -0.2395     0.2572 H       
  38 H38            3.6145    -0.1629     1.4278 H       
  39 H39           -2.6048     0.6455    -0.6268 H       
  40 H40            0.2951     6.6054     0.1680 H       
  41 H41            2.8749     3.1233    -2.1971 H       
  42 H42           -3.1971    -2.2085    -0.8038 H       
  43 H43           -5.1631     0.3023     1.1328 H       
  44 H44           -4.6039    -0.2498     2.7300 H       
  45 H45           -3.4772     0.5815     1.6310 H       
  46 H46           -4.7975    -3.3965     0.7744 H       
  47 H47           -5.4157    -2.5255     2.1984 H       
  48 H48           -5.9261    -2.0361     0.5649 H       
  49 H49           -1.8907    -1.3409     1.8033 H       
  50 H50           -3.0173    -2.1722     2.9023 H       
  51 H51           -2.4463    -2.9897     1.4279 H       
  52 H52           -5.6112    -2.5236    -1.3408 H       
  53 H53           -7.3712    -0.3274    -1.5760 H       
  54 H54           -6.5713    -0.5758    -3.1466 H       
  55 H55           -8.6694    -1.8367    -3.1086 H       
  56 H56           -7.3038    -2.9782    -3.0850 H       
  57 H57           -8.9288    -3.4999    -1.4139 H       
@<TRIPOS>BOND
   1    1    2 1
   2    1    5 2
   3    2    3 1
   4    2   10 am
   5    3    4 2
   6    3    6 1
   7    4    5 1
   8    4    7 1
   9    5   13 1
  10    6    9 1
  11    6   33 1
  12    6   34 1
  13    7    8 1
  14    7   35 1
  15    7   36 1
  16    8    9 1
  17    8   37 1
  18    8   38 1
  19   10   11 2
  20   10   12 am
  21   12   23 1
  22   12   39 1
  23   13   14 ar
  24   13   18 ar
  25   14   15 ar
  26   14   21 1
  27   15   16 ar
  28   15   40 1
  29   16   17 ar
  30   16   20 1
  31   17   18 ar
  32   17   19 1
  33   18   41 1
  34   22   26 2
  35   22   29 am
  36   22   23 1
  37   23   24 1
  38   23   42 1
  39   24   25 1
  40   24   27 1
  41   24   28 1
  42   25   43 1
  43   25   44 1
  44   25   45 1
  45   27   46 1
  46   27   47 1
  47   27   48 1
  48   28   49 1
  49   28   50 1
  50   28   51 1
  51   29   30 1
  52   29   52 1
  53   30   31 1
  54   30   53 1
  55   30   54 1
  56   31   32 1
  57   31   55 1
  58   31   56 1
  59   32   57 1

#	End of record

