#	Name: ASD01916001
#	Creating user name:	WinNT
#	Creation time:	15. 06. 2019 20:06

#	Modifying user name:	WinNT
#	Modification time:	15. 06. 2019 20:06

#	Program:	/corina/corina34_cracker 3.40 0067  02.08.2006

@<TRIPOS>MOLECULE
ASD01916001
  44   45    0    0    0
SMALL
NO_CHARGES


@<TRIPOS>ATOM
   1 C1            -0.0048     1.3402     0.1011 C.ar    
   2 C2            -0.0417    -0.0545    -0.0380 C.ar    
   3 C3            -1.2729    -0.6804    -0.0479 C.ar    
   4 C4            -2.4298     0.0896     0.0799 C.ar    
   5 C5            -3.7521    -0.5735     0.0707 C.2     
   6 N6            -4.4325    -0.7358     1.2227 N.am    
   7 O7            -4.2250    -0.9719    -0.9758 O.2     
   8 C8            -5.7877    -1.2919     1.2008 C.3     
   9 C9            -5.7536    -2.6946     0.5909 C.3     
  10 C10           -6.3300    -1.3700     2.6294 C.3     
  11 C11           -6.6948    -0.3918     0.3595 C.3     
  12 C12            1.2468     2.0358     0.1172 C.1     
  13 C13            2.2730     2.6060     0.1303 C.1     
  14 C14            3.5246     3.3016     0.1464 C.ar    
  15 C15            3.5637     4.6955     0.2853 C.ar    
  16 N16            5.8792     3.2410     0.0443 N.ar    
  17 C17            4.7999     5.3190     0.2947 C.ar    
  18 N18           -2.3598     1.4100     0.2100 N.ar    
  19 C19           -1.2109     2.0443     0.2184 C.ar    
  20 C20            4.7287     2.6013     0.0295 C.ar    
  21 C21           -3.8170    -0.3562     2.4968 C.3     
  22 C22           -1.3659    -2.1773    -0.1953 C.3     
  23 C23            5.9462     4.5529     0.1678 C.ar    
  24 Cl24           4.9114     7.0432     0.4632 Cl      
  25 H25            0.8700    -0.6252    -0.1354 H       
  26 H26           -5.1074    -3.3359     1.1903 H       
  27 H27           -6.7619    -3.1084     0.5746 H       
  28 H28           -5.3673    -2.6390    -0.4269 H       
  29 H29           -6.3543    -0.3707     3.0639 H       
  30 H30           -7.3383    -1.7838     2.6131 H       
  31 H31           -5.6838    -2.0113     3.2288 H       
  32 H32           -6.3085    -0.3362    -0.6582 H       
  33 H33           -7.7031    -0.8056     0.3432 H       
  34 H34           -6.7191     0.6075     0.7940 H       
  35 H35            2.6533     5.2685     0.3821 H       
  36 H36           -1.1942     3.1187     0.3266 H       
  37 H37            4.7150     1.5263    -0.0734 H       
  38 H38           -4.1270     0.6542     2.7632 H       
  39 H39           -4.1343    -1.0507     3.2747 H       
  40 H40           -2.7318    -0.3898     2.4003 H       
  41 H41           -1.2589    -2.6461     0.7829 H       
  42 H42           -2.3342    -2.4410    -0.6207 H       
  43 H43           -0.5718    -2.5275    -0.8549 H       
  44 H44            6.9117     5.0368     0.1754 H       
@<TRIPOS>BOND
   1    1    2 ar
   2    1   12 1
   3    1   19 ar
   4    2    3 ar
   5    2   25 1
   6    3    4 ar
   7    3   22 1
   8    4   18 ar
   9    4    5 1
  10    5    6 am
  11    5    7 2
  12    6    8 1
  13    6   21 1
  14    8    9 1
  15    8   10 1
  16    8   11 1
  17    9   26 1
  18    9   27 1
  19    9   28 1
  20   10   29 1
  21   10   30 1
  22   10   31 1
  23   11   32 1
  24   11   33 1
  25   11   34 1
  26   12   13 3
  27   13   14 1
  28   14   15 ar
  29   14   20 ar
  30   15   17 ar
  31   15   35 1
  32   16   23 ar
  33   16   20 ar
  34   17   24 1
  35   17   23 ar
  36   18   19 ar
  37   19   36 1
  38   20   37 1
  39   21   38 1
  40   21   39 1
  41   21   40 1
  42   22   41 1
  43   22   42 1
  44   22   43 1
  45   23   44 1

#	End of record

