#	Name: ASD02198436
#	Creating user name:	WinNT
#	Creation time:	15. 06. 2019 20:19

#	Modifying user name:	WinNT
#	Modification time:	15. 06. 2019 20:19

#	Program:	/corina/corina34_cracker 3.40 0067  02.08.2006

@<TRIPOS>MOLECULE
ASD02198436
  52   56    0    0    0
SMALL
NO_CHARGES


@<TRIPOS>ATOM
   1 C1             0.1562     2.1701     0.7385 C.ar    
   2 S2             0.0718     0.4478     0.3765 S.o2    
   3 N3             0.1831    -0.3619     1.8167 N.am    
   4 C4            -0.7811    -0.1638     2.8042 C.ar    
   5 C5            -0.4128    -0.1596     4.1681 C.ar    
   6 C6            -1.4130     0.0446     5.1497 C.ar    
   7 C7            -2.7472     0.2381     4.7554 C.ar    
   8 C8            -3.0728     0.2286     3.4333 C.ar    
   9 C9            -2.0994     0.0352     2.4572 C.ar    
  10 N10            0.8563    -0.3448     4.5394 N.ar    
  11 C11            1.2042    -0.3423     5.8036 C.ar    
  12 C12            0.2714    -0.1477     6.8194 C.ar    
  13 C13           -1.0441     0.0485     6.5082 C.ar    
  14 O14           -1.2375     0.2057    -0.1198 O.2     
  15 O15            1.2500     0.1329    -0.3529 O.2     
  16 C16            1.3797     2.8094     0.7687 C.ar    
  17 C17            1.4453     4.1674     1.0543 C.ar    
  18 C18            0.2791     4.8775     1.3085 C.ar    
  19 C19           -0.9415     4.2319     1.2768 C.ar    
  20 C20           -1.0038     2.8814     0.9866 C.ar    
  21 N21            2.6824     4.8176     1.0861 N.pl3   
  22 C22            2.7859     6.1244     0.6568 C.ar    
  23 N23            1.7190     6.7880     0.2373 N.ar    
  24 C24            4.0361     6.7933     0.6590 C.ar    
  25 C25            4.0807     8.1350     0.2074 C.ar    
  26 N26            2.9437     8.7168    -0.2026 N.ar    
  27 C27            1.8053     8.0491    -0.1789 C.ar    
  28 C28            5.2103     6.1689     1.0910 C.ar    
  29 C29            6.3863     6.8609     1.0720 C.ar    
  30 C30            6.4324     8.1791     0.6291 C.ar    
  31 C31            5.3051     8.8162     0.2010 C.ar    
  32 S32            0.3400     8.8590    -0.7281 S.3     
  33 C33            1.0209    10.4779    -1.1656 C.3     
  34 H34            0.9190    -0.9741     1.9734 H       
  35 H35           -3.5138     0.3938     5.5000 H       
  36 H36           -4.1007     0.3776     3.1375 H       
  37 H37           -2.3827     0.0318     1.4150 H       
  38 H38            2.2411    -0.4956     6.0640 H       
  39 H39            0.5879    -0.1515     7.8520 H       
  40 H40           -1.7809     0.2013     7.2829 H       
  41 H41            2.2847     2.2542     0.5709 H       
  42 H42            0.3267     5.9332     1.5312 H       
  43 H43           -1.8488     4.7834     1.4748 H       
  44 H44           -1.9595     2.3790     0.9624 H       
  45 H45            3.4680     4.3498     1.4100 H       
  46 H46            5.1866     5.1463     1.4376 H       
  47 H47            7.2934     6.3790     1.4055 H       
  48 H48            7.3753     8.7057     0.6239 H       
  49 H49            5.3557     9.8396    -0.1400 H       
  50 H50            0.2216    11.1205    -1.5349 H       
  51 H51            1.4741    10.9318    -0.2843 H       
  52 H52            1.7771    10.3565    -1.9413 H       
@<TRIPOS>BOND
   1    1    2 1
   2    1   16 ar
   3    1   20 ar
   4    2    3 am
   5    2   14 2
   6    2   15 2
   7    3    4 1
   8    3   34 1
   9    4    5 ar
  10    4    9 ar
  11    5    6 ar
  12    5   10 ar
  13    6    7 ar
  14    6   13 ar
  15    7    8 ar
  16    7   35 1
  17    8    9 ar
  18    8   36 1
  19    9   37 1
  20   10   11 ar
  21   11   12 ar
  22   11   38 1
  23   12   13 ar
  24   12   39 1
  25   13   40 1
  26   16   17 ar
  27   16   41 1
  28   17   18 ar
  29   17   21 1
  30   18   19 ar
  31   18   42 1
  32   19   20 ar
  33   19   43 1
  34   20   44 1
  35   21   22 1
  36   21   45 1
  37   22   23 ar
  38   22   24 ar
  39   23   27 ar
  40   24   25 ar
  41   24   28 ar
  42   25   26 ar
  43   25   31 ar
  44   26   27 ar
  45   27   32 1
  46   28   29 ar
  47   28   46 1
  48   29   30 ar
  49   29   47 1
  50   30   31 ar
  51   30   48 1
  52   31   49 1
  53   32   33 1
  54   33   50 1
  55   33   51 1
  56   33   52 1

#	End of record

