#	Name: ASD03092308
#	Creating user name:	WinNT
#	Creation time:	15. 06. 2019 20:32

#	Modifying user name:	WinNT
#	Modification time:	15. 06. 2019 20:32

#	Program:	/corina/corina34_cracker 3.40 0067  02.08.2006

@<TRIPOS>MOLECULE
ASD03092308
  59   62    0    0    0
SMALL
NO_CHARGES


@<TRIPOS>ATOM
   1 C1             0.3381     1.9841     0.1443 C.2     
   2 C2             0.5500     0.5257     0.2225 C.ar    
   3 C3             1.8482     0.0042     0.2342 C.ar    
   4 C4             2.0385    -1.3641     0.3081 C.ar    
   5 C5             0.9450    -2.2151     0.3700 C.ar    
   6 C6            -0.3427    -1.7007     0.3586 C.ar    
   7 C7            -0.5449    -0.3393     0.2910 C.ar    
   8 O8             1.2928     2.7350     0.0899 O.2     
   9 N9            -0.9137     2.4833     0.1277 N.am    
  10 F10            1.1352    -3.5508     0.4412 F       
  11 F11            3.2904    -1.8717     0.3196 F       
  12 F12            2.9124     0.8342     0.1729 F       
  13 C13           -1.1240     3.9310     0.0501 C.3     
  14 S14           -4.9831     4.7250    -0.6389 S.3     
  15 C15           -4.5794     4.5771     1.0156 C.2     
  16 N16           -3.3129     4.3203     1.1493 N.2     
  17 C17           -2.6021     4.2245     0.0467 C.2     
  18 C18           -3.3086     4.4112    -1.0878 C.2     
  19 C19           -2.5481     5.2826    -4.6608 C.ar    
  20 C20           -3.0704     5.3694    -3.3885 C.ar    
  21 C21           -2.7731     4.3608    -2.4622 C.ar    
  22 C22           -1.9528     3.3033    -2.8774 C.ar    
  23 C23           -1.4745     3.2969    -4.1698 C.ar    
  24 N24           -1.7790     4.2681    -5.0105 N.ar    
  25 C25           -0.5912     2.1657    -4.6296 C.3     
  26 C26           -2.8647     6.3571    -5.6689 C.3     
  27 N27           -5.4733     4.7119     2.0623 N.3     
  28 C28           -6.8265     5.0006     1.5656 C.3     
  29 C29           -7.7690     5.2009     2.7553 C.3     
  30 O30           -7.7340     4.0372     3.5860 O.3     
  31 C31           -6.4312     3.7270     4.0877 C.3     
  32 C32           -5.4751     3.5119     2.9115 C.3     
  33 C33           -6.4986     2.4523     4.9311 C.3     
  34 C34           -9.1947     5.4223     2.2460 C.3     
  35 H35           -1.1897    -2.3689     0.4071 H       
  36 H36           -1.5490     0.0584     0.2869 H       
  37 H37           -1.6754     1.8840     0.1671 H       
  38 H38           -0.6600     4.4123     0.9111 H       
  39 H39           -0.6753     4.3148    -0.8662 H       
  40 H40           -3.6985     6.2024    -3.1094 H       
  41 H41           -1.6989     2.5057    -2.1949 H       
  42 H42           -1.2081     1.3688    -5.0450 H       
  43 H43            0.0960     2.5289    -5.3937 H       
  44 H44           -0.0228     1.7813    -3.7828 H       
  45 H45           -2.1137     7.1447    -5.6085 H       
  46 H46           -2.8611     5.9277    -6.6708 H       
  47 H47           -3.8484     6.7759    -5.4567 H       
  48 H48           -6.8065     5.9070     0.9605 H       
  49 H49           -7.1777     4.1654     0.9596 H       
  50 H50           -7.4487     6.0690     3.3313 H       
  51 H51           -6.0719     4.5523     4.7025 H       
  52 H52           -5.8047     2.6529     2.3270 H       
  53 H53           -4.4685     3.3315     3.2889 H       
  54 H54           -6.8562     1.6274     4.3147 H       
  55 H55           -5.5054     2.2164     5.3132 H       
  56 H56           -7.1824     2.6048     5.7661 H       
  57 H57           -9.5146     4.5528     1.6719 H       
  58 H58           -9.8652     5.5648     3.0935 H       
  59 H59           -9.2200     6.3071     1.6099 H       
@<TRIPOS>BOND
   1    1    2 1
   2    1    8 2
   3    1    9 am
   4    2    3 ar
   5    2    7 ar
   6    3    4 ar
   7    3   12 1
   8    4    5 ar
   9    4   11 1
  10    5    6 ar
  11    5   10 1
  12    6    7 ar
  13    6   35 1
  14    7   36 1
  15    9   13 1
  16    9   37 1
  17   13   17 1
  18   13   38 1
  19   13   39 1
  20   14   15 1
  21   14   18 1
  22   15   16 2
  23   15   27 1
  24   16   17 1
  25   17   18 2
  26   18   21 1
  27   19   20 ar
  28   19   24 ar
  29   19   26 1
  30   20   21 ar
  31   20   40 1
  32   21   22 ar
  33   22   23 ar
  34   22   41 1
  35   23   24 ar
  36   23   25 1
  37   25   42 1
  38   25   43 1
  39   25   44 1
  40   26   45 1
  41   26   46 1
  42   26   47 1
  43   27   28 1
  44   27   32 1
  45   28   29 1
  46   28   48 1
  47   28   49 1
  48   29   30 1
  49   29   34 1
  50   29   50 1
  51   30   31 1
  52   31   32 1
  53   31   33 1
  54   31   51 1
  55   32   52 1
  56   32   53 1
  57   33   54 1
  58   33   55 1
  59   33   56 1
  60   34   57 1
  61   34   58 1
  62   34   59 1

#	End of record

