#	Name: ASD03731033
#	Creating user name:	WinNT
#	Creation time:	15. 06. 2019 20:45

#	Modifying user name:	WinNT
#	Modification time:	15. 06. 2019 20:45

#	Program:	/corina/corina34_cracker 3.40 0067  02.08.2006

@<TRIPOS>MOLECULE
ASD03731033
  48   53    0    0    0
SMALL
NO_CHARGES


@<TRIPOS>ATOM
   1 O1             0.3484     1.4903    -0.9977 O.3     
   2 C2             0.4081     0.0569    -1.1193 C.3     
   3 O3             1.7621    -0.1953    -1.5384 O.3     
   4 C4             2.4956     0.8495    -1.0534 C.ar    
   5 C5             1.6260     1.8860    -0.7220 C.ar    
   6 C6             3.8574     1.0018    -0.8640 C.ar    
   7 C7             4.3686     2.1874    -0.3446 C.ar    
   8 C8             3.4908     3.2188    -0.0252 C.ar    
   9 C9             2.1319     3.0676    -0.2070 C.ar    
  10 O10            5.6585     2.5327    -0.0670 O.3     
  11 C11            4.3344     4.3595     0.4778 C.3     
  12 C12            5.7531     3.9660     0.0442 C.3     
  13 N13            3.6126     6.4800     0.9325 N.am    
  14 C14            3.9155     5.6774    -0.1073 C.2     
  15 C15            4.2314     4.5334     1.9641 C.ar    
  16 C16            4.4749     3.7062     3.0377 C.ar    
  17 C17            4.2820     4.1693     4.3270 C.ar    
  18 C18            3.8440     5.4646     4.5346 C.ar    
  19 C19            3.5978     6.2968     3.4625 C.ar    
  20 C20            3.7896     5.8392     2.1611 C.ar    
  21 O21            3.8609     5.9638    -1.2846 O.2     
  22 C22            3.1521     7.8635     0.7907 C.3     
  23 C23            1.6455     7.8955     0.8066 C.ar    
  24 C24            0.9790     9.1036     0.7166 C.ar    
  25 C25           -0.4028     9.1346     0.7315 C.ar    
  26 C26           -1.1199     7.9577     0.8364 C.ar    
  27 C27           -0.4537     6.7475     0.9262 C.ar    
  28 C28            0.9306     6.7172     0.9054 C.ar    
  29 C29            1.7597    10.3876     0.6026 C.3     
  30 F30            0.8735    11.4623     0.4728 F       
  31 F31            2.5398    10.5625     1.7507 F       
  32 F32            2.5906    10.3299    -0.5214 F       
  33 F33           -1.1536     5.5965     1.0292 F       
  34 H34            0.2101    -0.4175    -0.1581 H       
  35 H35           -0.2975    -0.2932    -1.8728 H       
  36 H36            4.5282     0.1953    -1.1205 H       
  37 H37            1.4608     3.8731     0.0525 H       
  38 H38            6.4823     4.2481     0.8037 H       
  39 H39            6.0019     4.4134    -0.9181 H       
  40 H40            4.8165     2.6949     2.8731 H       
  41 H41            4.4726     3.5208     5.1693 H       
  42 H42            3.6937     5.8262     5.5411 H       
  43 H43            3.2552     7.3068     3.6328 H       
  44 H44            3.5369     8.4611     1.6170 H       
  45 H45            3.5142     8.2720    -0.1527 H       
  46 H46           -0.9223    10.0789     0.6615 H       
  47 H47           -2.1996     7.9822     0.8488 H       
  48 H48            1.4514     5.7733     0.9709 H       
@<TRIPOS>BOND
   1    1    2 1
   2    1    5 1
   3    2    3 1
   4    2   34 1
   5    2   35 1
   6    3    4 1
   7    4    5 ar
   8    4    6 ar
   9    5    9 ar
  10    6    7 ar
  11    6   36 1
  12    7    8 ar
  13    7   10 1
  14    8    9 ar
  15    8   11 1
  16    9   37 1
  17   10   12 1
  18   11   12 1
  19   11   14 1
  20   11   15 1
  21   12   38 1
  22   12   39 1
  23   13   14 am
  24   13   20 1
  25   13   22 1
  26   14   21 2
  27   15   16 ar
  28   15   20 ar
  29   16   17 ar
  30   16   40 1
  31   17   18 ar
  32   17   41 1
  33   18   19 ar
  34   18   42 1
  35   19   20 ar
  36   19   43 1
  37   22   23 1
  38   22   44 1
  39   22   45 1
  40   23   24 ar
  41   23   28 ar
  42   24   25 ar
  43   24   29 1
  44   25   26 ar
  45   25   46 1
  46   26   27 ar
  47   26   47 1
  48   27   28 ar
  49   27   33 1
  50   28   48 1
  51   29   30 1
  52   29   31 1
  53   29   32 1

#	End of record

