#	Name: ASD03200040
#	Creating user name:	WinNT
#	Creation time:	15. 06. 2019 20:34

#	Modifying user name:	WinNT
#	Modification time:	15. 06. 2019 20:34

#	Program:	/corina/corina34_cracker 3.40 0067  02.08.2006

@<TRIPOS>MOLECULE
ASD03200040
  54   57    0    0    0
SMALL
NO_CHARGES


@<TRIPOS>ATOM
   1 C1             0.6019     0.1550     0.8908 C.3     
   2 N2             0.1161    -1.1395     0.3962 N.3     
   3 C3             0.3676    -2.2087     1.3708 C.3     
   4 C4             1.8744    -2.3488     1.5987 C.3     
   5 C5             2.4334    -1.0201     2.1150 C.3     
   6 C6             2.1157     0.0854     1.1044 C.3     
   7 C7            -1.2367    -1.0724     0.0662 C.ar    
   8 C8            -2.1986    -0.8187     1.0409 C.ar    
   9 C9            -3.5278    -0.7596     0.6741 C.ar    
  10 N10           -3.8948    -0.9394    -0.5806 N.ar    
  11 C11           -3.0182    -1.1822    -1.5369 C.ar    
  12 C12           -1.6640    -1.2525    -1.2548 C.ar    
  13 N13           -0.7371    -1.5101    -2.2738 N.am    
  14 C14           -1.0703    -2.3189    -3.2992 C.2     
  15 C15           -0.1504    -2.4893    -4.4265 C.2     
  16 O16           -2.1359    -2.9078    -3.2886 O.2     
  17 C17           -0.4326    -3.3006    -5.5031 C.2     
  18 S18            0.9280    -3.2180    -6.6193 S.3     
  19 C19            1.7565    -2.1006    -5.5413 C.2     
  20 N20            1.0273    -1.8672    -4.4978 N.2     
  21 C21            3.0876    -1.5108    -5.7933 C.ar    
  22 N22            2.1246    -3.4042     2.5894 N.3     
  23 N23           -1.5802    -4.0481    -5.6767 N.pl3   
  24 C24            3.7888    -1.8296    -6.9630 C.ar    
  25 C25            5.0358    -1.2711    -7.1903 C.ar    
  26 C26            5.5853    -0.4030    -6.2653 C.ar    
  27 C27            4.8956    -0.0855    -5.1083 C.ar    
  28 C28            3.6500    -0.6290    -4.8700 C.ar    
  29 O29            3.2484    -2.6832    -7.8707 O.3     
  30 C30            4.0214    -2.9615    -9.0399 C.3     
  31 H31            0.3734     0.9317     0.1609 H       
  32 H32            0.1122     0.3896     1.8359 H       
  33 H33           -0.1210    -1.9630     2.3136 H       
  34 H34           -0.0310    -3.1488     0.9895 H       
  35 H35            2.3621    -2.6081     0.6589 H       
  36 H36            1.9742    -0.7799     3.0740 H       
  37 H37            3.5133    -1.1022     2.2376 H       
  38 H38            2.6071    -0.1355     0.1569 H       
  39 H39            2.4736     1.0415     1.4863 H       
  40 H40           -1.9081    -0.6705     2.0705 H       
  41 H41           -4.2788    -0.5635     1.4252 H       
  42 H42           -3.3602    -1.3235    -2.5515 H       
  43 H43            0.1443    -1.1064    -2.2412 H       
  44 H44            3.1132    -3.5158     2.7571 H       
  45 H45            1.6308    -3.2173     3.4493 H       
  46 H46           -2.2777    -4.0295    -5.0030 H       
  47 H47           -1.6889    -4.5920    -6.4725 H       
  48 H48            5.5796    -1.5144    -8.0911 H       
  49 H49            6.5582     0.0295    -6.4465 H       
  50 H50            5.3325     0.5933    -4.3909 H       
  51 H51            3.1148    -0.3788    -3.9659 H       
  52 H52            4.9727    -3.4071    -8.7490 H       
  53 H53            3.4758    -3.6553    -9.6796 H       
  54 H54            4.2053    -2.0346    -9.5830 H       
@<TRIPOS>BOND
   1    1    2 1
   2    1    6 1
   3    1   31 1
   4    1   32 1
   5    2    3 1
   6    2    7 1
   7    3    4 1
   8    3   33 1
   9    3   34 1
  10    4    5 1
  11    4   22 1
  12    4   35 1
  13    5    6 1
  14    5   36 1
  15    5   37 1
  16    6   38 1
  17    6   39 1
  18    7    8 ar
  19    7   12 ar
  20    8    9 ar
  21    8   40 1
  22    9   10 ar
  23    9   41 1
  24   10   11 ar
  25   11   12 ar
  26   11   42 1
  27   12   13 1
  28   13   14 am
  29   13   43 1
  30   14   15 1
  31   14   16 2
  32   15   17 2
  33   15   20 1
  34   17   18 1
  35   17   23 1
  36   18   19 1
  37   19   20 2
  38   19   21 1
  39   21   24 ar
  40   21   28 ar
  41   22   44 1
  42   22   45 1
  43   23   46 1
  44   23   47 1
  45   24   25 ar
  46   24   29 1
  47   25   26 ar
  48   25   48 1
  49   26   27 ar
  50   26   49 1
  51   27   28 ar
  52   27   50 1
  53   28   51 1
  54   29   30 1
  55   30   52 1
  56   30   53 1
  57   30   54 1

#	End of record

