#	Name: ASD05303015
#	Creating user name:	WinNT
#	Creation time:	15. 06. 2019 20:58

#	Modifying user name:	WinNT
#	Modification time:	15. 06. 2019 20:58

#	Program:	/corina/corina34_cracker 3.40 0067  02.08.2006

@<TRIPOS>MOLECULE
ASD05303015
  39   42    0    0    0
SMALL
NO_CHARGES


@<TRIPOS>ATOM
   1 C1            -0.0367     1.3121     0.3162 C.ar    
   2 C2             0.0066    -0.0690     0.3127 C.ar    
   3 C3             1.2207    -0.7239     0.1980 C.ar    
   4 C4             2.3898     0.0082     0.0867 C.ar    
   5 C5             2.3491     1.4012     0.0866 C.ar    
   6 C6             1.1296     2.0481     0.2035 C.ar    
   7 O7             3.4928     2.1238    -0.0303 O.3     
   8 N8             3.6304    -0.6416    -0.0224 N.am    
   9 C9             4.6931     1.5180     0.1608 C.ar    
  10 C10            4.7903     0.1278     0.1668 C.ar    
  11 C11            6.0164    -0.4849     0.3580 C.ar    
  12 C12            7.1498     0.2871     0.5462 C.ar    
  13 C13            7.0562     1.6657     0.5430 C.ar    
  14 C14            5.8326     2.2825     0.3509 C.ar    
  15 S15            3.7224    -2.2599    -0.3618 S.o2    
  16 O16            2.5212    -2.5386    -1.0680 O.2     
  17 O17            4.9907    -2.4161    -0.9832 O.2     
  18 C18            3.7065    -3.0649     1.2637 C.3     
  19 C19            3.7868    -4.5591     1.0851 C.ar    
  20 C20            5.0186    -5.1851     1.0442 C.ar    
  21 C21            5.0922    -6.5557     0.8803 C.ar    
  22 C22            3.9340    -7.3004     0.7577 C.ar    
  23 C23            2.7022    -6.6745     0.7995 C.ar    
  24 C24            2.6284    -5.3044     0.9677 C.ar    
  25 H25           -0.9860     1.8197     0.4029 H       
  26 H26           -0.9073    -0.6378     0.3999 H       
  27 H27            1.2555    -1.8033     0.1956 H       
  28 H28            1.0892     3.1273     0.2063 H       
  29 H29            6.0886    -1.5625     0.3609 H       
  30 H30            8.1079    -0.1885     0.6960 H       
  31 H31            7.9426     2.2648     0.6910 H       
  32 H32            5.7659     3.3604     0.3491 H       
  33 H33            4.5610    -2.7223     1.8472 H       
  34 H34            2.7843    -2.8105     1.7862 H       
  35 H35            5.9234    -4.6033     1.1399 H       
  36 H36            6.0546    -7.0447     0.8476 H       
  37 H37            3.9916    -8.3711     0.6289 H       
  38 H38            1.7974    -7.2562     0.7034 H       
  39 H39            1.6661    -4.8154     1.0004 H       
@<TRIPOS>BOND
   1    1    2 ar
   2    1    6 ar
   3    1   25 1
   4    2    3 ar
   5    2   26 1
   6    3    4 ar
   7    3   27 1
   8    4    5 ar
   9    4    8 1
  10    5    6 ar
  11    5    7 1
  12    6   28 1
  13    7    9 1
  14    8   10 1
  15    8   15 am
  16    9   10 ar
  17    9   14 ar
  18   10   11 ar
  19   11   12 ar
  20   11   29 1
  21   12   13 ar
  22   12   30 1
  23   13   14 ar
  24   13   31 1
  25   14   32 1
  26   15   16 2
  27   15   17 2
  28   15   18 1
  29   18   19 1
  30   18   33 1
  31   18   34 1
  32   19   20 ar
  33   19   24 ar
  34   20   21 ar
  35   20   35 1
  36   21   22 ar
  37   21   36 1
  38   22   23 ar
  39   22   37 1
  40   23   24 ar
  41   23   38 1
  42   24   39 1

#	End of record

