#	Name: ASD08830250
#	Creating user name:	WinNT
#	Creation time:	15. 06. 2019 21:20

#	Modifying user name:	WinNT
#	Modification time:	15. 06. 2019 21:20

#	Program:	/corina/corina34_cracker 3.40 0067  02.08.2006

@<TRIPOS>MOLECULE
ASD08830250
  31   33    0    0    0
SMALL
NO_CHARGES


@<TRIPOS>ATOM
   1 C1            -0.0066     1.3503    -0.2017 C.ar    
   2 C2             0.0070    -0.0121     0.0182 C.ar    
   3 C3             1.2178    -0.6729     0.2286 C.ar    
   4 C4             2.4110     0.0468     0.2155 C.ar    
   5 C5             2.3876     1.4155    -0.0067 C.ar    
   6 C6             1.1767     2.0647    -0.2148 C.ar    
   7 C7             1.2348    -2.1347     0.4658 C.ar    
   8 C8             0.1967    -2.7620     1.1834 C.ar    
   9 C9             0.2675    -4.1574     1.3776 C.ar    
  10 N10            1.3057    -4.8229     0.8789 N.ar    
  11 C11            2.2523    -4.1929     0.2151 C.ar    
  12 N12            2.2270    -2.8888     0.0021 N.ar    
  13 C13           -0.9891    -2.3181     1.8064 C.2     
  14 N14           -1.5892    -3.3470     2.3335 N.2     
  15 N15           -0.8421    -4.5064     2.0897 N.pl3   
  16 Cl16           3.5836    -5.1135    -0.4123 Cl      
  17 N17            3.5824     2.1424    -0.0203 N.am    
  18 C18            4.7022     1.5889    -0.5265 C.2     
  19 C19            5.9326     2.3871    -0.6352 C.2     
  20 C20            7.0377     1.8409    -1.1348 C.2     
  21 O21            4.6951     0.4293    -0.8934 O.2     
  22 H22           -0.9445     1.8592    -0.3685 H       
  23 H23           -0.9196    -0.5668     0.0277 H       
  24 H24            3.3510    -0.4596     0.3782 H       
  25 H25            1.1602     3.1306    -0.3880 H       
  26 H26           -1.3397    -1.2972     1.8409 H       
  27 H27           -1.0742    -5.4032     2.3776 H       
  28 H28            3.6051     3.0449     0.3345 H       
  29 H29            5.9388     3.4168    -0.3094 H       
  30 H30            7.0315     0.8112    -1.4606 H       
  31 H31            7.9413     2.4270    -1.2146 H       
@<TRIPOS>BOND
   1    1    2 ar
   2    1    6 ar
   3    1   22 1
   4    2    3 ar
   5    2   23 1
   6    3    4 ar
   7    3    7 1
   8    4    5 ar
   9    4   24 1
  10    5    6 ar
  11    5   17 1
  12    6   25 1
  13    7    8 ar
  14    7   12 ar
  15    8    9 ar
  16    8   13 1
  17    9   10 ar
  18    9   15 1
  19   10   11 ar
  20   11   12 ar
  21   11   16 1
  22   13   14 2
  23   13   26 1
  24   14   15 1
  25   15   27 1
  26   17   18 am
  27   17   28 1
  28   18   19 1
  29   18   21 2
  30   19   20 2
  31   19   29 1
  32   20   30 1
  33   20   31 1

#	End of record

