#	Name: ASD03430073
#	Creating user name:	WinNT
#	Creation time:	15. 06. 2019 20:40

#	Modifying user name:	WinNT
#	Modification time:	15. 06. 2019 20:40

#	Program:	/corina/corina34_cracker 3.40 0067  02.08.2006

@<TRIPOS>MOLECULE
ASD03430073
  35   39    0    0    0
SMALL
NO_CHARGES


@<TRIPOS>ATOM
   1 C1            -0.0167     1.3805     0.0096 C.ar    
   2 C2             0.0021    -0.0041     0.0020 C.ar    
   3 C3             1.2035    -0.6812    -0.0137 C.ar    
   4 C4             2.4093     0.0134    -0.0128 C.ar    
   5 C5             2.3873     1.4047    -0.0096 C.ar    
   6 C6             1.1839     2.0868     0.0020 C.ar    
   7 O7             3.4719    -0.8415    -0.0030 O.3     
   8 C8             1.5519    -2.1453    -0.0463 C.3     
   9 C9             3.0370    -2.1457    -0.4333 C.3     
  10 C10            0.0831    -3.9066    -0.2914 C.ar    
  11 C11            0.7158    -2.9092    -1.0294 C.ar    
  12 C12            1.3203    -2.8143     1.2780 C.2     
  13 N13            0.4569    -3.8244     1.0520 N.am    
  14 O14            1.8134    -2.5062     2.3424 O.2     
  15 C15            0.4985    -2.7957    -2.3850 C.ar    
  16 C16           -0.3562    -3.6766    -3.0262 C.ar    
  17 C17           -0.9900    -4.6695    -2.3026 C.ar    
  18 C18           -0.7749    -4.7874    -0.9448 C.ar    
  19 Br19           1.3676    -1.4360    -3.3707 Br      
  20 O20           -1.0497     2.2734     0.0188 O.3     
  21 C21           -0.4713     3.5253     0.4329 C.3     
  22 O22            0.9020     3.4230     0.0084 O.3     
  23 C23           -0.0329    -4.7302     2.0940 C.3     
  24 H24           -0.9267    -0.5553     0.0088 H       
  25 H25            3.3160     1.9559    -0.0158 H       
  26 H26            3.1561    -2.2573    -1.5110 H       
  27 H27            3.5758    -2.9289     0.1000 H       
  28 H28           -0.5270    -3.5883    -4.0889 H       
  29 H29           -1.6571    -5.3562    -2.8026 H       
  30 H30           -1.2740    -5.5657    -0.3867 H       
  31 H31           -0.9638     4.3590    -0.0676 H       
  32 H32           -0.5334     3.6364     1.5154 H       
  33 H33            0.6341    -5.5889     2.1719 H       
  34 H34           -0.0613    -4.2046     3.0485 H       
  35 H35           -1.0357    -5.0713     1.8370 H       
@<TRIPOS>BOND
   1    1    2 ar
   2    1    6 ar
   3    1   20 1
   4    2    3 ar
   5    2   24 1
   6    3    4 ar
   7    3    8 1
   8    4    5 ar
   9    4    7 1
  10    5    6 ar
  11    5   25 1
  12    6   22 1
  13    7    9 1
  14    8    9 1
  15    8   11 1
  16    8   12 1
  17    9   26 1
  18    9   27 1
  19   10   11 ar
  20   10   13 1
  21   10   18 ar
  22   11   15 ar
  23   12   13 am
  24   12   14 2
  25   13   23 1
  26   15   16 ar
  27   15   19 1
  28   16   17 ar
  29   16   28 1
  30   17   18 ar
  31   17   29 1
  32   18   30 1
  33   20   21 1
  34   21   22 1
  35   21   31 1
  36   21   32 1
  37   23   33 1
  38   23   34 1
  39   23   35 1

#	End of record

