#	Name: ASD01410390
#	Creating user name:	WinNT
#	Creation time:	15. 06. 2019 19:17

#	Modifying user name:	WinNT
#	Modification time:	15. 06. 2019 19:17

#	Program:	/corina/corina34_cracker 3.40 0067  02.08.2006

@<TRIPOS>MOLECULE
ASD01410390
  35   37    0    0    0
SMALL
NO_CHARGES


@<TRIPOS>ATOM
   1 S1             0.0617     1.7569    -0.6238 S.3     
   2 C2             0.1472     0.0037    -0.8686 C.2     
   3 N3             1.4256    -0.3515    -0.6971 N.am    
   4 C4             2.3250     0.5724    -0.4026 C.2     
   5 C5             1.7960     1.9384    -0.2929 C.2     
   6 O6             3.5016     0.3107    -0.2351 O.2     
   7 S7            -1.1573    -1.0368    -1.2514 S.2     
   8 C8             2.4762     3.0763    -0.0055 C.2     
   9 C9             1.8032     4.3791    -0.1029 C.ar    
  10 C10            2.3160     5.4883     0.5794 C.ar    
  11 C11            1.6797     6.7070     0.4828 C.ar    
  12 C12            0.5348     6.8356    -0.2870 C.ar    
  13 C13            0.0212     5.7421    -0.9654 C.ar    
  14 C14            0.6497     4.5183    -0.8831 C.ar    
  15 Cl15          -0.2604     8.3745    -0.4017 Cl      
  16 N16            1.8088    -1.6926    -0.8282 N.am    
  17 C17            1.9001    -2.2509    -2.0515 C.2     
  18 O18            1.6500    -1.5907    -3.0411 O.2     
  19 C19            2.3045    -3.6662    -2.1899 C.ar    
  20 C20            2.4000    -4.2474    -3.4553 C.ar    
  21 C21            2.7784    -5.5684    -3.5775 C.ar    
  22 C22            3.0624    -6.3171    -2.4491 C.ar    
  23 C23            2.9696    -5.7470    -1.1918 C.ar    
  24 C24            2.5979    -4.4254    -1.0560 C.ar    
  25 H25            3.5123     3.0247     0.2950 H       
  26 H26            3.2079     5.3894     1.1804 H       
  27 H27            2.0742     7.5638     1.0087 H       
  28 H28           -0.8718     5.8499    -1.5632 H       
  29 H29            0.2506     3.6678    -1.4158 H       
  30 H30            2.0083    -2.2194    -0.0386 H       
  31 H31            2.1779    -3.6643    -4.3368 H       
  32 H32            2.8527    -6.0194    -4.5560 H       
  33 H33            3.3574    -7.3510    -2.5501 H       
  34 H34            3.1926    -6.3368    -0.3150 H       
  35 H35            2.5262    -3.9815    -0.0741 H       
@<TRIPOS>BOND
   1    1    2 1
   2    1    5 1
   3    2    3 am
   4    2    7 2
   5    3    4 am
   6    3   16 1
   7    4    5 1
   8    4    6 2
   9    5    8 2
  10    8    9 1
  11    8   25 1
  12    9   10 ar
  13    9   14 ar
  14   10   11 ar
  15   10   26 1
  16   11   12 ar
  17   11   27 1
  18   12   13 ar
  19   12   15 1
  20   13   14 ar
  21   13   28 1
  22   14   29 1
  23   16   17 am
  24   16   30 1
  25   17   18 2
  26   17   19 1
  27   19   20 ar
  28   19   24 ar
  29   20   21 ar
  30   20   31 1
  31   21   22 ar
  32   21   32 1
  33   22   23 ar
  34   22   33 1
  35   23   24 ar
  36   23   34 1
  37   24   35 1

#	End of record

