#	Name: ASD01810620
#	Creating user name:	WinNT
#	Creation time:	15. 06. 2019 19:25

#	Modifying user name:	WinNT
#	Modification time:	15. 06. 2019 19:25

#	Program:	/corina/corina34_cracker 3.40 0067  02.08.2006

@<TRIPOS>MOLECULE
ASD01810620
  61   64    0    0    0
SMALL
NO_CHARGES


@<TRIPOS>ATOM
   1 N1            -0.0206     1.3152    -0.0847 N.2     
   2 C2             0.0002    -0.0022    -0.0268 C.2     
   3 C3            -1.1818    -0.8877     0.0078 C.2     
   4 N4            -2.4163    -0.3596     0.1239 N.am    
   5 O5            -1.0408    -2.0928    -0.0684 O.2     
   6 C6            -3.6081    -1.2128     0.0218 C.3     
   7 C7            -4.5420    -0.6298    -1.0435 C.3     
   8 C8            -4.8428     0.8326    -0.7074 C.3     
   9 C9            -3.5411     1.6374    -0.7135 C.3     
  10 C10           -2.5957     1.0793     0.3611 C.3     
  11 C11           -5.7885     1.3996    -1.7347 C.ar    
  12 C12           -7.0217     1.8874    -1.3403 C.ar    
  13 C13           -7.8920     2.4082    -2.2754 C.ar    
  14 C14           -7.5259     2.4423    -3.6224 C.ar    
  15 C15           -6.2798     1.9483    -4.0133 C.ar    
  16 C16           -5.4171     1.4351    -3.0671 C.ar    
  17 C17           -8.4245     2.9810    -4.5985 C.1     
  18 N18           -9.1374     3.4084    -5.3729 N.1     
  19 C19            1.3472    -0.4181    -0.0045 C.2     
  20 C20            2.1254     0.6937    -0.0510 C.2     
  21 N21            1.3023     1.7749    -0.1009 N.pl3   
  22 N22            3.5194     0.7217    -0.0476 N.am    
  23 C23            4.2164    -0.4306     0.0056 C.2     
  24 O24            3.6295    -1.4947     0.0506 O.2     
  25 C25            5.6912    -0.4010     0.0091 C.ar    
  26 C26            6.3749     0.8147    -0.0423 C.ar    
  27 N27            7.6914     0.8420    -0.0396 N.ar    
  28 C28            8.4102    -0.2711     0.0119 C.ar    
  29 C29            7.7936    -1.5201     0.0654 C.ar    
  30 C30            6.4270    -1.5947     0.0701 C.ar    
  31 N31            9.7925    -0.1917     0.0119 N.pl3   
  32 C32           10.5965    -1.4150     0.0685 C.3     
  33 C33           11.9709    -1.1511    -0.5499 C.3     
  34 C34           10.7675    -1.8459     1.5266 C.3     
  35 H35           -3.3117    -2.2218    -0.2647 H       
  36 H36           -4.1217    -1.2396     0.9829 H       
  37 H37           -4.0608    -0.6872    -2.0198 H       
  38 H38           -5.4722    -1.1977    -1.0619 H       
  39 H39           -5.3014     0.8914     0.2797 H       
  40 H40           -3.0693     1.5587    -1.6930 H       
  41 H41           -3.7589     2.6832    -0.4971 H       
  42 H42           -3.0285     1.2411     1.3483 H       
  43 H43           -1.6309     1.5822     0.2959 H       
  44 H44           -7.3037     1.8601    -0.2982 H       
  45 H45           -8.8545     2.7883    -1.9663 H       
  46 H46           -5.9905     1.9713    -5.0536 H       
  47 H47           -4.4530     1.0526    -3.3680 H       
  48 H48            1.6975    -1.4386     0.0418 H       
  49 H49            1.5824     2.7027    -0.1413 H       
  50 H50            3.9875     1.5705    -0.0835 H       
  51 H51            5.8199     1.7402    -0.0849 H       
  52 H52            8.3887    -2.4204     0.1071 H       
  53 H53            5.9263    -2.5507     0.1111 H       
  54 H54           10.2286     0.6740    -0.0255 H       
  55 H55           10.0937    -2.2063    -0.4876 H       
  56 H56           12.4737    -0.3599     0.0063 H       
  57 H57           12.5691    -2.0614    -0.5078 H       
  58 H58           11.8490    -0.8442    -1.5886 H       
  59 H59            9.7884    -2.0339     1.9671 H       
  60 H60           11.3657    -2.7561     1.5687 H       
  61 H61           11.2703    -1.0547     2.0827 H       
@<TRIPOS>BOND
   1    1    2 2
   2    1   21 1
   3    2    3 1
   4    2   19 1
   5    3    4 am
   6    3    5 2
   7    4    6 1
   8    4   10 1
   9    6    7 1
  10    6   35 1
  11    6   36 1
  12    7    8 1
  13    7   37 1
  14    7   38 1
  15    8    9 1
  16    8   11 1
  17    8   39 1
  18    9   10 1
  19    9   40 1
  20    9   41 1
  21   10   42 1
  22   10   43 1
  23   11   12 ar
  24   11   16 ar
  25   12   13 ar
  26   12   44 1
  27   13   14 ar
  28   13   45 1
  29   14   15 ar
  30   14   17 1
  31   15   16 ar
  32   15   46 1
  33   16   47 1
  34   17   18 3
  35   19   20 2
  36   19   48 1
  37   20   21 1
  38   20   22 1
  39   21   49 1
  40   22   23 am
  41   22   50 1
  42   23   24 2
  43   23   25 1
  44   25   26 ar
  45   25   30 ar
  46   26   27 ar
  47   26   51 1
  48   27   28 ar
  49   28   29 ar
  50   28   31 1
  51   29   30 ar
  52   29   52 1
  53   30   53 1
  54   31   32 1
  55   31   54 1
  56   32   33 1
  57   32   34 1
  58   32   55 1
  59   33   56 1
  60   33   57 1
  61   33   58 1
  62   34   59 1
  63   34   60 1
  64   34   61 1

#	End of record

