#	Name: ASD07310004
#	Creating user name:	WinNT
#	Creation time:	15. 06. 2019 21:11

#	Modifying user name:	WinNT
#	Modification time:	15. 06. 2019 21:11

#	Program:	/corina/corina34_cracker 3.40 0067  02.08.2006

@<TRIPOS>MOLECULE
ASD07310004
  22   22    0    0    0
SMALL
NO_CHARGES


@<TRIPOS>ATOM
   1 C1            -0.0167     1.3831     0.0096 C.ar    
   2 C2             0.0021    -0.0041     0.0020 C.ar    
   3 C3             1.2167    -0.6658    -0.0131 C.ar    
   4 N4             2.3512     0.0033    -0.0204 N.ar    
   5 C5             2.3766     1.3296    -0.0135 C.ar    
   6 C6             1.1909     2.0604     0.0018 C.ar    
   7 C7             3.6788     2.0405    -0.0216 C.ar    
   8 N8             3.7042     3.3669    -0.0147 N.ar    
   9 C9             4.8387     4.0359    -0.0211 C.ar    
  10 C10            6.0533     3.3742    -0.0353 C.ar    
  11 C11            6.0722     1.9870    -0.0429 C.ar    
  12 C12            4.8646     1.3097    -0.0306 C.ar    
  13 H13           -0.9523     1.9226     0.0170 H       
  14 H14           -0.9227    -0.5619     0.0082 H       
  15 H15            1.2350    -1.7456    -0.0187 H       
  16 H16            1.2132     3.1401     0.0070 H       
  17 H17            4.8204     5.1157    -0.0155 H       
  18 H18            6.9781     3.9320    -0.0408 H       
  19 H19            7.0077     1.4476    -0.0540 H       
  20 H20            4.8422     0.2300    -0.0360 H       
  21 Zn21          12.0077    10.1157     5.0170 Du      
  22 Zn22          12.0077    12.2557     5.0170 Du      
@<TRIPOS>BOND
   1    1    2 ar
   2    1    6 ar
   3    1   13 1
   4    2    3 ar
   5    2   14 1
   6    3    4 ar
   7    3   15 1
   8    4    5 ar
   9    5    6 ar
  10    5    7 1
  11    6   16 1
  12    7    8 ar
  13    7   12 ar
  14    8    9 ar
  15    9   10 ar
  16    9   17 1
  17   10   11 ar
  18   10   18 1
  19   11   12 ar
  20   11   19 1
  21   12   20 1
  22   21   22 1

#	End of record

