#	Name: ASD03430957
#	Creating user name:	WinNT
#	Creation time:	15. 06. 2019 20:41

#	Modifying user name:	WinNT
#	Modification time:	15. 06. 2019 20:41

#	Program:	/corina/corina34_cracker 3.40 0067  02.08.2006

@<TRIPOS>MOLECULE
ASD03430957
  43   48    0    0    0
SMALL
NO_CHARGES


@<TRIPOS>ATOM
   1 O1            -0.0175     1.4356     0.0099 O.3     
   2 C2             0.0021    -0.0041     0.0020 C.3     
   3 O3             1.2460    -0.3260    -0.6475 O.3     
   4 C4             2.0712     0.7343    -0.4029 C.ar    
   5 C5             1.2935     1.8176    -0.0005 C.ar    
   6 C6             3.4456     0.8640    -0.4907 C.ar    
   7 C7             4.0607     2.0736    -0.1822 C.ar    
   8 C8             3.2724     3.1520     0.2082 C.ar    
   9 C9             1.9024     3.0236     0.3036 C.ar    
  10 O10            5.3838     2.4045    -0.1850 O.3     
  11 C11            4.2094     4.3071     0.4389 C.3     
  12 C12            5.5149     3.8388    -0.2182 C.3     
  13 N13            3.6154     6.4780     0.8317 N.am    
  14 C14            3.7018     5.5818    -0.1716 C.2     
  15 C15            4.3933     4.6120     1.8961 C.ar    
  16 C16            4.8258     3.8733     2.9750 C.ar    
  17 C17            4.8916     4.4451     4.2354 C.ar    
  18 C18            4.5220     5.7610     4.4167 C.ar    
  19 C19            4.0809     6.5205     3.3328 C.ar    
  20 C20            4.0140     5.9417     2.0522 C.ar    
  21 C21            3.6979     7.8871     3.5232 C.1     
  22 N22            3.3941     8.9713     3.6742 N.1     
  23 O23            3.4243     5.7682    -1.3374 O.2     
  24 C24            3.1548     7.8577     0.6571 C.3     
  25 C25            1.6617     7.9173     0.8522 C.2     
  26 C26            1.0467     8.1313     2.0159 C.2     
  27 C27           -0.3365     8.1437     1.9515 C.2     
  28 C28           -0.8440     7.9395     0.7337 C.2     
  29 S29            0.4645     7.7229    -0.4215 S.3     
  30 Cl30          -2.5362     7.9010     0.3481 Cl      
  31 H31           -0.0100    -0.3928     1.0203 H       
  32 H32           -0.8403    -0.3953    -0.5684 H       
  33 H33            4.0453     0.0209    -0.8003 H       
  34 H34            1.3030     3.8659     0.6162 H       
  35 H35            6.3785     4.1621     0.3629 H       
  36 H36            5.5817     4.1977    -1.2453 H       
  37 H37            5.1158     2.8421     2.8377 H       
  38 H38            5.2323     3.8596     5.0765 H       
  39 H39            4.5738     6.2046     5.4000 H       
  40 H40            3.6430     8.4993     1.3907 H       
  41 H41            3.4039     8.1995    -0.3475 H       
  42 H42            1.5865     8.2831     2.9389 H       
  43 H43           -0.9574     8.3058     2.8202 H       
@<TRIPOS>BOND
   1    1    2 1
   2    1    5 1
   3    2    3 1
   4    2   31 1
   5    2   32 1
   6    3    4 1
   7    4    5 ar
   8    4    6 ar
   9    5    9 ar
  10    6    7 ar
  11    6   33 1
  12    7    8 ar
  13    7   10 1
  14    8    9 ar
  15    8   11 1
  16    9   34 1
  17   10   12 1
  18   11   12 1
  19   11   14 1
  20   11   15 1
  21   12   35 1
  22   12   36 1
  23   13   14 am
  24   13   20 1
  25   13   24 1
  26   14   23 2
  27   15   16 ar
  28   15   20 ar
  29   16   17 ar
  30   16   37 1
  31   17   18 ar
  32   17   38 1
  33   18   19 ar
  34   18   39 1
  35   19   20 ar
  36   19   21 1
  37   21   22 3
  38   24   25 1
  39   24   40 1
  40   24   41 1
  41   25   26 2
  42   25   29 1
  43   26   27 1
  44   26   42 1
  45   27   28 2
  46   27   43 1
  47   28   29 1
  48   28   30 1

#	End of record

