#	Name: ASD01840053
#	Creating user name:	WinNT
#	Creation time:	15. 06. 2019 19:37

#	Modifying user name:	WinNT
#	Modification time:	15. 06. 2019 19:37

#	Program:	/corina/corina34_cracker 3.40 0067  02.08.2006

@<TRIPOS>MOLECULE
ASD01840053
  52   55    0    0    0
SMALL
NO_CHARGES


@<TRIPOS>ATOM
   1 C1            -0.0146     1.3305     0.0354 C.ar    
   2 N2             0.2795     0.4954     1.0209 N.ar    
   3 C3             1.4188    -0.1727     1.0342 C.ar    
   4 N4             2.3139    -0.0479     0.0819 N.ar    
   5 C5             0.9179     1.5029    -1.0194 C.ar    
   6 C6             0.8553     2.3379    -2.2041 C.2     
   7 C7             2.1075     0.7721    -0.9563 C.ar    
   8 S8             3.1019     1.1417    -2.3576 S.3     
   9 C9             1.9096     2.2597    -2.9927 C.2     
  10 C10           -0.3234     3.2256    -2.5102 C.3     
  11 C11            2.0692     3.0329    -4.2763 C.3     
  12 N12           -1.2143     2.0191     0.0323 N.3     
  13 C13           -2.3498     1.0971    -0.0976 C.3     
  14 C14           -3.6453     1.8987    -0.2437 C.3     
  15 C15           -3.8279     2.7929     0.9858 C.3     
  16 C16           -2.6095     3.7096     1.1258 C.3     
  17 C17           -1.3441     2.8556     1.2322 C.3     
  18 C18           -5.0708     3.6288     0.8204 C.2     
  19 O19           -5.7452     3.5210    -0.1818 O.2     
  20 N20           -5.4329     4.4963     1.7862 N.am    
  21 C21           -6.5274     5.3382     1.5926 C.ar    
  22 C22           -8.7163     5.7143     0.6879 C.ar    
  23 C23           -7.6338     4.8857     0.8806 C.ar    
  24 C24           -6.5131     6.6270     2.1167 C.ar    
  25 C25           -7.5924     7.4605     1.9281 C.ar    
  26 C26           -8.7031     7.0110     1.2089 C.ar    
  27 C27           -9.8617     7.9022     1.0039 C.2     
  28 O28          -10.8289     7.5084     0.3812 O.2     
  29 N29           -9.8474     9.1525     1.5069 N.am    
  30 H30            1.6210    -0.8437     1.8560 H       
  31 H31           -0.2055     4.1775    -1.9925 H       
  32 H32           -0.3770     3.4007    -3.5848 H       
  33 H33           -1.2402     2.7407    -2.1749 H       
  34 H34            2.5522     3.9876    -4.0678 H       
  35 H35            2.6824     2.4598    -4.9718 H       
  36 H36            1.0886     3.2106    -4.7178 H       
  37 H37           -2.2096     0.4700    -0.9780 H       
  38 H38           -2.4103     0.4679     0.7904 H       
  39 H39           -3.5911     2.5178    -1.1392 H       
  40 H40           -4.4896     1.2141    -0.3245 H       
  41 H41           -3.9211     2.1722     1.8769 H       
  42 H42           -2.5390     4.3573     0.2519 H       
  43 H43           -2.7138     4.3190     2.0236 H       
  44 H44           -1.4092     2.2181     2.1140 H       
  45 H45           -0.4733     3.5056     1.3177 H       
  46 H46           -4.9322     4.5349     2.6161 H       
  47 H47           -9.5746     5.3625     0.1348 H       
  48 H48           -7.6433     3.8835     0.4782 H       
  49 H49           -5.6544     6.9737     2.6724 H       
  50 H50           -7.5810     8.4605     2.3358 H       
  51 H51           -9.0758     9.4666     2.0037 H       
  52 H52          -10.6088     9.7382     1.3722 H       
@<TRIPOS>BOND
   1    1    2 ar
   2    1    5 ar
   3    1   12 1
   4    2    3 ar
   5    3    4 ar
   6    3   30 1
   7    4    7 ar
   8    5    7 ar
   9    5    6 1
  10    6    9 2
  11    6   10 1
  12    7    8 1
  13    8    9 1
  14    9   11 1
  15   10   31 1
  16   10   32 1
  17   10   33 1
  18   11   34 1
  19   11   35 1
  20   11   36 1
  21   12   13 1
  22   12   17 1
  23   13   14 1
  24   13   37 1
  25   13   38 1
  26   14   15 1
  27   14   39 1
  28   14   40 1
  29   15   16 1
  30   15   18 1
  31   15   41 1
  32   16   17 1
  33   16   42 1
  34   16   43 1
  35   17   44 1
  36   17   45 1
  37   18   19 2
  38   18   20 am
  39   20   21 1
  40   20   46 1
  41   21   24 ar
  42   21   23 ar
  43   22   23 ar
  44   22   26 ar
  45   22   47 1
  46   23   48 1
  47   24   25 ar
  48   24   49 1
  49   25   26 ar
  50   25   50 1
  51   26   27 1
  52   27   28 2
  53   27   29 am
  54   29   51 1
  55   29   52 1

#	End of record

