#	Name: ASD01816111
#	Creating user name:	WinNT
#	Creation time:	15. 06. 2019 19:34

#	Modifying user name:	WinNT
#	Modification time:	15. 06. 2019 19:34

#	Program:	/corina/corina34_cracker 3.40 0067  02.08.2006

@<TRIPOS>MOLECULE
ASD01816111
  60   65    0    0    0
SMALL
NO_CHARGES


@<TRIPOS>ATOM
   1 C1            -0.5555     0.7490     0.2106 C.ar    
   2 C2            -0.2908    -0.6110     0.2073 C.ar    
   3 C3             1.0053    -1.0747     0.1167 C.ar    
   4 C4             2.0621    -0.1757     0.0275 C.ar    
   5 C5             1.7903     1.2027     0.0307 C.ar    
   6 C6             0.4791     1.6578     0.1225 C.ar    
   7 N7             3.3650    -0.6344    -0.0627 N.pl3   
   8 C8             4.4245     0.1857    -0.1506 C.2     
   9 C9             4.2821     1.5510    -0.1569 C.2     
  10 C10            2.9263     2.1392    -0.0649 C.2     
  11 C11            5.1877     2.6929    -0.2370 C.2     
  12 N12            4.4084     3.7950    -0.1934 N.am    
  13 N13            3.0626     3.4338    -0.0906 N.2     
  14 O14            6.4044     2.6587    -0.3250 O.2     
  15 C15            3.5985    -2.0807    -0.0616 C.3     
  16 C16            3.5742    -2.5945    -1.4781 C.ar    
  17 C17            4.7378    -2.6426    -2.2228 C.ar    
  18 N18            4.7298    -3.0902    -3.4622 N.ar    
  19 C19            3.6131    -3.5101    -4.0429 C.ar    
  20 C20            2.4037    -3.4893    -3.3502 C.ar    
  21 C21            2.3842    -3.0292    -2.0454 C.ar    
  22 C22            4.8817     5.1124    -0.2440 C.ar    
  23 C23            4.5414     6.0143     0.7585 C.ar    
  24 C24            5.6964     5.5193    -1.2920 C.ar    
  25 C25            6.1617     6.8190    -1.3392 C.ar    
  26 C26            5.8174     7.7159    -0.3444 C.ar    
  27 C27            5.0110     7.3141     0.7045 C.ar    
  28 F28            3.7531     5.6216     1.7830 F       
  29 C29            3.6519    -4.0050    -5.4399 C.ar    
  30 C30            4.8580    -4.0283    -6.1393 C.ar    
  31 C31            4.8916    -4.4888    -7.4380 C.ar    
  32 C32            3.7244    -4.9297    -8.0506 C.ar    
  33 C33            2.5208    -4.9070    -7.3557 C.ar    
  34 C34            2.4833    -4.4532    -6.0547 C.ar    
  35 N35            3.7609    -5.3962    -9.3675 N.am    
  36 C36            4.8303    -6.0883    -9.8079 C.2     
  37 O37            5.7964    -6.2338    -9.0891 O.2     
  38 C38            4.8257    -6.6813   -11.1933 C.3     
  39 H39           -1.5750     1.0988     0.2779 H       
  40 H40           -1.1070    -1.3148     0.2767 H       
  41 H41            1.1993    -2.1372     0.1155 H       
  42 H42            0.2718     2.7177     0.1248 H       
  43 H43            5.4148    -0.2400    -0.2179 H       
  44 H44            4.5704    -2.2914     0.3847 H       
  45 H45            2.8181    -2.5743     0.5174 H       
  46 H46            5.6659    -2.3086    -1.7830 H       
  47 H47            1.4954    -3.8313    -3.8238 H       
  48 H48            1.4624    -3.0016    -1.4834 H       
  49 H49            5.9665     4.8201    -2.0695 H       
  50 H50            6.7957     7.1353    -2.1543 H       
  51 H51            6.1833     8.7312    -0.3843 H       
  52 H52            4.7440     8.0169     1.4798 H       
  53 H53            5.7651    -3.6855    -5.6638 H       
  54 H54            5.8255    -4.5067    -7.9802 H       
  55 H55            1.6150    -5.2494    -7.8340 H       
  56 H56            1.5479    -4.4357    -5.5151 H       
  57 H57            3.0166    -5.2218    -9.9646 H       
  58 H58            3.8813    -6.4484   -11.6850 H       
  59 H59            5.6493    -6.2615   -11.7709 H       
  60 H60            4.9433    -7.7628   -11.1259 H       
@<TRIPOS>BOND
   1    1    2 ar
   2    1    6 ar
   3    1   39 1
   4    2    3 ar
   5    2   40 1
   6    3    4 ar
   7    3   41 1
   8    4    5 ar
   9    4    7 1
  10    5    6 ar
  11    5   10 1
  12    6   42 1
  13    7    8 1
  14    7   15 1
  15    8    9 2
  16    8   43 1
  17    9   10 1
  18    9   11 1
  19   10   13 2
  20   11   12 am
  21   11   14 2
  22   12   13 1
  23   12   22 1
  24   15   16 1
  25   15   44 1
  26   15   45 1
  27   16   17 ar
  28   16   21 ar
  29   17   18 ar
  30   17   46 1
  31   18   19 ar
  32   19   20 ar
  33   19   29 1
  34   20   21 ar
  35   20   47 1
  36   21   48 1
  37   22   23 ar
  38   22   24 ar
  39   23   28 1
  40   23   27 ar
  41   24   25 ar
  42   24   49 1
  43   25   26 ar
  44   25   50 1
  45   26   27 ar
  46   26   51 1
  47   27   52 1
  48   29   30 ar
  49   29   34 ar
  50   30   31 ar
  51   30   53 1
  52   31   32 ar
  53   31   54 1
  54   32   33 ar
  55   32   35 1
  56   33   34 ar
  57   33   55 1
  58   34   56 1
  59   35   36 am
  60   35   57 1
  61   36   37 2
  62   36   38 1
  63   38   58 1
  64   38   59 1
  65   38   60 1

#	End of record

