#	Name: ASD01883979
#	Creating user name:	WinNT
#	Creation time:	15. 06. 2019 19:47

#	Modifying user name:	WinNT
#	Modification time:	15. 06. 2019 19:47

#	Program:	/corina/corina34_cracker 3.40 0067  02.08.2006

@<TRIPOS>MOLECULE
ASD01883979
  53   55    0    0    0
SMALL
NO_CHARGES


@<TRIPOS>ATOM
   1 C1            -0.0187     1.5258     0.0104 C.3     
   2 C2             0.0021    -0.0041     0.0020 C.3     
   3 C3             0.7182    -0.4975    -1.2568 C.3     
   4 C4             0.7386    -2.0043    -1.2651 C.2     
   5 C5             1.6987    -2.8070    -0.7266 C.2     
   6 N6             1.3355    -4.0960    -0.9561 N.2     
   7 C7             0.1973    -4.1134    -1.6140 C.2     
   8 O8            -0.6840    -4.9965    -2.1541 O.3     
   9 C9            -1.9353    -4.3150    -2.3570 C.3     
  10 H10           -2.5815    -4.4229    -1.4858 H       
  11 C11           -2.6354    -4.8259    -3.6179 C.3     
  12 O12           -3.0243    -6.1878    -3.4281 O.3     
  13 C13           -3.6634    -6.7966    -4.4614 C.ar    
  14 C14           -3.9059    -6.0994    -5.6360 C.ar    
  15 C15           -4.5553    -6.7207    -6.6852 C.ar    
  16 C16           -4.9639    -8.0361    -6.5651 C.ar    
  17 C17           -4.7237    -8.7330    -5.3953 C.ar    
  18 C18           -4.0692    -8.1182    -4.3456 C.ar    
  19 C19           -5.6725    -8.7113    -7.7110 C.3     
  20 C20           -6.0135   -10.1513    -7.3224 C.3     
  21 C21           -6.9608    -7.9512    -8.0329 C.3     
  22 C22           -4.7627    -8.7168    -8.9411 C.3     
  23 F23           -3.5848    -9.4117    -8.6468 F       
  24 F24           -5.4206    -9.3435   -10.0049 F       
  25 F25           -4.4510    -7.4000    -9.2964 F       
  26 C26           -1.4847    -2.8456    -2.5293 C.3     
  27 N27           -0.2010    -2.8256    -1.8065 N.pl3   
  28 C28            2.9120    -2.3583    -0.0230 C.2     
  29 N29            3.7833    -3.2646     0.4628 N.am    
  30 O30            3.1279    -1.1698     0.1197 O.2     
  31 H31            1.0039     1.9031     0.0027 H       
  32 H32           -0.5459     1.8868    -0.8726 H       
  33 H33           -0.5289     1.8773     0.9072 H       
  34 H34            0.5293    -0.3651     0.8851 H       
  35 H35           -1.0205    -0.3814     0.0098 H       
  36 H36            0.1910    -0.1364    -2.1398 H       
  37 H37            1.7408    -0.1202    -1.2645 H       
  38 H38           -3.5196    -4.2193    -3.8135 H       
  39 H39           -1.9531    -4.7575    -4.4652 H       
  40 H40           -3.5876    -5.0716    -5.7300 H       
  41 H41           -4.7443    -6.1783    -7.5998 H       
  42 H42           -5.0442    -9.7603    -5.3039 H       
  43 H43           -3.8780    -8.6643    -3.4337 H       
  44 H44           -6.6616   -10.1474    -6.4461 H       
  45 H45           -6.5260   -10.6396    -8.1512 H       
  46 H46           -5.0957   -10.6928    -7.0931 H       
  47 H47           -6.7179    -6.9253    -8.3097 H       
  48 H48           -7.4733    -8.4395    -8.8617 H       
  49 H49           -7.6089    -7.9473    -7.1565 H       
  50 H50           -1.3443    -2.6041    -3.5829 H       
  51 H51           -2.1983    -2.1643    -2.0660 H       
  52 H52            3.6111    -4.2124     0.3489 H       
  53 H53            4.5825    -2.9690     0.9263 H       
@<TRIPOS>BOND
   1    1    2 1
   2    1   31 1
   3    1   32 1
   4    1   33 1
   5    2    3 1
   6    2   34 1
   7    2   35 1
   8    3    4 1
   9    3   36 1
  10    3   37 1
  11    4   27 1
  12    4    5 2
  13    5    6 1
  14    5   28 1
  15    6    7 2
  16    7   27 1
  17    7    8 1
  18    8    9 1
  19    9   10 1
  20    9   11 1
  21    9   26 1
  22   11   12 1
  23   11   38 1
  24   11   39 1
  25   12   13 1
  26   13   18 ar
  27   13   14 ar
  28   14   15 ar
  29   14   40 1
  30   15   16 ar
  31   15   41 1
  32   16   17 ar
  33   16   19 1
  34   17   18 ar
  35   17   42 1
  36   18   43 1
  37   19   20 1
  38   19   21 1
  39   19   22 1
  40   20   44 1
  41   20   45 1
  42   20   46 1
  43   21   47 1
  44   21   48 1
  45   21   49 1
  46   22   23 1
  47   22   24 1
  48   22   25 1
  49   26   27 1
  50   26   50 1
  51   26   51 1
  52   28   29 am
  53   28   30 2
  54   29   52 1
  55   29   53 1

#	End of record

