#	Name: ASD01440110
#	Creating user name:	WinNT
#	Creation time:	15. 06. 2019 19:21

#	Modifying user name:	WinNT
#	Modification time:	15. 06. 2019 19:21

#	Program:	/corina/corina34_cracker 3.40 0067  02.08.2006

@<TRIPOS>MOLECULE
ASD01440110
  57   60    0    0    0
SMALL
NO_CHARGES


@<TRIPOS>ATOM
   1 N1            -0.0161     1.3392     0.0094 N.am    
   2 C2             0.0021    -0.0041     0.0020 C.2     
   3 C3             1.4546    -0.4304    -0.0141 C.3     
   4 C4             2.2189     0.8739    -0.0144 C.ar    
   5 C5             3.5597     1.1678    -0.0256 C.ar    
   6 C6             3.9787     2.5024    -0.0225 C.ar    
   7 C7             3.0242     3.5236    -0.0079 C.ar    
   8 C8             1.6837     3.2180     0.0033 C.ar    
   9 C9             1.2639     1.8861     0.0001 C.ar    
  10 C10            5.3749     2.8201    -0.0336 C.1     
  11 N11            6.4826     3.0721    -0.0424 N.1     
  12 O12           -0.9638    -0.7375     0.0073 O.2     
  13 C13            1.6041    -0.6896     2.4825 C.ar    
  14 C14            1.7828    -1.2348     1.2173 C.ar    
  15 C15            2.2659    -2.5264     1.1029 C.ar    
  16 C16            2.5545    -3.2307     2.2640 C.ar    
  17 C17            2.3525    -2.6260     3.4884 C.ar    
  18 N18            1.8905    -1.3923     3.5656 N.ar    
  19 O19            1.1365     0.5779     2.6080 O.3     
  20 C20            0.9745     1.0811     3.9356 C.3     
  21 C21            0.4420     2.5142     3.8764 C.3     
  22 S22           -1.4043     2.2421     0.0210 S.o2    
  23 O23           -1.0619     3.5113    -0.5187 O.2     
  24 O24           -2.4248     1.4161    -0.5224 O.2     
  25 C25           -1.8329     2.5180     1.7077 C.ar    
  26 C26           -2.1882     1.4477     2.5168 C.ar    
  27 C27           -2.5253     1.6654     3.8436 C.ar    
  28 C28           -2.5066     2.9524     4.3591 C.ar    
  29 C29           -2.1508     4.0190     3.5462 C.ar    
  30 C30           -1.8096     3.7987     2.2252 C.ar    
  31 O31           -2.8370     3.1690     5.6594 O.3     
  32 C32           -2.7961     4.5202     6.1227 C.3     
  33 O33           -2.2059     0.1875     2.0086 O.3     
  34 C34           -2.5812    -0.8657     2.8985 C.3     
  35 N35            1.7515    -1.2015    -1.2287 N.3     
  36 H36            4.2888     0.3712    -0.0365 H       
  37 H37            3.3408     4.5562    -0.0050 H       
  38 H38            0.9516     4.0120     0.0145 H       
  39 H39            2.4146    -2.9766     0.1325 H       
  40 H40            2.9326    -4.2409     2.2099 H       
  41 H41            2.5751    -3.1696     4.3947 H       
  42 H42            0.2680     0.4531     4.4785 H       
  43 H43            1.9367     1.0718     4.4476 H       
  44 H44            1.1485     3.1421     3.3335 H       
  45 H45           -0.5202     2.5234     3.3644 H       
  46 H46            0.3184     2.8980     4.8891 H       
  47 H47           -2.8023     0.8339     4.4747 H       
  48 H48           -2.1361     5.0217     3.9472 H       
  49 H49           -1.5286     4.6297     1.5952 H       
  50 H50           -3.0811     4.5525     7.1743 H       
  51 H51           -1.7859     4.9132     6.0079 H       
  52 H52           -3.4900     5.1255     5.5395 H       
  53 H53           -2.5542    -1.8171     2.3674 H       
  54 H54           -1.8857    -0.8979     3.7372 H       
  55 H55           -3.5900    -0.6854     3.2699 H       
  56 H56            1.1967    -2.0434    -1.2672 H       
  57 H57            1.6146    -0.6401    -2.0559 H       
@<TRIPOS>BOND
   1    1    2 am
   2    1    9 1
   3    1   22 am
   4    2    3 1
   5    2   12 2
   6    3    4 1
   7    3   14 1
   8    3   35 1
   9    4    5 ar
  10    4    9 ar
  11    5    6 ar
  12    5   36 1
  13    6    7 ar
  14    6   10 1
  15    7    8 ar
  16    7   37 1
  17    8    9 ar
  18    8   38 1
  19   10   11 3
  20   13   14 ar
  21   13   18 ar
  22   13   19 1
  23   14   15 ar
  24   15   16 ar
  25   15   39 1
  26   16   17 ar
  27   16   40 1
  28   17   18 ar
  29   17   41 1
  30   19   20 1
  31   20   21 1
  32   20   42 1
  33   20   43 1
  34   21   44 1
  35   21   45 1
  36   21   46 1
  37   22   23 2
  38   22   24 2
  39   22   25 1
  40   25   26 ar
  41   25   30 ar
  42   26   27 ar
  43   26   33 1
  44   27   28 ar
  45   27   47 1
  46   28   29 ar
  47   28   31 1
  48   29   30 ar
  49   29   48 1
  50   30   49 1
  51   31   32 1
  52   32   50 1
  53   32   51 1
  54   32   52 1
  55   33   34 1
  56   34   53 1
  57   34   54 1
  58   34   55 1
  59   35   56 1
  60   35   57 1

#	End of record

