#	Name: ASD01915406
#	Creating user name:	WinNT
#	Creation time:	15. 06. 2019 20:05

#	Modifying user name:	WinNT
#	Modification time:	15. 06. 2019 20:05

#	Program:	/corina/corina34_cracker 3.40 0067  02.08.2006

@<TRIPOS>MOLECULE
ASD01915406
  37   39    0    0    0
SMALL
NO_CHARGES


@<TRIPOS>ATOM
   1 C1             0.0195     1.4342     0.0177 C.ar    
   2 C2             1.2689     2.0219     0.0126 C.ar    
   3 N3             2.3632     1.2850    -0.0041 N.ar    
   4 C4             2.3094    -0.0375    -0.0161 C.ar    
   5 C5             1.0848    -0.6963    -0.0115 C.ar    
   6 C6            -0.0804     0.0494     0.0054 C.ar    
   7 N7             3.4904    -0.7761    -0.0340 N.am    
   8 C8             4.6772    -0.1468    -0.1437 C.2     
   9 C9             5.9358    -0.9191    -0.0478 C.ar    
  10 O10            4.7136     1.0550    -0.3213 O.2     
  11 N11            5.8866    -2.2320     0.1464 N.ar    
  12 C12            6.9767    -2.9587     0.2379 C.ar    
  13 C13            8.2389    -2.3689     0.1335 C.ar    
  14 C14            8.3302    -0.9891    -0.0712 C.ar    
  15 C15            7.1592    -0.2601    -0.1682 C.ar    
  16 C16            1.3842     3.5244     0.0258 C.3     
  17 C17            9.4654    -3.1954     0.2388 C.ar    
  18 C18            9.3662    -4.5705     0.4434 C.ar    
  19 C19           10.5125    -5.3371     0.5404 C.ar    
  20 C20           11.7582    -4.7406     0.4352 C.ar    
  21 C21           11.8617    -3.3743     0.2319 C.ar    
  22 C22           10.7210    -2.6004     0.1278 C.ar    
  23 F23           13.0794    -2.7980     0.1300 F       
  24 F24           10.4177    -6.6701     0.7387 F       
  25 H25           -0.8708     2.0453     0.0355 H       
  26 H26            1.0438    -1.7755    -0.0217 H       
  27 H27           -1.0459    -0.4346     0.0094 H       
  28 H28            3.4586    -1.7433     0.0324 H       
  29 H29            6.8966    -4.0241     0.3961 H       
  30 H30            9.2918    -0.5049    -0.1555 H       
  31 H31            7.1916     0.8078    -0.3266 H       
  32 H32            1.4207     3.8770     1.0566 H       
  33 H33            2.2949     3.8235    -0.4930 H       
  34 H34            0.5203     3.9595    -0.4766 H       
  35 H35            8.3954    -5.0364     0.5263 H       
  36 H36           12.6516    -5.3425     0.5123 H       
  37 H37           10.8026    -1.5353    -0.0311 H       
@<TRIPOS>BOND
   1    1    2 ar
   2    1    6 ar
   3    1   25 1
   4    2    3 ar
   5    2   16 1
   6    3    4 ar
   7    4    5 ar
   8    4    7 1
   9    5    6 ar
  10    5   26 1
  11    6   27 1
  12    7    8 am
  13    7   28 1
  14    8    9 1
  15    8   10 2
  16    9   11 ar
  17    9   15 ar
  18   11   12 ar
  19   12   13 ar
  20   12   29 1
  21   13   14 ar
  22   13   17 1
  23   14   15 ar
  24   14   30 1
  25   15   31 1
  26   16   32 1
  27   16   33 1
  28   16   34 1
  29   17   18 ar
  30   17   22 ar
  31   18   19 ar
  32   18   35 1
  33   19   20 ar
  34   19   24 1
  35   20   21 ar
  36   20   36 1
  37   21   22 ar
  38   21   23 1
  39   22   37 1

#	End of record

