#	Name: ASD01230841
#	Creating user name:	WinNT
#	Creation time:	15. 06. 2019 19:15

#	Modifying user name:	WinNT
#	Modification time:	15. 06. 2019 19:15

#	Program:	/corina/corina34_cracker 3.40 0067  02.08.2006

@<TRIPOS>MOLECULE
ASD01230841
  49   52    0    0    0
SMALL
NO_CHARGES


@<TRIPOS>ATOM
   1 C1             0.0244     1.5934    -0.8737 C.3     
   2 C2            -0.1154     0.1871    -0.2844 C.3     
   3 C3            -1.5089    -0.3757    -0.5257 C.3     
   4 C4            -2.5700     0.7103    -0.6371 C.3     
   5 N5            -2.1904     1.9057     0.1193 N.pl3   
   6 C6            -0.9769     2.4812    -0.1547 C.2     
   7 C7            -3.0688     2.4399     1.1570 C.3     
   8 C8            -3.3028     3.9309     0.9090 C.3     
   9 S9            -1.7054     4.7796     0.8007 S.o2    
  10 N10           -0.6754     3.6892     0.1206 N.am    
  11 C11            1.4225     2.1084    -0.6476 C.ar    
  12 O12           -1.7684     5.8358    -0.1478 O.2     
  13 O13           -1.1711     4.9984     2.0991 O.2     
  14 C14            2.2167     2.4460    -1.7280 C.ar    
  15 C15            3.4985     2.9187    -1.5235 C.ar    
  16 C16            3.9888     3.0546    -0.2326 C.ar    
  17 C17            3.1897     2.7150     0.8498 C.ar    
  18 C18            1.9068     2.2478     0.6400 C.ar    
  19 O19            5.2495     3.5189    -0.0287 O.3     
  20 C20            5.4245     4.8605     0.0808 C.ar    
  21 C21            4.3203     5.7048     0.0933 C.ar    
  22 C22            4.4934     7.0664     0.2047 C.ar    
  23 C23            5.7817     7.5992     0.3054 C.ar    
  24 C24            6.8891     6.7469     0.2924 C.ar    
  25 C25            6.7068     5.3857     0.1860 C.ar    
  26 C26            7.9002     4.4655     0.1725 C.3     
  27 C27            5.9664     9.0145     0.4209 C.1     
  28 N28            6.1129    10.1373     0.5126 N.1     
  29 H29           -0.1954     1.5723    -1.9411 H       
  30 H30            0.6203    -0.4695    -0.7488 H       
  31 H31            0.0719     0.2293     0.7886 H       
  32 H32           -1.4996    -0.9547    -1.4491 H       
  33 H33           -1.7687    -1.0381     0.3000 H       
  34 H34           -2.6982     0.9776    -1.6860 H       
  35 H35           -3.5142     0.3277    -0.2496 H       
  36 H36           -4.0228     1.9133     1.1320 H       
  37 H37           -2.6035     2.3025     2.1331 H       
  38 H38           -3.8489     4.0630    -0.0250 H       
  39 H39           -3.8822     4.3499     1.7318 H       
  40 H40            1.8347     2.3397    -2.7325 H       
  41 H41            4.1185     3.1820    -2.3677 H       
  42 H42            3.5691     2.8195     1.8556 H       
  43 H43            1.2844     1.9833     1.4821 H       
  44 H44            3.3252     5.2924     0.0151 H       
  45 H45            3.6350     7.7217     0.2140 H       
  46 H46            7.8862     7.1545     0.3700 H       
  47 H47            8.1425     4.1697     1.1932 H       
  48 H48            7.6686     3.5788    -0.4176 H       
  49 H49            8.7527     4.9825    -0.2680 H       
@<TRIPOS>BOND
   1    1    2 1
   2    1   11 1
   3    1    6 1
   4    1   29 1
   5    2    3 1
   6    2   30 1
   7    2   31 1
   8    3    4 1
   9    3   32 1
  10    3   33 1
  11    4    5 1
  12    4   34 1
  13    4   35 1
  14    5    6 1
  15    5    7 1
  16    6   10 2
  17    7    8 1
  18    7   36 1
  19    7   37 1
  20    8    9 1
  21    8   38 1
  22    8   39 1
  23    9   10 am
  24    9   12 2
  25    9   13 2
  26   11   14 ar
  27   11   18 ar
  28   14   15 ar
  29   14   40 1
  30   15   16 ar
  31   15   41 1
  32   16   17 ar
  33   16   19 1
  34   17   18 ar
  35   17   42 1
  36   18   43 1
  37   19   20 1
  38   20   21 ar
  39   20   25 ar
  40   21   22 ar
  41   21   44 1
  42   22   23 ar
  43   22   45 1
  44   23   24 ar
  45   23   27 1
  46   24   25 ar
  47   24   46 1
  48   25   26 1
  49   26   47 1
  50   26   48 1
  51   26   49 1
  52   27   28 3

#	End of record

