#	Name: ASD01870435
#	Creating user name:	WinNT
#	Creation time:	15. 06. 2019 19:39

#	Modifying user name:	WinNT
#	Modification time:	15. 06. 2019 19:39

#	Program:	/corina/corina34_cracker 3.40 0067  02.08.2006

@<TRIPOS>MOLECULE
ASD01870435
  53   56    0    0    0
SMALL
NO_CHARGES


@<TRIPOS>ATOM
   1 N1            -0.0162     1.3436     0.0094 N.am    
   2 C2             0.0021    -0.0041     0.0020 C.2     
   3 C3            -1.2926    -0.7753     0.0102 C.3     
   4 O4             1.0605    -0.5961    -0.0113 O.2     
   5 C5            -1.1041    -2.3031     0.0002 C.3     
   6 N6            -2.1920    -2.3432     0.9966 N.am    
   7 C7            -1.8956    -0.9592     1.4147 C.3     
   8 S8            -3.3003    -3.4832     1.4596 S.o2    
   9 C9            -2.5707    -4.4221     2.7598 C.ar    
  10 C10           -1.8299    -5.5514     2.4639 C.ar    
  11 O11           -4.3876    -2.7742     2.0378 O.2     
  12 O12           -3.4480    -4.3695     0.3587 O.2     
  13 C13           -2.7353    -4.0252     4.0740 C.ar    
  14 C14           -2.1639    -4.7593     5.0953 C.ar    
  15 C15           -1.4248    -5.8960     4.8013 C.ar    
  16 C16           -1.2568    -6.2892     3.4816 C.ar    
  17 C17            1.2357     2.1156     0.0016 C.3     
  18 C18            1.1612     3.1524    -1.1243 C.3     
  19 N19           -0.0610     3.9524    -0.9688 N.3     
  20 C20           -1.2637     3.1194    -1.1013 C.3     
  21 C21           -1.2886     2.0812     0.0194 C.3     
  22 C22           -0.0840     5.0090    -1.8742 C.ar    
  23 C23           -1.1551     5.9018    -1.9050 C.ar    
  24 C24            0.9662     5.2062    -2.7706 C.ar    
  25 C25            0.9051     6.2651    -3.6518 C.ar    
  26 N26           -0.1292     7.0852    -3.6534 N.ar    
  27 C27           -1.1396     6.9356    -2.8174 C.ar    
  28 O28           -0.8614    -6.6197     5.8042 O.3     
  29 C29           -0.1142    -7.7781     5.4276 C.3     
  30 F30           -0.9483    -8.6691     4.7438 F       
  31 F31            0.9453    -7.3996     4.5960 F       
  32 H32           -2.0058    -0.4162    -0.7318 H       
  33 H33           -1.3611    -2.7713    -0.9500 H       
  34 H34           -0.1396    -2.6293     0.3895 H       
  35 H35           -1.1636    -0.8907     2.2195 H       
  36 H36           -2.7845    -0.3544     1.5939 H       
  37 H37           -1.6993    -5.8571     1.4363 H       
  38 H38           -3.3108    -3.1402     4.3023 H       
  39 H39           -2.2922    -4.4485     6.1216 H       
  40 H40           -0.6822    -7.1739     3.2502 H       
  41 H41            1.3592     2.6225     0.9586 H       
  42 H42            2.0778     1.4458    -0.1725 H       
  43 H43            2.0323     3.8057    -1.0753 H       
  44 H44            1.1421     2.6426    -2.0875 H       
  45 H45           -2.1512     3.7488    -1.0356 H       
  46 H46           -1.2490     2.6100    -2.0648 H       
  47 H47           -2.1158     1.3897    -0.1405 H       
  48 H48           -1.4069     2.5823     0.9801 H       
  49 H49           -1.9852     5.7849    -1.2240 H       
  50 H50            1.8156     4.5391    -2.7743 H       
  51 H51            1.7139     6.4257    -4.3492 H       
  52 H52           -1.9670     7.6289    -2.8516 H       
  53 H53            0.2802    -8.2623     6.3209 H       
@<TRIPOS>BOND
   1    1    2 am
   2    1   17 1
   3    1   21 1
   4    2    3 1
   5    2    4 2
   6    3    5 1
   7    3    7 1
   8    3   32 1
   9    5    6 1
  10    5   33 1
  11    5   34 1
  12    6    7 1
  13    6    8 am
  14    7   35 1
  15    7   36 1
  16    8    9 1
  17    8   11 2
  18    8   12 2
  19    9   13 ar
  20    9   10 ar
  21   10   16 ar
  22   10   37 1
  23   13   14 ar
  24   13   38 1
  25   14   15 ar
  26   14   39 1
  27   15   16 ar
  28   15   28 1
  29   16   40 1
  30   17   18 1
  31   17   41 1
  32   17   42 1
  33   18   19 1
  34   18   43 1
  35   18   44 1
  36   19   20 1
  37   19   22 1
  38   20   21 1
  39   20   45 1
  40   20   46 1
  41   21   47 1
  42   21   48 1
  43   22   23 ar
  44   22   24 ar
  45   23   27 ar
  46   23   49 1
  47   24   25 ar
  48   24   50 1
  49   25   26 ar
  50   25   51 1
  51   26   27 ar
  52   27   52 1
  53   28   29 1
  54   29   30 1
  55   29   31 1
  56   29   53 1

#	End of record

