#	Name: ASD01915557
#	Creating user name:	WinNT
#	Creation time:	15. 06. 2019 20:05

#	Modifying user name:	WinNT
#	Modification time:	15. 06. 2019 20:05

#	Program:	/corina/corina34_cracker 3.40 0067  02.08.2006

@<TRIPOS>MOLECULE
ASD01915557
  45   48    0    0    0
SMALL
NO_CHARGES


@<TRIPOS>ATOM
   1 C1            -0.0042     1.4685     0.2349 C.2     
   2 N2             0.0662     0.1191    -0.0301 N.pl3   
   3 C3            -1.1429    -0.6636    -0.3130 C.3     
   4 C4            -2.3280    -0.0486     0.4295 C.3     
   5 N5            -2.4044     1.3987     0.2638 N.am    
   6 C6            -1.2935     2.1742     0.2863 C.2     
   7 C7             1.2763     1.9058     0.4260 C.2     
   8 C8             2.0758     0.7649     0.2737 C.2     
   9 N9             1.2864    -0.2504     0.0108 N.2     
  10 C10            3.5773     0.7129     0.3912 C.3     
  11 O11            4.0776     2.0187     0.6856 O.3     
  12 C12            5.4234     2.1469     0.8246 C.ar    
  13 O13           -1.3590     3.3875     0.3458 O.2     
  14 C14            5.9774     3.3862     1.1108 C.ar    
  15 C15            6.2451     1.0377     0.6862 C.ar    
  16 C16            7.6128     1.1707     0.8279 C.ar    
  17 C17            8.1629     2.4080     1.1075 C.ar    
  18 C18            7.3457     3.5140     1.2516 C.ar    
  19 C19           -3.6548     2.0006     0.0770 C.ar    
  20 C20           -4.5852     2.0026     1.1074 C.ar    
  21 C21           -5.8193     2.5960     0.9232 C.ar    
  22 C22           -6.1296     3.1897    -0.2903 C.ar    
  23 C23           -5.1995     3.1891    -1.3225 C.ar    
  24 C24           -3.9625     2.6007    -1.1372 C.ar    
  25 F25           -5.5021     3.7678    -2.5052 F       
  26 O26           -7.3452     3.7728    -0.4708 O.3     
  27 C27           -8.2526     3.7362     0.6326 C.3     
  28 H28           -1.3403    -0.6536    -1.3849 H       
  29 H29           -0.9977    -1.6910     0.0211 H       
  30 H30           -3.2488    -0.4952     0.0543 H       
  31 H31           -2.2354    -0.2771     1.4912 H       
  32 H32            1.6014     2.9119     0.6462 H       
  33 H33            3.8556     0.0281     1.1922 H       
  34 H34            4.0035     0.3641    -0.5495 H       
  35 H35            5.3395     4.2505     1.2231 H       
  36 H36            5.8158     0.0710     0.4682 H       
  37 H37            8.2528     0.3074     0.7206 H       
  38 H38            9.2324     2.5099     1.2179 H       
  39 H39            7.7779     4.4794     1.4696 H       
  40 H40           -4.3445     1.5399     2.0530 H       
  41 H41           -6.5428     2.5968     1.7251 H       
  42 H42           -3.2388     2.6001    -1.9389 H       
  43 H43           -8.4614     2.6996     0.8970 H       
  44 H44           -7.8070     4.2464     1.4865 H       
  45 H45           -9.1815     4.2347     0.3557 H       
@<TRIPOS>BOND
   1    1    2 1
   2    1    7 2
   3    1    6 1
   4    2    3 1
   5    2    9 1
   6    3    4 1
   7    3   28 1
   8    3   29 1
   9    4    5 1
  10    4   30 1
  11    4   31 1
  12    5    6 am
  13    5   19 1
  14    6   13 2
  15    7    8 1
  16    7   32 1
  17    8    9 2
  18    8   10 1
  19   10   11 1
  20   10   33 1
  21   10   34 1
  22   11   12 1
  23   12   14 ar
  24   12   15 ar
  25   14   18 ar
  26   14   35 1
  27   15   16 ar
  28   15   36 1
  29   16   17 ar
  30   16   37 1
  31   17   18 ar
  32   17   38 1
  33   18   39 1
  34   19   20 ar
  35   19   24 ar
  36   20   21 ar
  37   20   40 1
  38   21   22 ar
  39   21   41 1
  40   22   23 ar
  41   22   26 1
  42   23   24 ar
  43   23   25 1
  44   24   42 1
  45   26   27 1
  46   27   43 1
  47   27   44 1
  48   27   45 1

#	End of record

