#	Name: ASD01208520
#	Creating user name:	WinNT
#	Creation time:	15. 06. 2019 19:09

#	Modifying user name:	WinNT
#	Modification time:	15. 06. 2019 19:09

#	Program:	/corina/corina34_cracker 3.40 0067  02.08.2006

@<TRIPOS>MOLECULE
ASD01208520
  41   42    0    0    0
SMALL
NO_CHARGES


@<TRIPOS>ATOM
   1 N1            -0.0167     1.3797     0.0096 N.am    
   2 C2             0.0021    -0.0041     0.0020 C.2     
   3 C3             1.3223    -0.4000    -0.0127 C.2     
   4 C4             2.1040     0.7610    -0.0139 C.2     
   5 C5             1.2705     1.8280    -0.0003 C.2     
   6 C6            -1.1205     2.1530     0.0193 C.2     
   7 O7            -1.6126     2.4956     1.0752 O.2     
   8 O8            -1.6773     2.5453    -1.1411 O.3     
   9 C9            -1.1660    -0.8857     0.0092 C.2     
  10 O10           -1.0169    -2.0929     0.0012 O.2     
  11 O11           -2.4082    -0.3595     0.0246 O.3     
  12 Br12           1.8045     3.6420     0.0038 Br      
  13 C13           -2.8645     3.3768    -1.0547 C.3     
  14 C14           -2.5302     4.6665    -0.3024 C.3     
  15 C15           -3.3505     3.7200    -2.4643 C.3     
  16 C16           -3.9638     2.6202    -0.3064 C.3     
  17 C17           -3.5022    -1.2789     0.0308 C.3     
  18 C18           -4.8007    -0.5143     0.0481 C.ar    
  19 C19           -5.4085    -0.1573    -1.1410 C.ar    
  20 C20           -6.5996     0.5440    -1.1252 C.ar    
  21 C21           -7.1832     0.8879     0.0799 C.ar    
  22 C22           -6.5759     0.5301     1.2690 C.ar    
  23 C23           -5.3870    -0.1750     1.2531 C.ar    
  24 H24            1.6858    -1.4169    -0.0211 H       
  25 H25            3.1833     0.7991    -0.0240 H       
  26 H26           -1.7471     5.2056    -0.8355 H       
  27 H27           -3.4214     5.2907    -0.2376 H       
  28 H28           -2.1840     4.4220     0.7018 H       
  29 H29           -3.5886     2.8013    -3.0003 H       
  30 H30           -4.2417     4.3443    -2.3995 H       
  31 H31           -2.5673     4.2591    -2.9974 H       
  32 H32           -3.6176     2.3757     0.6978 H       
  33 H33           -4.8550     3.2444    -0.2416 H       
  34 H34           -4.2019     1.7014    -0.8424 H       
  35 H35           -3.4588    -1.9012    -0.8630 H       
  36 H36           -3.4407    -1.9107     0.9168 H       
  37 H37           -4.9525    -0.4259    -2.0825 H       
  38 H38           -7.0741     0.8236    -2.0542 H       
  39 H39           -8.1135     1.4364     0.0923 H       
  40 H40           -7.0317     0.7990     2.2104 H       
  41 H41           -4.9145    -0.4578     2.1821 H       
@<TRIPOS>BOND
   1    1    2 1
   2    1    5 1
   3    1    6 am
   4    2    3 2
   5    2    9 1
   6    3    4 1
   7    3   24 1
   8    4    5 2
   9    4   25 1
  10    5   12 1
  11    6    7 2
  12    6    8 1
  13    8   13 1
  14    9   10 2
  15    9   11 1
  16   11   17 1
  17   13   14 1
  18   13   16 1
  19   13   15 1
  20   14   26 1
  21   14   27 1
  22   14   28 1
  23   15   29 1
  24   15   30 1
  25   15   31 1
  26   16   32 1
  27   16   33 1
  28   16   34 1
  29   17   18 1
  30   17   35 1
  31   17   36 1
  32   18   19 ar
  33   18   23 ar
  34   19   20 ar
  35   19   37 1
  36   20   21 ar
  37   20   38 1
  38   21   22 ar
  39   21   39 1
  40   22   23 ar
  41   22   40 1
  42   23   41 1

#	End of record

