#	Name: ASD06170338
#	Creating user name:	WinNT
#	Creation time:	15. 06. 2019 21:05

#	Modifying user name:	WinNT
#	Modification time:	15. 06. 2019 21:05

#	Program:	/corina/corina34_cracker 3.40 0067  02.08.2006

@<TRIPOS>MOLECULE
ASD06170338
  74   78    0    0    0
SMALL
NO_CHARGES


@<TRIPOS>ATOM
   1 N1            -0.1917     1.5371    -0.3468 N.am    
   2 N2             0.2587     0.2971     0.1157 N.pl3   
   3 C3             1.4907     0.0472    -0.3673 C.2     
   4 C4             1.8771     1.1134    -1.1557 C.2     
   5 C5             0.7651     2.0768    -1.1302 C.2     
   6 C6             3.1473     1.2573    -1.8772 C.2     
   7 O7             3.9868     0.3787    -1.8123 O.2     
   8 N8             3.3838     2.3624    -2.6115 N.am    
   9 C9            -0.4973    -0.5977     0.9954 C.3     
  10 C10           -1.0599    -3.1261     2.0646 C.3     
  11 C11            4.5377     2.4451    -3.4005 C.ar    
  12 C12            5.0565     1.3020    -3.9939 C.ar    
  13 C13            6.1959     1.3847    -4.7727 C.ar    
  14 C14            6.8206     2.6114    -4.9609 C.ar    
  15 C15            6.3017     3.7524    -4.3673 C.ar    
  16 C16            5.1601     3.6713    -3.5943 C.ar    
  17 O17            7.9414     2.6932    -5.7268 O.3     
  18 N18            7.4520     2.9735    -9.8122 N.ar    
  19 C19            8.6912     3.0697    -9.3161 C.ar    
  20 C20            8.9027     2.9787    -7.9187 C.ar    
  21 C21            7.7885     2.7867    -7.0704 C.ar    
  22 C22            6.5367     2.6966    -7.6538 C.ar    
  23 C23            6.4108     2.7948    -9.0335 C.ar    
  24 O24            0.7177     3.1493    -1.7031 O.2     
  25 C25           -1.4293     2.1182    -0.0517 C.ar    
  26 C26           10.2023     3.0789    -7.4011 C.ar    
  27 C27           11.2548     3.2632    -8.2440 C.ar    
  28 C28           11.0576     3.3545    -9.6249 C.ar    
  29 C29            9.7943     3.2604   -10.1634 C.ar    
  30 C30           -1.8692     2.1883     1.2638 C.ar    
  31 C31           -3.0918     2.7627     1.5518 C.ar    
  32 C32           -3.8777     3.2673     0.5320 C.ar    
  33 C33           -3.4426     3.1990    -0.7788 C.ar    
  34 C34           -2.2183     2.6315    -1.0729 C.ar    
  35 O35           12.1249     3.5385   -10.4447 O.3     
  36 C36           13.4100     3.6289    -9.8262 C.3     
  37 C37           -1.2216    -1.6494     0.1526 C.3     
  38 C38           -2.2098    -0.9569    -0.7880 C.3     
  39 N39           -1.9496    -2.5691     1.0369 N.3     
  40 C40           -2.5975    -3.6385     0.2657 C.3     
  41 C41            2.3101    -1.1875    -0.0932 C.3     
  42 F42            6.7019     0.2730    -5.3501 F       
  43 H43            2.7547     3.1005    -2.5935 H       
  44 H44            0.1867    -1.0927     1.6848 H       
  45 H45           -1.2278    -0.0193     1.5610 H       
  46 H46           -0.7413    -2.3311     2.7389 H       
  47 H47           -1.5922    -3.8908     2.6303 H       
  48 H48           -0.1861    -3.5695     1.5872 H       
  49 H49            4.5706     0.3488    -3.8468 H       
  50 H50            6.7879     4.7056    -4.5136 H       
  51 H51            4.7538     4.5612    -3.1367 H       
  52 H52            5.6612     2.5502    -7.0386 H       
  53 H53            5.4290     2.7231    -9.4776 H       
  54 H54           10.3675     3.0103    -6.3360 H       
  55 H55           12.2539     3.3402    -7.8413 H       
  56 H56            9.6527     3.3318   -11.2317 H       
  57 H57           -1.2562     1.7938     2.0606 H       
  58 H58           -3.4345     2.8175     2.5745 H       
  59 H59           -4.8337     3.7153     0.7598 H       
  60 H60           -4.0589     3.5937    -1.5730 H       
  61 H61           -1.8790     2.5785    -2.0969 H       
  62 H62           14.1721     3.7750   -10.5917 H       
  63 H63           13.4224     4.4720    -9.1356 H       
  64 H64           13.6158     2.7085    -9.2797 H       
  65 H65           -0.4933    -2.2095    -0.4339 H       
  66 H66           -1.6696    -0.2744    -1.4442 H       
  67 H67           -2.7258    -1.7061    -1.3885 H       
  68 H68           -2.9381    -0.3968    -0.2015 H       
  69 H69           -1.8409    -4.2031    -0.2791 H       
  70 H70           -3.1293    -4.3050     0.9447 H       
  71 H71           -3.3030    -3.2009    -0.4405 H       
  72 H72            2.0479    -1.9644    -0.8113 H       
  73 H73            3.3695    -0.9487    -0.1868 H       
  74 H74            2.1056    -1.5424     0.9169 H       
@<TRIPOS>BOND
   1    1    2 1
   2    1    5 am
   3    1   25 1
   4    2    3 1
   5    2    9 1
   6    3    4 2
   7    3   41 1
   8    4    5 1
   9    4    6 1
  10    5   24 2
  11    6    7 2
  12    6    8 am
  13    8   11 1
  14    8   43 1
  15    9   37 1
  16    9   44 1
  17    9   45 1
  18   10   39 1
  19   10   46 1
  20   10   47 1
  21   10   48 1
  22   11   12 ar
  23   11   16 ar
  24   12   13 ar
  25   12   49 1
  26   13   14 ar
  27   13   42 1
  28   14   15 ar
  29   14   17 1
  30   15   16 ar
  31   15   50 1
  32   16   51 1
  33   17   21 1
  34   18   19 ar
  35   18   23 ar
  36   19   20 ar
  37   19   29 ar
  38   20   21 ar
  39   20   26 ar
  40   21   22 ar
  41   22   23 ar
  42   22   52 1
  43   23   53 1
  44   25   30 ar
  45   25   34 ar
  46   26   27 ar
  47   26   54 1
  48   27   28 ar
  49   27   55 1
  50   28   29 ar
  51   28   35 1
  52   29   56 1
  53   30   31 ar
  54   30   57 1
  55   31   32 ar
  56   31   58 1
  57   32   33 ar
  58   32   59 1
  59   33   34 ar
  60   33   60 1
  61   34   61 1
  62   35   36 1
  63   36   62 1
  64   36   63 1
  65   36   64 1
  66   37   38 1
  67   37   39 1
  68   37   65 1
  69   38   66 1
  70   38   67 1
  71   38   68 1
  72   39   40 1
  73   40   69 1
  74   40   70 1
  75   40   71 1
  76   41   72 1
  77   41   73 1
  78   41   74 1

#	End of record

