#	Name: ASD01916470
#	Creating user name:	WinNT
#	Creation time:	15. 06. 2019 20:07

#	Modifying user name:	WinNT
#	Modification time:	15. 06. 2019 20:07

#	Program:	/corina/corina34_cracker 3.40 0067  02.08.2006

@<TRIPOS>MOLECULE
ASD01916470
  21   21    0    0    0
SMALL
NO_CHARGES


@<TRIPOS>ATOM
   1 C1            -0.0184     1.5028     0.0103 C.2     
   2 C2             0.0021    -0.0041     0.0020 C.3     
   3 N3             1.0915     2.1639     0.0033 N.2     
   4 N4            -1.2203     2.1751     0.0197 N.pl3   
   5 C5             1.4295    -0.4870    -0.0142 C.ar    
   6 C6             2.0956    -0.7149     1.1754 C.ar    
   7 C7             3.4050    -1.1579     1.1606 C.ar    
   8 C8             4.0481    -1.3733    -0.0440 C.ar    
   9 C9             3.3817    -1.1463    -1.2336 C.ar    
  10 C10            2.0709    -0.7075    -1.2187 C.ar    
  11 O11            1.0723     3.5797     0.0110 O.3     
  12 H12           -0.4983    -0.3791     0.8948 H       
  13 H13           -0.5153    -0.3696    -0.8850 H       
  14 H14           -2.0537     1.6787     0.0209 H       
  15 H15           -1.2334     3.1450     0.0250 H       
  16 H16            1.5932    -0.5466     2.1165 H       
  17 H17            3.9256    -1.3353     2.0900 H       
  18 H18            5.0713    -1.7187    -0.0556 H       
  19 H19            3.8843    -1.3143    -2.1747 H       
  20 H20            1.5491    -0.5336    -2.1482 H       
  21 H21            1.9502     3.9850     0.0048 H       
@<TRIPOS>BOND
   1    1    2 1
   2    1    3 2
   3    1    4 1
   4    2    5 1
   5    2   12 1
   6    2   13 1
   7    3   11 1
   8    4   14 1
   9    4   15 1
  10    5    6 ar
  11    5   10 ar
  12    6    7 ar
  13    6   16 1
  14    7    8 ar
  15    7   17 1
  16    8    9 ar
  17    8   18 1
  18    9   10 ar
  19    9   19 1
  20   10   20 1
  21   11   21 1

#	End of record

