#	Name: ASD02480003
#	Creating user name:	WinNT
#	Creation time:	15. 06. 2019 20:22

#	Modifying user name:	WinNT
#	Modification time:	15. 06. 2019 20:22

#	Program:	/corina/corina34_cracker 3.40 0067  02.08.2006

@<TRIPOS>MOLECULE
ASD02480003
  37   38    0    0    0
SMALL
NO_CHARGES


@<TRIPOS>ATOM
   1 C1            -0.0167     1.3823     0.0096 C.ar    
   2 C2             0.0021    -0.0041     0.0020 C.ar    
   3 C3            -1.1845    -0.7195     0.0095 C.ar    
   4 C4            -2.3927    -0.0570     0.0241 C.ar    
   5 C5            -2.4202     1.3419     0.0319 C.ar    
   6 C6            -1.2190     2.0585     0.0305 C.ar    
   7 Cl7            1.5193    -0.8474    -0.0176 Cl      
   8 C8            -3.7063     2.0556     0.0475 C.2     
   9 C9            -3.7318     3.5623     0.0559 C.3     
  10 O10           -4.7460     1.4315     0.0537 O.2     
  11 C11           -5.1827     4.0477     0.0717 C.3     
  12 C12           -5.2088     5.5487     0.2039 C.ar    
  13 S13           -5.9996     3.5624    -1.4735 S.3     
  14 C14           -7.7177     4.0795    -1.2066 C.3     
  15 C15           -8.5395     3.7391    -2.4231 C.2     
  16 O16           -9.8492     4.0318    -2.4518 O.3     
  17 O17           -8.0195     3.2027    -3.3727 O.2     
  18 C18           -5.8384     6.1365     1.2851 C.ar    
  19 C19           -5.8624     7.5133     1.4063 C.ar    
  20 C20           -5.2565     8.3023     0.4465 C.ar    
  21 C21           -4.6261     7.7145    -0.6342 C.ar    
  22 C22           -4.5983     6.3375    -0.7532 C.ar    
  23 Cl23           1.4757     2.2689     0.0002 Cl      
  24 H24           -1.1624    -1.7993     0.0035 H       
  25 H25           -3.3166    -0.6164     0.0292 H       
  26 H26           -1.2327     3.1384     0.0368 H       
  27 H27           -3.2161     3.9295     0.9431 H       
  28 H28           -3.2324     3.9391    -0.8367 H       
  29 H29           -5.7066     3.5994     0.9160 H       
  30 H30           -8.1226     3.5605    -0.3378 H       
  31 H31           -7.7509     5.1554    -1.0352 H       
  32 H32          -10.3347     3.7944    -3.2536 H       
  33 H33           -6.3119     5.5200     2.0349 H       
  34 H34           -6.3549     7.9725     2.2506 H       
  35 H35           -5.2759     9.3780     0.5408 H       
  36 H36           -4.1530     8.3309    -1.3842 H       
  37 H37           -4.1058     5.8782    -1.5975 H       
@<TRIPOS>BOND
   1    1    2 ar
   2    1   23 1
   3    1    6 ar
   4    2    3 ar
   5    2    7 1
   6    3    4 ar
   7    3   24 1
   8    4    5 ar
   9    4   25 1
  10    5    6 ar
  11    5    8 1
  12    6   26 1
  13    8    9 1
  14    8   10 2
  15    9   11 1
  16    9   27 1
  17    9   28 1
  18   11   12 1
  19   11   13 1
  20   11   29 1
  21   12   18 ar
  22   12   22 ar
  23   13   14 1
  24   14   15 1
  25   14   30 1
  26   14   31 1
  27   15   16 1
  28   15   17 2
  29   16   32 1
  30   18   19 ar
  31   18   33 1
  32   19   20 ar
  33   19   34 1
  34   20   21 ar
  35   20   35 1
  36   21   22 ar
  37   21   36 1
  38   22   37 1

#	End of record

