#	Name: ASD01913182
#	Creating user name:	WinNT
#	Creation time:	15. 06. 2019 20:01

#	Modifying user name:	WinNT
#	Modification time:	15. 06. 2019 20:01

#	Program:	/corina/corina34_cracker 3.40 0067  02.08.2006

@<TRIPOS>MOLECULE
ASD01913182
  56   59    0    0    0
SMALL
NO_CHARGES


@<TRIPOS>ATOM
   1 C1             0.9375    -0.6691     0.9155 C.3     
   2 N2             0.0015    -0.0041     0.0026 N.am    
   3 C3            -0.0033     1.4683    -0.0048 C.3     
   4 C4            -0.4678     1.9426     1.3713 C.3     
   5 C5             0.2617     1.2092     2.4659 C.ar    
   6 C6             0.2760     1.7890     3.7340 C.ar    
   7 C7             0.9208     1.1641     4.7867 C.ar    
   8 C8             1.5559    -0.0458     4.5826 C.ar    
   9 C9             1.5461    -0.6222     3.3241 C.ar    
  10 C10            0.9009     0.0081     2.2626 C.ar    
  11 C11           -0.8203    -0.7121    -0.7972 C.2     
  12 C12           -0.7000    -2.1821    -0.8635 C.ar    
  13 C13           -1.8398    -2.9683    -1.0263 C.ar    
  14 C14           -1.7199    -4.3548    -1.0887 C.ar    
  15 C15           -0.4516    -4.9501    -0.9870 C.ar    
  16 C16            0.6756    -4.1577    -0.8247 C.ar    
  17 C17            0.5579    -2.7858    -0.7688 C.ar    
  18 O18           -1.6608    -0.1403    -1.4641 O.2     
  19 C19           -2.8853    -5.1702    -1.2553 C.1     
  20 C20           -3.8406    -5.8387    -1.3919 C.1     
  21 C21           -5.0060    -6.6541    -1.5585 C.ar    
  22 C22           -4.8770    -8.0445    -1.6201 C.ar    
  23 C23           -6.0122    -8.8173    -1.7813 C.ar    
  24 C24           -7.2418    -8.1788    -1.8761 C.ar    
  25 C25           -7.2983    -6.7989    -1.8074 C.ar    
  26 N26           -6.2037    -6.0835    -1.6481 N.ar    
  27 O27           -0.3291    -6.2993    -1.0471 O.3     
  28 C28            0.9906    -6.8364    -0.9369 C.3     
  29 O29            2.1715    -1.8127     3.1224 O.3     
  30 C30            2.8149    -2.4070     4.2515 C.3     
  31 O31           -0.3490     2.9794     3.9377 O.3     
  32 C32           -0.2983     3.5209     5.2592 C.3     
  33 H33            0.6532    -1.7154     1.0277 H       
  34 H34            1.9464    -0.6099     0.5071 H       
  35 H35            1.0022     1.8395    -0.2029 H       
  36 H36           -0.6888     1.8310    -0.7707 H       
  37 H37           -0.2753     3.0113     1.4659 H       
  38 H38           -1.5382     1.7619     1.4704 H       
  39 H39            0.9279     1.6210     5.7652 H       
  40 H40            2.0581    -0.5396     5.4013 H       
  41 H41           -2.8120    -2.5042    -1.1035 H       
  42 H42            1.6496    -4.6176    -0.7465 H       
  43 H43            1.4400    -2.1747    -0.6472 H       
  44 H44           -3.9048    -8.5085    -1.5433 H       
  45 H45           -5.9441    -9.8939    -1.8327 H       
  46 H46           -8.1464    -8.7551    -2.0027 H       
  47 H47           -8.2537    -6.3009    -1.8810 H       
  48 H48            1.6090    -6.4498    -1.7469 H       
  49 H49            1.4225    -6.5454     0.0207 H       
  50 H50            0.9468    -7.9236    -1.0003 H       
  51 H51            3.5837    -1.7324     4.6284 H       
  52 H52            2.0786    -2.5918     5.0337 H       
  53 H53            3.2733    -3.3501     3.9538 H       
  54 H54           -0.8341     4.4699     5.2838 H       
  55 H55           -0.7630     2.8232     5.9558 H       
  56 H56            0.7408     3.6828     5.5459 H       
@<TRIPOS>BOND
   1    1    2 1
   2    1   10 1
   3    1   33 1
   4    1   34 1
   5    2    3 1
   6    2   11 am
   7    3    4 1
   8    3   35 1
   9    3   36 1
  10    4    5 1
  11    4   37 1
  12    4   38 1
  13    5    6 ar
  14    5   10 ar
  15    6    7 ar
  16    6   31 1
  17    7    8 ar
  18    7   39 1
  19    8    9 ar
  20    8   40 1
  21    9   10 ar
  22    9   29 1
  23   11   12 1
  24   11   18 2
  25   12   13 ar
  26   12   17 ar
  27   13   14 ar
  28   13   41 1
  29   14   15 ar
  30   14   19 1
  31   15   16 ar
  32   15   27 1
  33   16   17 ar
  34   16   42 1
  35   17   43 1
  36   19   20 3
  37   20   21 1
  38   21   22 ar
  39   21   26 ar
  40   22   23 ar
  41   22   44 1
  42   23   24 ar
  43   23   45 1
  44   24   25 ar
  45   24   46 1
  46   25   26 ar
  47   25   47 1
  48   27   28 1
  49   28   48 1
  50   28   49 1
  51   28   50 1
  52   29   30 1
  53   30   51 1
  54   30   52 1
  55   30   53 1
  56   31   32 1
  57   32   54 1
  58   32   55 1
  59   32   56 1

#	End of record

