#	Name: ASD02560027
#	Creating user name:	WinNT
#	Creation time:	15. 06. 2019 20:24

#	Modifying user name:	WinNT
#	Modification time:	15. 06. 2019 20:24

#	Program:	/corina/corina34_cracker 3.40 0067  02.08.2006

@<TRIPOS>MOLECULE
ASD02560027
  30   33    0    0    0
SMALL
NO_CHARGES


@<TRIPOS>ATOM
   1 C1            -0.0165     1.3619     0.0095 C.ar    
   2 C2             0.0021    -0.0041     0.0020 C.ar    
   3 C3             1.2257    -0.6816    -0.0137 C.ar    
   4 C4             2.4177     0.0534    -0.0203 C.ar    
   5 C5             2.3834     1.4401    -0.0125 C.ar    
   6 C6             1.1659     2.0885     0.0021 C.ar    
   7 N7             1.5747    -1.9883    -0.0264 N.2     
   8 C8             2.8890    -2.1033    -0.0407 C.2     
   9 N9             3.4540    -0.8796    -0.0341 N.pl3   
  10 C10            3.8619    -3.2801    -0.0642 C.3     
  11 S11            5.4317    -2.4925    -0.5923 S.3     
  12 C12            4.9342    -0.8166    -0.0409 C.3     
  13 C13            5.4164     0.2274    -1.0149 C.ar    
  14 C14            5.9867     1.3991    -0.5483 C.ar    
  15 C15            6.4293     2.3577    -1.4443 C.ar    
  16 C16            6.3019     2.1448    -2.8039 C.ar    
  17 C17            5.7322     0.9754    -3.2709 C.ar    
  18 C18            5.2944     0.0127    -2.3769 C.ar    
  19 F19            4.7381    -1.1305    -2.8337 F       
  20 F20            6.1110     1.6077     0.7807 F       
  21 H21           -0.9626     1.8826     0.0168 H       
  22 H22           -0.9246    -0.5587     0.0085 H       
  23 H23            3.3023     2.0074    -0.0174 H       
  24 H24            1.1327     3.1679     0.0078 H       
  25 H25            3.9638    -3.7175     0.9290 H       
  26 H26            3.5435    -4.0307    -0.7876 H       
  27 H27            5.3143    -0.6134     0.9603 H       
  28 H28            6.8740     3.2722    -1.0805 H       
  29 H29            6.6474     2.8929    -3.5020 H       
  30 H30            5.6324     0.8104    -4.3335 H       
@<TRIPOS>BOND
   1    1    2 ar
   2    1    6 ar
   3    1   21 1
   4    2    3 ar
   5    2   22 1
   6    3    4 ar
   7    3    7 1
   8    4    5 ar
   9    4    9 1
  10    5    6 ar
  11    5   23 1
  12    6   24 1
  13    7    8 2
  14    8    9 1
  15    8   10 1
  16    9   12 1
  17   10   11 1
  18   10   25 1
  19   10   26 1
  20   11   12 1
  21   12   13 1
  22   12   27 1
  23   13   14 ar
  24   13   18 ar
  25   14   15 ar
  26   14   20 1
  27   15   16 ar
  28   15   28 1
  29   16   17 ar
  30   16   29 1
  31   17   18 ar
  32   17   30 1
  33   18   19 1

#	End of record

