#	Name: ASD03731889
#	Creating user name:	WinNT
#	Creation time:	15. 06. 2019 20:46

#	Modifying user name:	WinNT
#	Modification time:	15. 06. 2019 20:46

#	Program:	/corina/corina34_cracker 3.40 0067  02.08.2006

@<TRIPOS>MOLECULE
ASD03731889
  29   30    0    0    0
SMALL
NO_CHARGES


@<TRIPOS>ATOM
   1 C1             0.3760     1.0897     1.9802 C.2     
   2 C2             0.2925    -0.2836     1.4537 C.ar    
   3 C3             1.3773    -0.8385     0.7627 C.ar    
   4 C4             1.2925    -2.1263     0.2717 C.ar    
   5 C5             0.1333    -2.8691     0.4626 C.ar    
   6 C6            -0.9450    -2.3199     1.1480 C.ar    
   7 C7            -0.8680    -1.0396     1.6471 C.ar    
   8 O8             1.3873     1.7431     1.8153 O.2     
   9 O9            -0.6710     1.6233     2.6398 O.3     
  10 F10            2.5033    -0.1155     0.5768 F       
  11 O11            0.0533    -4.1343    -0.0217 O.3     
  12 C12           -1.1337    -4.7864     0.0902 C.ar    
  13 C13           -2.0879    -4.6693    -0.9106 C.ar    
  14 C14           -3.2934    -5.3333    -0.7951 C.ar    
  15 C15           -3.5503    -6.1147     0.3179 C.ar    
  16 C16           -2.6004    -6.2327     1.3168 C.ar    
  17 C17           -1.3909    -5.5747     1.2024 C.ar    
  18 C18           -4.3300    -5.2065    -1.8816 C.3     
  19 F19           -3.8449    -4.3712    -2.8937 F       
  20 F20           -4.6058    -6.4710    -2.4129 F       
  21 F21           -5.5014    -4.6596    -1.3470 F       
  22 Cl22          -5.0669    -6.9473     0.4611 Cl      
  23 Cl23           2.6346    -2.8179    -0.5853 Cl      
  24 H24           -1.8436    -2.9013     1.2929 H       
  25 H25           -1.7050    -0.6173     2.1832 H       
  26 H26           -0.5692     2.5277     2.9668 H       
  27 H27           -1.8881    -4.0591    -1.7789 H       
  28 H28           -2.8028    -6.8430     2.1846 H       
  29 H29           -0.6479    -5.6708     1.9803 H       
@<TRIPOS>BOND
   1    1    2 1
   2    1    8 2
   3    1    9 1
   4    2    3 ar
   5    2    7 ar
   6    3    4 ar
   7    3   10 1
   8    4    5 ar
   9    4   23 1
  10    5    6 ar
  11    5   11 1
  12    6    7 ar
  13    6   24 1
  14    7   25 1
  15    9   26 1
  16   11   12 1
  17   12   13 ar
  18   12   17 ar
  19   13   14 ar
  20   13   27 1
  21   14   15 ar
  22   14   18 1
  23   15   16 ar
  24   15   22 1
  25   16   17 ar
  26   16   28 1
  27   17   29 1
  28   18   19 1
  29   18   20 1
  30   18   21 1

#	End of record

