#	Name: ASD05380010
#	Creating user name:	WinNT
#	Creation time:	15. 06. 2019 20:59

#	Modifying user name:	WinNT
#	Modification time:	15. 06. 2019 20:59

#	Program:	/corina/corina34_cracker 3.40 0067  02.08.2006

@<TRIPOS>MOLECULE
ASD05380010
  50   54    0    0    0
SMALL
NO_CHARGES


@<TRIPOS>ATOM
   1 C1            -0.3403     1.6910     0.3564 C.ar    
   2 C2            -0.3277     0.3038     0.0878 C.ar    
   3 C3             0.8563     2.3709     0.5726 C.ar    
   4 C4             2.0479     1.6808     0.5222 C.ar    
   5 C5             2.0641     0.3178     0.2580 C.ar    
   6 C6             0.8926    -0.3731     0.0425 C.ar    
   7 C7             0.8476     3.8504     0.8589 C.3     
   8 N8            -1.5050    -0.3372    -0.1194 N.2     
   9 C9            -2.6397     0.2927    -0.0767 C.2     
  10 N10           -2.7461     1.6251     0.1746 N.am    
  11 C11           -1.6416     2.3732     0.4038 C.2     
  12 C12           -4.0117     2.2281     0.2023 C.ar    
  13 C13           -4.6887     2.3722     1.4077 C.ar    
  14 C14           -4.5901     2.6885    -0.9747 C.ar    
  15 C15           -5.8390     3.2829    -0.9432 C.ar    
  16 C16           -6.5115     3.4195     0.2571 C.ar    
  17 C17           -5.9372     2.9676     1.4309 C.ar    
  18 C18           -3.9030    -0.4925    -0.3185 C.3     
  19 N19           -3.6515    -1.5234    -1.3286 N.pl3   
  20 C20           -4.7004    -2.0168    -2.0933 C.ar    
  21 N21           -5.9264    -1.5562    -1.9101 N.ar    
  22 F22           -3.9334     2.5562    -2.1480 F       
  23 O23           -1.7220     3.5666     0.6301 O.2     
  24 C24           -4.4589    -2.9999    -3.0647 C.ar    
  25 C25           -5.5433    -3.4769    -3.8215 C.ar    
  26 C26           -6.8108    -2.9541    -3.5755 C.ar    
  27 C27           -6.9582    -1.9943    -2.6139 C.ar    
  28 N28           -3.3560    -3.6607    -3.4948 N.2     
  29 C29           -3.6862    -4.4902    -4.4417 C.2     
  30 N30           -5.0255    -4.4155    -4.6814 N.pl3   
  31 F31           -4.1284     1.9309     2.5551 F       
  32 C32           -4.3493    -1.1551     0.9864 C.3     
  33 H33            2.9775     2.2047     0.6892 H       
  34 H34            3.0071    -0.2073     0.2218 H       
  35 H35            0.9176    -1.4332    -0.1621 H       
  36 H36            0.6596     4.0140     1.9200 H       
  37 H37            1.8137     4.2781     0.5909 H       
  38 H38            0.0631     4.3293     0.2728 H       
  39 H39           -6.2891     3.6408    -1.8573 H       
  40 H40           -7.4862     3.8843     0.2785 H       
  41 H41           -6.4658     3.0758     2.3664 H       
  42 H42           -4.6860     0.1786    -0.6715 H       
  43 H43           -2.7523    -1.8614    -1.4631 H       
  44 H44           -7.6644    -3.2992    -4.1400 H       
  45 H45           -7.9390    -1.5840    -2.4239 H       
  46 H46           -2.9994    -5.1417    -4.9615 H       
  47 H47           -5.5216    -4.9299    -5.3372 H       
  48 H48           -3.5989    -1.8804     1.3007 H       
  49 H49           -4.4657    -0.3948     1.7587 H       
  50 H50           -5.3013    -1.6622     0.8293 H       
@<TRIPOS>BOND
   1    1    2 ar
   2    1    3 ar
   3    1   11 1
   4    2    8 1
   5    2    6 ar
   6    3    4 ar
   7    3    7 1
   8    4    5 ar
   9    4   33 1
  10    5    6 ar
  11    5   34 1
  12    6   35 1
  13    7   36 1
  14    7   37 1
  15    7   38 1
  16    8    9 2
  17    9   10 1
  18    9   18 1
  19   10   11 am
  20   10   12 1
  21   11   23 2
  22   12   13 ar
  23   12   14 ar
  24   13   31 1
  25   13   17 ar
  26   14   15 ar
  27   14   22 1
  28   15   16 ar
  29   15   39 1
  30   16   17 ar
  31   16   40 1
  32   17   41 1
  33   18   19 1
  34   18   32 1
  35   18   42 1
  36   19   20 1
  37   19   43 1
  38   20   21 ar
  39   20   24 ar
  40   21   27 ar
  41   24   25 ar
  42   24   28 1
  43   25   26 ar
  44   25   30 1
  45   26   27 ar
  46   26   44 1
  47   27   45 1
  48   28   29 2
  49   29   30 1
  50   29   46 1
  51   30   47 1
  52   32   48 1
  53   32   49 1
  54   32   50 1

#	End of record

