#	Name: ASD00068008
#	Creating user name:	WinNT
#	Creation time:	15. 06. 2019 18:29

#	Modifying user name:	WinNT
#	Modification time:	15. 06. 2019 18:29

#	Program:	/corina/corina34_cracker 3.40 0067  02.08.2006

@<TRIPOS>MOLECULE
ASD00068008
  39   40    0    0    0
SMALL
NO_CHARGES


@<TRIPOS>ATOM
   1 C1             1.4694     0.1286    -0.0883 C.2     
   2 C2             0.0044    -0.1631     0.1115 C.3     
   3 C3            -0.5241    -0.9203    -1.0794 C.2     
   4 O4             2.0845    -0.4375    -0.9608 O.2     
   5 O5             2.0895     1.0212     0.6992 O.3     
   6 O6             0.2293    -1.5701    -1.7650 O.2     
   7 O7            -1.8318    -0.8729    -1.3785 O.3     
   8 C8            -0.1800    -1.0063     1.3749 C.3     
   9 C9            -1.6669    -1.3063     1.5752 C.3     
  10 C10           -2.4001    -0.0268     1.8857 C.2     
  11 C11            0.5785    -2.3004     1.2302 C.ar    
  12 C12            1.5813    -2.6178     2.1273 C.ar    
  13 C13            2.2771    -3.8048     1.9946 C.ar    
  14 C14            1.9699    -4.6747     0.9651 C.ar    
  15 C15            0.9665    -4.3577     0.0686 C.ar    
  16 C16            0.2678    -3.1727     0.2039 C.ar    
  17 O17           -1.7914     1.0198     1.9531 O.2     
  18 C18           -3.8541    -0.0475     2.1070 C.ar    
  19 C19           -4.5381     1.1383     2.3954 C.ar    
  20 C20           -5.9005     1.1114     2.6010 C.ar    
  21 C21           -6.5928    -0.0864     2.5232 C.ar    
  22 C22           -5.9219    -1.2649     2.2384 C.ar    
  23 C23           -4.5605    -1.2522     2.0242 C.ar    
  24 Cl24          -8.3089    -0.1109     2.7843 Cl      
  25 H25           -0.5415     0.7744     0.2175 H       
  26 H26            3.0444     1.1203     0.5832 H       
  27 H27           -2.1238    -1.3749    -2.1517 H       
  28 H28            0.1992    -0.4572     2.2367 H       
  29 H29           -2.0744    -1.7470     0.6654 H       
  30 H30           -1.7882    -2.0047     2.4032 H       
  31 H31            1.8213    -1.9381     2.9316 H       
  32 H32            3.0610    -4.0524     2.6950 H       
  33 H33            2.5140    -5.6018     0.8610 H       
  34 H34            0.7267    -5.0372    -0.7359 H       
  35 H35           -0.5186    -2.9267    -0.4944 H       
  36 H36           -3.9997     2.0725     2.4571 H       
  37 H37           -6.4299     2.0260     2.8238 H       
  38 H38           -6.4678    -2.1949     2.1796 H       
  39 H39           -4.0395    -2.1708     1.7979 H       
@<TRIPOS>BOND
   1    1    2 1
   2    1    4 2
   3    1    5 1
   4    2    3 1
   5    2    8 1
   6    2   25 1
   7    3    6 2
   8    3    7 1
   9    5   26 1
  10    7   27 1
  11    8    9 1
  12    8   11 1
  13    8   28 1
  14    9   10 1
  15    9   29 1
  16    9   30 1
  17   10   17 2
  18   10   18 1
  19   11   12 ar
  20   11   16 ar
  21   12   13 ar
  22   12   31 1
  23   13   14 ar
  24   13   32 1
  25   14   15 ar
  26   14   33 1
  27   15   16 ar
  28   15   34 1
  29   16   35 1
  30   18   19 ar
  31   18   23 ar
  32   19   20 ar
  33   19   36 1
  34   20   21 ar
  35   20   37 1
  36   21   22 ar
  37   21   24 1
  38   22   23 ar
  39   22   38 1
  40   23   39 1

#	End of record

