#	Name: ASD03240050
#	Creating user name:	WinNT
#	Creation time:	15. 06. 2019 20:34

#	Modifying user name:	WinNT
#	Modification time:	15. 06. 2019 20:34

#	Program:	/corina/corina34_cracker 3.40 0067  02.08.2006

@<TRIPOS>MOLECULE
ASD03240050
  66   71    0    0    0
SMALL
NO_CHARGES


@<TRIPOS>ATOM
   1 C1             1.3504     1.9742     0.6635 C.ar    
   2 C2             1.2950     0.5785     0.7165 C.ar    
   3 C3             2.5809     2.6002     0.4323 C.ar    
   4 C4             3.7072     1.7988     0.2634 C.ar    
   5 C5             3.5654     0.4022     0.3313 C.ar    
   6 N6             2.3787    -0.1482     0.5527 N.ar    
   7 C7             4.7531    -0.4642     0.1539 C.ar    
   8 C8             5.0353     2.4094     0.0154 C.ar    
   9 C9             5.1869     3.3747    -0.9788 C.ar    
  10 C10            6.4255     3.9395    -1.2052 C.ar    
  11 C11            7.5155     3.5492    -0.4482 C.ar    
  12 C12            7.3710     2.5917     0.5397 C.ar    
  13 C13            6.1360     2.0245     0.7792 C.ar    
  14 C14            4.8662    -1.6535     0.8740 C.ar    
  15 C15            5.9754    -2.4565     0.7043 C.ar    
  16 C16            6.9743    -2.0839    -0.1774 C.ar    
  17 C17            6.8681    -0.9053    -0.8941 C.ar    
  18 C18            5.7607    -0.0971    -0.7381 C.ar    
  19 C19            8.1833    -2.9654    -0.3575 C.3     
  20 N20            7.9294    -3.9305    -1.4355 N.3     
  21 C21            9.1583    -4.6463    -1.8012 C.3     
  22 C22            8.8903    -5.5336    -3.0190 C.3     
  23 C23            7.7775    -6.5303    -2.6831 C.3     
  24 C24            6.5240    -5.7600    -2.2590 C.3     
  25 C25            6.8607    -4.8662    -1.0633 C.3     
  26 N26            7.4762    -7.3438    -3.8636 N.pl3   
  27 C27            7.0423    -6.8786    -5.0889 C.ar    
  28 C28            6.8879    -8.0139    -5.9022 C.ar    
  29 N29            7.2283    -9.0902    -5.1476 N.2     
  30 C30            7.5778    -8.6971    -3.9576 C.2     
  31 C31            6.7627    -5.6188    -5.6010 C.ar    
  32 C32            6.3352    -5.4915    -6.9053 C.ar    
  33 C33            6.1825    -6.6131    -7.7081 C.ar    
  34 C34            6.4535    -7.8604    -7.2215 C.ar    
  35 C35            8.0201    -9.6091    -2.8424 C.3     
  36 C36            0.1620     2.7539     0.8377 C.1     
  37 N37           -0.7807     3.3724     0.9760 N.1     
  38 H38            0.3485     0.0899     0.8950 H       
  39 H39            2.6549     3.6767     0.3857 H       
  40 H40            4.3367     3.6797    -1.5709 H       
  41 H41            6.5441     4.6875    -1.9752 H       
  42 H42            8.4831     3.9934    -0.6294 H       
  43 H43            8.2256     2.2905     1.1274 H       
  44 H44            6.0243     1.2773     1.5510 H       
  45 H45            4.0874    -1.9451     1.5631 H       
  46 H46            6.0641    -3.3776     1.2612 H       
  47 H47            7.6515    -0.6195    -1.5803 H       
  48 H48            5.6789     0.8227    -1.2982 H       
  49 H49            9.0457    -2.3509    -0.6157 H       
  50 H50            8.3837    -3.5013     0.5702 H       
  51 H51            9.9403    -3.9260    -2.0417 H       
  52 H52            9.4804    -5.2659    -0.9643 H       
  53 H53            8.5814    -4.9132    -3.8603 H       
  54 H54            9.7985    -6.0766    -3.2806 H       
  55 H55            8.1014    -7.1765    -1.8673 H       
  56 H56            6.1779    -5.1432    -3.0884 H       
  57 H57            5.7416    -6.4648    -1.9776 H       
  58 H58            7.1935    -5.4847    -0.2298 H       
  59 H59            5.9738    -4.3056    -0.7678 H       
  60 H60            6.8793    -4.7428    -4.9802 H       
  61 H61            6.1173    -4.5121    -7.3051 H       
  62 H62            5.8461    -6.4987    -8.7280 H       
  63 H63            6.3317    -8.7265    -7.8551 H       
  64 H64            9.1085    -9.6669    -2.8302 H       
  65 H65            7.6664    -9.2156    -1.8894 H       
  66 H66            7.6052   -10.6045    -3.0009 H       
@<TRIPOS>BOND
   1    1    2 ar
   2    1    3 ar
   3    1   36 1
   4    2    6 ar
   5    2   38 1
   6    3    4 ar
   7    3   39 1
   8    4    5 ar
   9    4    8 1
  10    5    6 ar
  11    5    7 1
  12    7   14 ar
  13    7   18 ar
  14    8    9 ar
  15    8   13 ar
  16    9   10 ar
  17    9   40 1
  18   10   11 ar
  19   10   41 1
  20   11   12 ar
  21   11   42 1
  22   12   13 ar
  23   12   43 1
  24   13   44 1
  25   14   15 ar
  26   14   45 1
  27   15   16 ar
  28   15   46 1
  29   16   17 ar
  30   16   19 1
  31   17   18 ar
  32   17   47 1
  33   18   48 1
  34   19   20 1
  35   19   49 1
  36   19   50 1
  37   20   21 1
  38   20   25 1
  39   21   22 1
  40   21   51 1
  41   21   52 1
  42   22   23 1
  43   22   53 1
  44   22   54 1
  45   23   24 1
  46   23   26 1
  47   23   55 1
  48   24   25 1
  49   24   56 1
  50   24   57 1
  51   25   58 1
  52   25   59 1
  53   26   27 1
  54   26   30 1
  55   27   28 ar
  56   27   31 ar
  57   28   29 1
  58   28   34 ar
  59   29   30 2
  60   30   35 1
  61   31   32 ar
  62   31   60 1
  63   32   33 ar
  64   32   61 1
  65   33   34 ar
  66   33   62 1
  67   34   63 1
  68   35   64 1
  69   35   65 1
  70   35   66 1
  71   36   37 3

#	End of record

