#	Name: ASD05503007
#	Creating user name:	WinNT
#	Creation time:	15. 06. 2019 21:01

#	Modifying user name:	WinNT
#	Modification time:	15. 06. 2019 21:01

#	Program:	/corina/corina34_cracker 3.40 0067  02.08.2006

@<TRIPOS>MOLECULE
ASD05503007
  49   50    0    0    0
SMALL
NO_CHARGES


@<TRIPOS>ATOM
   1 C1            -0.0696     1.1318    -0.6156 C.2     
   2 C2            -3.7343    -5.1501    -0.7861 C.ar    
   3 C3            -4.7648    -4.5269    -0.0938 C.ar    
   4 C4            -4.7616    -3.1477     0.0585 C.ar    
   5 C5            -3.7282    -2.3954    -0.4813 C.ar    
   6 C6            -2.7000    -3.0251    -1.1724 C.ar    
   7 C7            -2.7065    -4.3982    -1.3226 C.ar    
   8 N8            -5.8053    -5.2890     0.4487 N.am    
   9 C9            -6.3689    -4.9248     1.6175 C.2     
  10 C10           -7.4173    -5.8007     2.2538 C.3     
  11 O11           -6.0324    -3.8921     2.1573 O.2     
  12 C12           -7.8892    -5.1629     3.5620 C.3     
  13 C13           -8.9535    -6.0522     4.2080 C.3     
  14 N14           -3.7215    -1.0054    -0.3304 N.am    
  15 C15           -2.5551    -0.3304    -0.3555 C.2     
  16 C16           -2.5558     1.1484    -0.3285 C.ar    
  17 O17           -1.5028    -0.9370    -0.4002 O.2     
  18 C18           -3.7508     1.8454    -0.1749 C.ar    
  19 C19           -3.7465     3.2276    -0.1503 C.ar    
  20 C20           -2.5594     3.9263    -0.2781 C.ar    
  21 C21           -1.3629     3.2508    -0.4310 C.ar    
  22 C22           -1.3473     1.8592    -0.4522 C.ar    
  23 O23            0.3444     0.4220     0.2800 O.2     
  24 N24            0.6327     1.2518    -1.7597 N.am    
  25 C25            1.9479     0.6182    -1.8817 C.3     
  26 C26            0.0807     2.0158    -2.8812 C.3     
  27 H27           -3.7340    -6.2240    -0.9011 H       
  28 H28           -5.5618    -2.6608     0.5961 H       
  29 H29           -1.8953    -2.4403    -1.5928 H       
  30 H30           -1.9063    -4.8853    -1.8601 H       
  31 H31           -6.1211    -6.0795    -0.0165 H       
  32 H32           -8.2635    -5.9061     1.5750 H       
  33 H33           -6.9930    -6.7831     2.4609 H       
  34 H34           -7.0429    -5.0575     4.2409 H       
  35 H35           -8.3134    -4.1805     3.3549 H       
  36 H36           -9.7998    -6.1576     3.5292 H       
  37 H37           -8.5293    -7.0346     4.4151 H       
  38 H38           -9.2898    -5.5978     5.1400 H       
  39 H39           -4.5562    -0.5268    -0.2078 H       
  40 H40           -4.6814     1.3064    -0.0753 H       
  41 H41           -4.6755     3.7652    -0.0310 H       
  42 H42           -2.5674     5.0061    -0.2579 H       
  43 H43           -0.4401     3.8028    -0.5308 H       
  44 H44            1.8297    -0.3917    -2.2742 H       
  45 H45            2.5705     1.2013    -2.5604 H       
  46 H46            2.4222     0.5738    -0.9013 H       
  47 H47           -0.0085     3.0644    -2.5976 H       
  48 H48            0.7433     1.9273    -3.7422 H       
  49 H49           -0.9034     1.6240    -3.1383 H       
@<TRIPOS>BOND
   1    1   23 2
   2    1   24 am
   3    1   22 1
   4    2    3 ar
   5    2    7 ar
   6    2   27 1
   7    3    4 ar
   8    3    8 1
   9    4    5 ar
  10    4   28 1
  11    5    6 ar
  12    5   14 1
  13    6    7 ar
  14    6   29 1
  15    7   30 1
  16    8    9 am
  17    8   31 1
  18    9   10 1
  19    9   11 2
  20   10   12 1
  21   10   32 1
  22   10   33 1
  23   12   13 1
  24   12   34 1
  25   12   35 1
  26   13   36 1
  27   13   37 1
  28   13   38 1
  29   14   15 am
  30   14   39 1
  31   15   16 1
  32   15   17 2
  33   16   18 ar
  34   16   22 ar
  35   18   19 ar
  36   18   40 1
  37   19   20 ar
  38   19   41 1
  39   20   21 ar
  40   20   42 1
  41   21   22 ar
  42   21   43 1
  43   24   25 1
  44   24   26 1
  45   25   44 1
  46   25   45 1
  47   25   46 1
  48   26   47 1
  49   26   48 1
  50   26   49 1

#	End of record

