#	Name: ASD01883436
#	Creating user name:	WinNT
#	Creation time:	15. 06. 2019 19:46

#	Modifying user name:	WinNT
#	Modification time:	15. 06. 2019 19:46

#	Program:	/corina/corina34_cracker 3.40 0067  02.08.2006

@<TRIPOS>MOLECULE
ASD01883436
  53   55    0    0    0
SMALL
NO_CHARGES


@<TRIPOS>ATOM
   1 N1            -0.0161     1.3416     0.0135 N.am    
   2 C2            -0.0057     0.0080    -0.1685 C.2     
   3 C3            -1.2227    -0.7137    -0.1673 C.2     
   4 C4            -2.4239    -0.0108     0.0261 C.2     
   5 C5            -2.3697     1.3831     0.2110 C.2     
   6 C6            -1.1778     2.0190     0.2054 C.2     
   7 O7             1.0511    -0.5773    -0.3345 O.2     
   8 C8            -1.2301    -2.1327    -0.3599 C.1     
   9 N9            -1.2360    -3.2583    -0.5126 N.1     
  10 N10           -3.6309    -0.6732     0.0341 N.pl3   
  11 C11           -3.9282    -1.6749     1.0669 C.3     
  12 C12           -5.2548    -1.3098     1.7404 C.3     
  13 C13           -6.3418    -1.1662     0.6728 C.3     
  14 C14           -5.9648    -0.0406    -0.2933 C.3     
  15 C15           -4.6484    -0.3873    -0.9865 C.3     
  16 C16            1.2513     2.0764     0.0104 C.3     
  17 C17            1.5770     2.5257    -1.4154 C.3     
  18 C18            2.9006     3.2931    -1.4186 C.3     
  19 C19            3.2889     3.6342    -2.8586 C.3     
  20 C20            2.7433     4.5844    -0.6132 C.3     
  21 C21           -7.0511     0.1216    -1.3251 C.ar    
  22 C22           -7.7192     1.3261    -1.4418 C.ar    
  23 C23           -8.7157     1.4749    -2.3883 C.ar    
  24 C24           -9.0437     0.4193    -3.2183 C.ar    
  25 C25           -8.3750    -0.7849    -3.1022 C.ar    
  26 C26           -7.3756    -0.9324    -2.1586 C.ar    
  27 H27           -3.2804     1.9439     0.3610 H       
  28 H28           -1.1486     3.0892     0.3483 H       
  29 H29           -4.0105    -2.6600     0.6077 H       
  30 H30           -3.1308    -1.6814     1.8100 H       
  31 H31           -5.5353    -2.0958     2.4416 H       
  32 H32           -5.1437    -0.3668     2.2757 H       
  33 H33           -6.4353    -2.1018     0.1215 H       
  34 H34           -7.2923    -0.9306     1.1516 H       
  35 H35           -5.8470     0.8904     0.2611 H       
  36 H36           -4.3260     0.4540    -1.6001 H       
  37 H37           -4.7866    -1.2679    -1.6138 H       
  38 H38            1.1662     2.9503     0.6562 H       
  39 H39            2.0475     1.4291     0.3782 H       
  40 H40            1.6621     1.6517    -2.0612 H       
  41 H41            0.7808     3.1730    -1.7831 H       
  42 H42            3.6789     2.6768    -0.9686 H       
  43 H43            2.5105     4.2505    -3.3086 H       
  44 H44            4.2319     4.1809    -2.8609 H       
  45 H45            3.4009     2.7142    -3.4324 H       
  46 H46            1.9650     5.2007    -1.0632 H       
  47 H47            2.4667     4.3414     0.4127 H       
  48 H48            3.6863     5.1311    -0.6155 H       
  49 H49           -7.4628     2.1508    -0.7933 H       
  50 H50           -9.2381     2.4158    -2.4790 H       
  51 H51           -9.8228     0.5353    -3.9573 H       
  52 H52           -8.6316    -1.6098    -3.7504 H       
  53 H53           -6.8531    -1.8732    -2.0679 H       
@<TRIPOS>BOND
   1    1    2 am
   2    1   16 1
   3    1    6 1
   4    2    3 1
   5    2    7 2
   6    3    4 2
   7    3    8 1
   8    4    5 1
   9    4   10 1
  10    5    6 2
  11    5   27 1
  12    6   28 1
  13    8    9 3
  14   10   11 1
  15   10   15 1
  16   11   12 1
  17   11   29 1
  18   11   30 1
  19   12   13 1
  20   12   31 1
  21   12   32 1
  22   13   14 1
  23   13   33 1
  24   13   34 1
  25   14   15 1
  26   14   21 1
  27   14   35 1
  28   15   36 1
  29   15   37 1
  30   16   17 1
  31   16   38 1
  32   16   39 1
  33   17   18 1
  34   17   40 1
  35   17   41 1
  36   18   19 1
  37   18   20 1
  38   18   42 1
  39   19   43 1
  40   19   44 1
  41   19   45 1
  42   20   46 1
  43   20   47 1
  44   20   48 1
  45   21   22 ar
  46   21   26 ar
  47   22   23 ar
  48   22   49 1
  49   23   24 ar
  50   23   50 1
  51   24   25 ar
  52   24   51 1
  53   25   26 ar
  54   25   52 1
  55   26   53 1

#	End of record

