#	Name: ASD03331752
#	Creating user name:	WinNT
#	Creation time:	15. 06. 2019 20:39

#	Modifying user name:	WinNT
#	Modification time:	15. 06. 2019 20:39

#	Program:	/corina/corina34_cracker 3.40 0067  02.08.2006

@<TRIPOS>MOLECULE
ASD03331752
  52   55    0    0    0
SMALL
NO_CHARGES


@<TRIPOS>ATOM
   1 C1             0.0277     1.3857     0.2130 C.ar    
   2 C2             0.0391     0.0035     0.2207 C.ar    
   3 C3             1.2186    -0.6865    -0.0297 C.ar    
   4 C4             2.3885     0.0118    -0.2881 C.ar    
   5 C5             2.3762     1.4040    -0.2956 C.ar    
   6 C6             1.1880     2.0882    -0.0432 C.ar    
   7 C7             3.6241     2.1574    -0.5713 C.ar    
   8 C8             3.6021     3.5490    -0.5767 C.ar    
   9 C9             4.7735     4.2435    -0.8349 C.ar    
  10 C10            5.9305     3.5236    -1.0797 C.ar    
  11 C11            5.8845     2.1329    -1.0596 C.ar    
  12 N12            4.7521     1.4978    -0.8050 N.ar    
  13 N13            7.0418     1.4031    -1.3049 N.3     
  14 C14            6.7771    -0.0458    -1.2371 C.3     
  15 C15            7.2108    -0.6534    -2.5876 C.3     
  16 C16            8.2208     0.3906    -3.1324 C.3     
  17 C17            7.5943     1.7188    -2.6394 C.3     
  18 N18            1.2262    -2.0860    -0.0207 N.am    
  19 C19            2.2991    -2.7511     0.4516 C.2     
  20 N20            2.2710    -4.0952     0.5457 N.am    
  21 O21            3.2925    -2.1383     0.7927 O.2     
  22 C22            3.4182    -4.7936     0.9445 C.ar    
  23 C23            4.8301    -6.7258     0.7879 C.ar    
  24 C24            5.6856    -6.1741     1.7330 C.ar    
  25 C25            5.4009    -4.9323     2.2864 C.ar    
  26 C26            4.2704    -4.2445     1.8936 C.ar    
  27 C27            3.6999    -6.0375     0.3950 C.ar    
  28 N28            6.8316    -6.8718     2.1314 N.pl3   
  29 N29            7.6015    -6.3753     2.9819 N.1     
  30 N30            8.2380    -5.9648     3.6851 N.1     
  31 H31           -0.8927     1.9175     0.4038 H       
  32 H32           -0.8713    -0.5415     0.4221 H       
  33 H33            3.3066    -0.5228    -0.4826 H       
  34 H34            1.1752     3.1681    -0.0483 H       
  35 H35            2.6828     4.0815    -0.3822 H       
  36 H36            4.7833     5.3234    -0.8452 H       
  37 H37            6.8589     4.0360    -1.2844 H       
  38 H38            7.3555    -0.4908    -0.4274 H       
  39 H39            5.7135    -0.2213    -1.0759 H       
  40 H40            7.6964    -1.6178    -2.4382 H       
  41 H41            6.3572    -0.7504    -3.2585 H       
  42 H42            9.2095     0.2406    -2.6989 H       
  43 H43            8.2648     0.3602    -4.2211 H       
  44 H44            6.7992     2.0367    -3.3138 H       
  45 H45            8.3582     2.4924    -2.5605 H       
  46 H46            0.4593    -2.5774    -0.3543 H       
  47 H47            1.4566    -4.5791     0.3373 H       
  48 H48            5.0514    -7.6911     0.3572 H       
  49 H49            6.0661    -4.5032     3.0212 H       
  50 H50            4.0488    -3.2791     2.3241 H       
  51 H51            3.0344    -6.4665    -0.3395 H       
  52 H52            7.0284    -7.7407     1.7476 H       
@<TRIPOS>BOND
   1    1    2 ar
   2    1    6 ar
   3    1   31 1
   4    2    3 ar
   5    2   32 1
   6    3    4 ar
   7    3   18 1
   8    4    5 ar
   9    4   33 1
  10    5    6 ar
  11    5    7 1
  12    6   34 1
  13    7    8 ar
  14    7   12 ar
  15    8    9 ar
  16    8   35 1
  17    9   10 ar
  18    9   36 1
  19   10   11 ar
  20   10   37 1
  21   11   12 ar
  22   11   13 1
  23   13   14 1
  24   13   17 1
  25   14   15 1
  26   14   38 1
  27   14   39 1
  28   15   16 1
  29   15   40 1
  30   15   41 1
  31   16   17 1
  32   16   42 1
  33   16   43 1
  34   17   44 1
  35   17   45 1
  36   18   19 am
  37   18   46 1
  38   19   20 am
  39   19   21 2
  40   20   22 1
  41   20   47 1
  42   22   27 ar
  43   22   26 ar
  44   23   24 ar
  45   23   27 ar
  46   23   48 1
  47   24   25 ar
  48   24   28 1
  49   25   26 ar
  50   25   49 1
  51   26   50 1
  52   27   51 1
  53   28   29 1
  54   28   52 1
  55   29   30 3

#	End of record

