#	Name: ASD07930923
#	Creating user name:	WinNT
#	Creation time:	15. 06. 2019 21:13

#	Modifying user name:	WinNT
#	Modification time:	15. 06. 2019 21:13

#	Program:	/corina/corina34_cracker 3.40 0067  02.08.2006

@<TRIPOS>MOLECULE
ASD07930923
  21   21    0    0    0
SMALL
NO_CHARGES


@<TRIPOS>ATOM
   1 C1            -0.0225     1.8097     0.0120 C.3     
   2 S2             0.0021    -0.0041     0.0020 S.o2    
   3 O3             0.8448    -0.4970     1.0346 O.2     
   4 O4            -1.3093    -0.5195    -0.1821 O.2     
   5 O5             0.7319    -0.3669    -1.2834 O.3     
   6 C6             2.1455    -0.1659    -1.2258 C.3     
   7 C7             2.7624    -0.5550    -2.5445 C.ar    
   8 C8             2.8987     0.3945    -3.5431 C.ar    
   9 C9             3.4684     0.0247    -4.7538 C.ar    
  10 C10            3.8805    -1.2901    -4.9145 C.ar    
  11 C11            3.7114    -2.1818    -3.8712 C.ar    
  12 N12            3.1710    -1.7943    -2.7324 N.ar    
  13 F13            2.4824     1.6640    -3.3420 F       
  14 Br14           4.6633    -1.8560    -6.5402 Br      
  15 H15            1.0001     2.1870     0.0043 H       
  16 H16           -0.5497     2.1708    -0.8711 H       
  17 H17           -0.5327     2.1613     0.9088 H       
  18 H18            2.3551     0.8842    -1.0223 H       
  19 H19            2.5679    -0.7812    -0.4314 H       
  20 H20            3.5875     0.7431    -5.5514 H       
  21 H21            4.0295    -3.2071    -3.9890 H       
@<TRIPOS>BOND
   1    1    2 1
   2    1   15 1
   3    1   16 1
   4    1   17 1
   5    2    3 2
   6    2    4 2
   7    2    5 1
   8    5    6 1
   9    6    7 1
  10    6   18 1
  11    6   19 1
  12    7    8 ar
  13    7   12 ar
  14    8    9 ar
  15    8   13 1
  16    9   10 ar
  17    9   20 1
  18   10   11 ar
  19   10   14 1
  20   11   12 ar
  21   11   21 1

#	End of record

