#	Name: ASD01911614
#	Creating user name:	WinNT
#	Creation time:	15. 06. 2019 19:58

#	Modifying user name:	WinNT
#	Modification time:	15. 06. 2019 19:58

#	Program:	/corina/corina34_cracker 3.40 0067  02.08.2006

@<TRIPOS>MOLECULE
ASD01911614
  46   50    0    0    0
SMALL
NO_CHARGES


@<TRIPOS>ATOM
   1 N1             0.0160     1.2191    -0.4216 N.2     
   2 C2            -0.0233     0.0895     0.2539 C.2     
   3 C3             1.2962    -0.2695     0.5874 C.2     
   4 C4             2.1252     0.6838     0.0883 C.2     
   5 N5             1.3544     1.6146    -0.5401 N.pl3   
   6 N6             3.5174     0.7060     0.2001 N.pl3   
   7 C7             4.3149    -0.3688     0.3869 C.2     
   8 C8             5.6029     0.0784     0.4418 C.2     
   9 C9             5.5743     1.4779     0.2811 C.2     
  10 N10            4.3287     1.8452     0.1320 N.2     
  11 C11            6.8142    -0.7576     0.6359 C.ar    
  12 C12            8.0744    -0.1648     0.6719 C.ar    
  13 C13            9.1972    -0.9467     0.8531 C.ar    
  14 C14            9.0729    -2.3166     0.9988 C.ar    
  15 C15            7.8242    -2.9104     0.9638 C.ar    
  16 C16            6.6943    -2.1372     0.7884 C.ar    
  17 C17            1.8187     2.7652    -1.1904 C.ar    
  18 C18            2.9739     2.7116    -1.9592 C.ar    
  19 C19            3.4287     3.8476    -2.5995 C.ar    
  20 C20            2.7354     5.0376    -2.4753 C.ar    
  21 C21            1.5850     5.0943    -1.7100 C.ar    
  22 C22            1.1215     3.9603    -1.0722 C.ar    
  23 C23           -1.2473    -0.6728     0.6040 C.ar    
  24 C24           -2.4993    -0.2042     0.2109 C.ar    
  25 C25           -3.6344    -0.9175     0.5388 C.ar    
  26 C26           -3.5309    -2.0954     1.2566 C.ar    
  27 C27           -2.2906    -2.5650     1.6497 C.ar    
  28 C28           -1.1485    -1.8629     1.3220 C.ar    
  29 H29            1.5961    -1.1467     1.1415 H       
  30 H30            3.9915    -1.3953     0.4769 H       
  31 H31            6.4329     2.1330     0.2773 H       
  32 H32            8.1726     0.9047     0.5578 H       
  33 H33           10.1747    -0.4882     0.8808 H       
  34 H34            9.9541    -2.9248     1.1400 H       
  35 H35            7.7327    -3.9804     1.0778 H       
  36 H36            5.7197    -2.6017     0.7617 H       
  37 H37            3.5162     1.7827    -2.0560 H       
  38 H38            4.3271     3.8066    -3.1976 H       
  39 H39            3.0933     5.9247    -2.9767 H       
  40 H40            1.0461     6.0254    -1.6143 H       
  41 H41            0.2206     4.0042    -0.4783 H       
  42 H42           -2.5813     0.7157    -0.3490 H       
  43 H43           -4.6053    -0.5552     0.2346 H       
  44 H44           -4.4218    -2.6503     1.5113 H       
  45 H45           -2.2156    -3.4850     2.2103 H       
  46 H46           -0.1802    -2.2330     1.6253 H       
@<TRIPOS>BOND
   1    1    2 2
   2    1    5 1
   3    2    3 1
   4    2   23 1
   5    3    4 2
   6    3   29 1
   7    4    5 1
   8    4    6 1
   9    5   17 1
  10    6    7 1
  11    6   10 1
  12    7    8 2
  13    7   30 1
  14    8    9 1
  15    8   11 1
  16    9   10 2
  17    9   31 1
  18   11   12 ar
  19   11   16 ar
  20   12   13 ar
  21   12   32 1
  22   13   14 ar
  23   13   33 1
  24   14   15 ar
  25   14   34 1
  26   15   16 ar
  27   15   35 1
  28   16   36 1
  29   17   18 ar
  30   17   22 ar
  31   18   19 ar
  32   18   37 1
  33   19   20 ar
  34   19   38 1
  35   20   21 ar
  36   20   39 1
  37   21   22 ar
  38   21   40 1
  39   22   41 1
  40   23   24 ar
  41   23   28 ar
  42   24   25 ar
  43   24   42 1
  44   25   26 ar
  45   25   43 1
  46   26   27 ar
  47   26   44 1
  48   27   28 ar
  49   27   45 1
  50   28   46 1

#	End of record

