#	Name: ASD08151106
#	Creating user name:	WinNT
#	Creation time:	15. 06. 2019 21:17

#	Modifying user name:	WinNT
#	Modification time:	15. 06. 2019 21:17

#	Program:	/corina/corina34_cracker 3.40 0067  02.08.2006

@<TRIPOS>MOLECULE
ASD08151106
  38   40    0    0    0
SMALL
NO_CHARGES


@<TRIPOS>ATOM
   1 N1             0.3748     1.1911     0.2282 N.ar    
   2 C2             0.4647    -0.1063     0.3955 C.ar    
   3 C3             1.6663    -0.7168     0.7486 C.ar    
   4 C4             2.7884     0.0412     0.9285 C.ar    
   5 C5             2.6866     1.4337     0.7473 C.ar    
   6 C6             3.8039     2.2719     0.9176 C.ar    
   7 C7             3.6863     3.6150     0.7391 C.ar    
   8 C8             2.4560     4.1890     0.3831 C.ar    
   9 C9             1.3257     3.3867     0.2058 C.ar    
  10 C10            1.4339     1.9875     0.3889 C.ar    
  11 C11            2.3553     5.6496     0.1954 C.2     
  12 O12            1.4090     6.2580     0.6565 O.2     
  13 N13            3.3122     6.3089    -0.4873 N.am    
  14 C14            3.1525     7.7355    -0.7797 C.3     
  15 O15            4.4721     5.6226    -0.9220 O.3     
  16 C16            4.3946     5.1438    -2.2662 C.3     
  17 C17            0.0300     3.9934    -0.1688 C.ar    
  18 C18           -0.5500     3.7000    -1.4040 C.ar    
  19 C19           -1.7608     4.2699    -1.7473 C.ar    
  20 C20           -2.3979     5.1311    -0.8677 C.ar    
  21 C21           -1.8267     5.4245     0.3573 C.ar    
  22 C22           -0.6206     4.8570     0.7138 C.ar    
  23 F23           -2.3245     3.9878    -2.9423 F       
  24 Cl24           5.3381     1.5891     1.3578 Cl      
  25 H25           -0.4150    -0.7171     0.2563 H       
  26 H26            1.7105    -1.7879     0.8803 H       
  27 H27            3.7280    -0.4152     1.2027 H       
  28 H28            4.5508     4.2482     0.8733 H       
  29 H29            3.5824     8.3230     0.0315 H       
  30 H30            3.6639     7.9747    -1.7121 H       
  31 H31            2.0924     7.9701    -0.8762 H       
  32 H32            3.5579     4.4512    -2.3575 H       
  33 H33            4.2458     5.9848    -2.9434 H       
  34 H34            5.3212     4.6302    -2.5228 H       
  35 H35           -0.0533     3.0296    -2.0898 H       
  36 H36           -3.3440     5.5751    -1.1401 H       
  37 H37           -2.3281     6.0962     1.0383 H       
  38 H38           -0.1784     5.0842     1.6726 H       
@<TRIPOS>BOND
   1    1    2 ar
   2    1   10 ar
   3    2    3 ar
   4    2   25 1
   5    3    4 ar
   6    3   26 1
   7    4    5 ar
   8    4   27 1
   9    5    6 ar
  10    5   10 ar
  11    6    7 ar
  12    6   24 1
  13    7    8 ar
  14    7   28 1
  15    8    9 ar
  16    8   11 1
  17    9   10 ar
  18    9   17 1
  19   11   12 2
  20   11   13 am
  21   13   14 1
  22   13   15 1
  23   14   29 1
  24   14   30 1
  25   14   31 1
  26   15   16 1
  27   16   32 1
  28   16   33 1
  29   16   34 1
  30   17   18 ar
  31   17   22 ar
  32   18   19 ar
  33   18   35 1
  34   19   20 ar
  35   19   23 1
  36   20   21 ar
  37   20   36 1
  38   21   22 ar
  39   21   37 1
  40   22   38 1

#	End of record

