#	Name: ASD05473002
#	Creating user name:	WinNT
#	Creation time:	15. 06. 2019 21:00

#	Modifying user name:	WinNT
#	Modification time:	15. 06. 2019 21:00

#	Program:	/corina/corina34_cracker 3.40 0067  02.08.2006

@<TRIPOS>MOLECULE
ASD05473002
  37   39    0    0    0
SMALL
NO_CHARGES


@<TRIPOS>ATOM
   1 C1            -0.0168     1.3852     0.0097 C.ar    
   2 C2             0.0021    -0.0041     0.0020 C.ar    
   3 C3             1.1992    -0.6868    -0.0131 C.ar    
   4 C4             2.4024     0.0236    -0.0207 C.ar    
   5 C5             2.3767     1.4285    -0.0129 C.ar    
   6 C6             1.1623     2.0996     0.0022 C.ar    
   7 N7             3.7083    -0.3483    -0.0352 N.2     
   8 C8             4.4648     0.7103    -0.0367 C.2     
   9 N9             3.6978     1.8334    -0.0233 N.pl3   
  10 C10            5.9717     0.6943    -0.0504 C.3     
  11 C11            6.4835    -0.1449     1.1222 C.3     
  12 C12            6.0615    -1.6027     0.9285 C.3     
  13 C13            7.9870    -0.0608     1.1816 C.ar    
  14 C14            8.6067     0.4440     2.3094 C.ar    
  15 C15            9.9856     0.5214     2.3645 C.ar    
  16 C16           10.7456     0.0934     1.2906 C.ar    
  17 C17           10.1248    -0.4117     0.1621 C.ar    
  18 C18            8.7460    -0.4938     0.1104 C.ar    
  19 Cl19          12.4775     0.1908     1.3588 Cl      
  20 F20           -1.1614    -0.6906     0.0099 F       
  21 C21            6.4581    -2.4057     2.1405 C.2     
  22 O22            7.0206    -1.8673     3.0644 O.2     
  23 O23            6.1864    -3.7192     2.1936 O.3     
  24 H24           -0.9613     1.9089     0.0170 H       
  25 H25            1.2073    -1.7667    -0.0186 H       
  26 H26            1.1407     3.1794     0.0079 H       
  27 H27            4.0186     2.7488    -0.0218 H       
  28 H28            6.3220     0.2612    -0.9873 H       
  29 H29            6.3467     1.7136     0.0414 H       
  30 H30            6.0613     0.2351     2.0525 H       
  31 H31            4.9807    -1.6536     0.7967 H       
  32 H32            6.5547    -2.0095     0.0457 H       
  33 H33            8.0133     0.7784     3.1476 H       
  34 H34           10.4696     0.9162     3.2456 H       
  35 H35           10.7176    -0.7460    -0.6766 H       
  36 H36            8.2613    -0.8881    -0.7705 H       
  37 H37            6.4601    -4.1921     2.9915 H       
@<TRIPOS>BOND
   1    1    2 ar
   2    1    6 ar
   3    1   24 1
   4    2    3 ar
   5    2   20 1
   6    3    4 ar
   7    3   25 1
   8    4    5 ar
   9    4    7 1
  10    5    6 ar
  11    5    9 1
  12    6   26 1
  13    7    8 2
  14    8    9 1
  15    8   10 1
  16    9   27 1
  17   10   11 1
  18   10   28 1
  19   10   29 1
  20   11   12 1
  21   11   13 1
  22   11   30 1
  23   12   21 1
  24   12   31 1
  25   12   32 1
  26   13   14 ar
  27   13   18 ar
  28   14   15 ar
  29   14   33 1
  30   15   16 ar
  31   15   34 1
  32   16   17 ar
  33   16   19 1
  34   17   18 ar
  35   17   35 1
  36   18   36 1
  37   21   22 2
  38   21   23 1
  39   23   37 1

#	End of record

