#	Name: ASD04882566
#	Creating user name:	WinNT
#	Creation time:	15. 06. 2019 20:55

#	Modifying user name:	WinNT
#	Modification time:	15. 06. 2019 20:55

#	Program:	/corina/corina34_cracker 3.40 0067  02.08.2006

@<TRIPOS>MOLECULE
ASD04882566
  78   82    0    0    0
SMALL
NO_CHARGES


@<TRIPOS>ATOM
   1 C1            -0.0215     1.4012    -0.0092 C.ar    
   2 C2            -0.0115     0.0036    -0.0052 C.ar    
   3 C3            -1.2094    -0.7019    -0.0160 C.ar    
   4 C4            -2.4097    -0.0268    -0.0310 C.ar    
   5 C5            -2.4267     1.3708    -0.0350 C.ar    
   6 C6            -1.2239     2.0825    -0.0185 C.ar    
   7 N7             1.1998    -0.6830     0.0090 N.3     
   8 C8             1.3075    -1.5362     1.2007 C.3     
   9 C9             1.3717    -1.4731    -1.2181 C.3     
  10 C10            2.7456    -2.1474    -1.1992 C.3     
  11 N11            2.8533    -3.0005    -0.0075 N.3     
  12 C12            2.6814    -2.2105     1.2196 C.3     
  13 C13           -3.7126     2.0937    -0.0516 C.2     
  14 O14           -3.7265     3.3096    -0.0551 O.2     
  15 N15           -4.8720     1.4065    -0.0628 N.am    
  16 N16            1.1866     2.1110     0.0021 N.am    
  17 C17            4.0684    -3.6893     0.0068 C.ar    
  18 C18            4.0811    -5.0782     0.0108 C.ar    
  19 C19            5.2845    -5.7562     0.0244 C.ar    
  20 C20            6.4754    -5.0538     0.0346 C.ar    
  21 C21            6.4663    -3.6708     0.0307 C.ar    
  22 C22            5.2669    -2.9867     0.0112 C.ar    
  23 C23           -6.1489     2.1244    -0.0793 C.3     
  24 C24            1.2296     3.3600     0.5068 C.2     
  25 C25            2.5162     4.0732     0.6000 C.2     
  26 O26            0.2069     3.8985     0.8853 O.2     
  27 N27            3.7329     3.5991     0.2178 N.2     
  28 C28            4.6244     4.5145     0.4539 C.2     
  29 O29            4.0245     5.5887     0.9859 O.3     
  30 C30            2.7098     5.3324     1.0790 C.2     
  31 C31            6.0998     4.3882     0.1743 C.3     
  32 C32            6.7243     5.3956    -0.7932 C.3     
  33 C33            7.0165     5.4920     0.7055 C.3     
  34 C34           -7.3003     1.1169    -0.0895 C.3     
  35 C35           -8.6289     1.8622    -0.2323 C.3     
  36 O36           -8.6315     2.6010    -1.4555 O.3     
  37 C37            2.7836    -5.8445     0.0007 C.3     
  38 C38           -7.2975     0.3259     1.2201 C.3     
  39 C39           -9.7803     0.8547    -0.2426 C.3     
  40 N40          -11.0559     1.5703    -0.3797 N.3     
  41 H41           -1.1986    -1.7819    -0.0129 H       
  42 H42           -3.3385    -0.5778    -0.0400 H       
  43 H43           -1.2340     3.1625    -0.0213 H       
  44 H44            1.1893    -0.9264     2.0964 H       
  45 H45            0.5287    -2.2984     1.1739 H       
  46 H46            0.5937    -2.2346    -1.2724 H       
  47 H47            1.3004    -0.8173    -2.0858 H       
  48 H48            2.8638    -2.7572    -2.0949 H       
  49 H49            3.5244    -1.3852    -1.1724 H       
  50 H50            3.4594    -1.4490     1.2739 H       
  51 H51            2.7527    -2.8662     2.0873 H       
  52 H52           -4.8609     0.4366    -0.0600 H       
  53 H53            1.9919     1.7035    -0.3534 H       
  54 H54            5.2951    -6.8361     0.0275 H       
  55 H55            7.4149    -5.5864     0.0460 H       
  56 H56            7.3983    -3.1252     0.0390 H       
  57 H57            5.2605    -1.9068     0.0078 H       
  58 H58           -6.2239     2.7528     0.8082 H       
  59 H59           -6.2037     2.7479    -0.9716 H       
  60 H60            1.9513     5.9965     1.4664 H       
  61 H61            6.4908     3.3708     0.1632 H       
  62 H62            7.5264     5.0410    -1.4406 H       
  63 H63            6.0679     6.1497    -1.2275 H       
  64 H64            6.5524     6.3095     1.2572 H       
  65 H65            8.0108     5.2009     1.0442 H       
  66 H66           -7.1761     0.4317    -0.9281 H       
  67 H67           -8.7531     2.5474     0.6062 H       
  68 H68           -8.5249     2.0539    -2.2457 H       
  69 H69            2.4804    -6.0321    -1.0294 H       
  70 H70            2.9184    -6.7941     0.5184 H       
  71 H71            2.0134    -5.2615     0.5057 H       
  72 H72           -7.4217     1.0111     2.0587 H       
  73 H73           -8.1178    -0.3919     1.2128 H       
  74 H74           -6.3510    -0.2050     1.3219 H       
  75 H75           -9.6561     0.1695    -1.0812 H       
  76 H76           -9.7783     0.2912     0.6904 H       
  77 H77          -11.0578     2.1511    -1.2048 H       
  78 H78          -11.8326     0.9263    -0.3891 H       
@<TRIPOS>BOND
   1    1    2 ar
   2    1   16 1
   3    1    6 ar
   4    2    3 ar
   5    2    7 1
   6    3    4 ar
   7    3   41 1
   8    4    5 ar
   9    4   42 1
  10    5    6 ar
  11    5   13 1
  12    6   43 1
  13    7    8 1
  14    7    9 1
  15    8   12 1
  16    8   44 1
  17    8   45 1
  18    9   10 1
  19    9   46 1
  20    9   47 1
  21   10   11 1
  22   10   48 1
  23   10   49 1
  24   11   12 1
  25   11   17 1
  26   12   50 1
  27   12   51 1
  28   13   14 2
  29   13   15 am
  30   15   23 1
  31   15   52 1
  32   16   24 am
  33   16   53 1
  34   17   18 ar
  35   17   22 ar
  36   18   19 ar
  37   18   37 1
  38   19   20 ar
  39   19   54 1
  40   20   21 ar
  41   20   55 1
  42   21   22 ar
  43   21   56 1
  44   22   57 1
  45   23   34 1
  46   23   58 1
  47   23   59 1
  48   24   25 1
  49   24   26 2
  50   25   27 1
  51   25   30 2
  52   27   28 2
  53   28   29 1
  54   28   31 1
  55   29   30 1
  56   30   60 1
  57   31   32 1
  58   31   33 1
  59   31   61 1
  60   32   33 1
  61   32   62 1
  62   32   63 1
  63   33   64 1
  64   33   65 1
  65   34   35 1
  66   34   38 1
  67   34   66 1
  68   35   36 1
  69   35   39 1
  70   35   67 1
  71   36   68 1
  72   37   69 1
  73   37   70 1
  74   37   71 1
  75   38   72 1
  76   38   73 1
  77   38   74 1
  78   39   40 1
  79   39   75 1
  80   39   76 1
  81   40   77 1
  82   40   78 1

#	End of record

