#	Name: ASD00840126
#	Creating user name:	WinNT
#	Creation time:	15. 06. 2019 18:37

#	Modifying user name:	WinNT
#	Modification time:	15. 06. 2019 18:37

#	Program:	/corina/corina34_cracker 3.40 0067  02.08.2006

@<TRIPOS>MOLECULE
ASD00840126
  91   96    0    0    0
SMALL
NO_CHARGES


@<TRIPOS>ATOM
   1 N1            -0.2102     1.1910     0.0205 N.3     
   2 C2            -0.3501    -0.2693    -0.0446 C.3     
   3 C3             0.2518    -0.8973     1.2145 C.3     
   4 C4             1.7301    -0.5114     1.3148 C.3     
   5 C5             1.8511     1.0149     1.3321 C.3     
   6 C6             1.2029     1.5875     0.0696 C.3     
   7 N7            -2.4391     5.3333    -2.6719 N.am    
   8 C8            -1.8339     4.1355    -2.7378 C.2     
   9 C9            -2.6888     3.1606    -1.9565 C.3     
  10 C10           -3.8425     4.0005    -1.4585 C.ar    
  11 C11           -4.9513     3.7090    -0.6957 C.ar    
  12 C12           -5.8608     4.7067    -0.3892 C.ar    
  13 C13           -5.6502     5.9962    -0.8524 C.ar    
  14 C14           -4.5383     6.2891    -1.6179 C.ar    
  15 C15           -3.6198     5.2884    -1.9287 C.ar    
  16 O16           -0.7977     3.8827    -3.3153 O.2     
  17 F17           -6.5368     6.9710    -0.5541 F       
  18 S18           -1.8485     6.7065    -3.3845 S.o2    
  19 O19           -2.4040     7.8010    -2.6684 O.2     
  20 O20           -0.4499     6.5086    -3.5392 O.2     
  21 C21           -2.5231     6.7819    -5.0105 C.ar    
  22 C22           -2.1867     5.8138    -5.9464 C.ar    
  23 C23           -2.7178     5.8737    -7.2253 C.ar    
  24 C24           -3.5841     6.9011    -7.5664 C.ar    
  25 C25           -3.9174     7.8666    -6.6272 C.ar    
  26 C26           -3.3910     7.8015    -5.3510 C.ar    
  27 O27           -4.1061     6.9628    -8.8196 O.3     
  28 C28           -4.9915     8.0486    -9.1009 C.3     
  29 O29           -1.3370     4.8082    -5.6092 O.3     
  30 C30           -1.0351     3.8469    -6.6225 C.3     
  31 C31           -3.1876     2.0582    -2.8549 C.ar    
  32 C32           -3.8905     0.9893    -2.3177 C.ar    
  33 C33           -4.3482    -0.0239    -3.1472 C.ar    
  34 C34           -4.1033     0.0336    -4.5058 C.ar    
  35 C35           -3.4023     1.0994    -5.0385 C.ar    
  36 C36           -2.9502     2.1138    -4.2144 C.ar    
  37 O37           -4.1298     0.9348    -0.9810 O.3     
  38 C38           -4.7603    -0.2467    -0.4824 C.3     
  39 C39           -5.0555    -0.0765     1.0091 C.3     
  40 F40           -3.8515     0.0278     1.7139 F       
  41 F41           -5.8126     1.0835     1.2053 F       
  42 Cl42          -7.2605     4.3442     0.5716 Cl      
  43 C43           -1.9130     2.5890    -0.7979 C.2     
  44 O44           -2.2445     2.8468     0.3399 O.2     
  45 N45           -0.8509     1.7913    -1.0260 N.am    
  46 N46            2.2987    -1.0630     2.5519 N.3     
  47 C47            3.7451    -0.8133     2.6239 C.3     
  48 C48            4.2836    -1.3313     3.9596 C.3     
  49 N49            3.9934    -2.7670     4.0782 N.3     
  50 C50            2.5470    -3.0168     4.0062 C.3     
  51 C51            2.0085    -2.4988     2.6705 C.3     
  52 C52            4.5619    -3.3186     5.3153 C.3     
  53 H53           -1.4062    -0.5304    -0.1114 H       
  54 H54            0.1732    -0.6454    -0.9237 H       
  55 H55           -0.2800    -0.5322     2.0931 H       
  56 H56            0.1618    -1.9822     1.1587 H       
  57 H57            2.2697    -0.9098     0.4556 H       
  58 H58            1.3444     1.4101     2.2126 H       
  59 H59            2.9038     1.2962     1.3604 H       
  60 H60            1.7188     1.2026    -0.8100 H       
  61 H61            1.2746     2.6750     0.0858 H       
  62 H62           -5.1115     2.7029    -0.3373 H       
  63 H63           -4.3804     7.2957    -1.9759 H       
  64 H64           -2.4569     5.1215    -7.9551 H       
  65 H65           -4.5921     8.6671    -6.8923 H       
  66 H66           -3.6550     8.5514    -4.6201 H       
  67 H67           -5.3351     7.9791   -10.1330 H       
  68 H68           -5.8483     8.0023    -8.4288 H       
  69 H69           -4.4663     8.9926    -8.9556 H       
  70 H70           -1.9543     3.3579    -6.9449 H       
  71 H71           -0.5728     4.3483    -7.4728 H       
  72 H72           -0.3478     3.1013    -6.2228 H       
  73 H73           -4.8953    -0.8571    -2.7314 H       
  74 H74           -4.4594    -0.7550    -5.1521 H       
  75 H75           -3.2112     1.1422    -6.1006 H       
  76 H76           -2.4070     2.9478    -4.6336 H       
  77 H77           -5.6931    -0.4154    -1.0205 H       
  78 H78           -4.0981    -1.1003    -0.6266 H       
  79 H79           -5.6141    -0.9402     1.3698 H       
  80 H80           -0.5415     1.6434    -1.9334 H       
  81 H81            4.2447    -1.3309     1.8051 H       
  82 H82            3.9335     0.2575     2.5465 H       
  83 H83            5.3612    -1.1733     4.0031 H       
  84 H84            3.8037    -0.7945     4.7780 H       
  85 H85            2.3586    -4.0876     4.0836 H       
  86 H86            2.0474    -2.4991     4.8250 H       
  87 H87            0.9309    -2.6568     2.6270 H       
  88 H88            2.4884    -3.0356     1.8521 H       
  89 H89            4.1321    -2.8031     6.1741 H       
  90 H90            4.3325    -4.3824     5.3779 H       
  91 H91            5.6430    -3.1797     5.3119 H       
@<TRIPOS>BOND
   1    1    2 1
   2    1    6 1
   3    1   45 1
   4    2    3 1
   5    2   53 1
   6    2   54 1
   7    3    4 1
   8    3   55 1
   9    3   56 1
  10    4    5 1
  11    4   46 1
  12    4   57 1
  13    5    6 1
  14    5   58 1
  15    5   59 1
  16    6   60 1
  17    6   61 1
  18    7    8 am
  19    7   15 1
  20    7   18 am
  21    8    9 1
  22    8   16 2
  23    9   10 1
  24    9   31 1
  25    9   43 1
  26   10   11 ar
  27   10   15 ar
  28   11   12 ar
  29   11   62 1
  30   12   13 ar
  31   12   42 1
  32   13   14 ar
  33   13   17 1
  34   14   15 ar
  35   14   63 1
  36   18   19 2
  37   18   20 2
  38   18   21 1
  39   21   22 ar
  40   21   26 ar
  41   22   23 ar
  42   22   29 1
  43   23   24 ar
  44   23   64 1
  45   24   25 ar
  46   24   27 1
  47   25   26 ar
  48   25   65 1
  49   26   66 1
  50   27   28 1
  51   28   67 1
  52   28   68 1
  53   28   69 1
  54   29   30 1
  55   30   70 1
  56   30   71 1
  57   30   72 1
  58   31   32 ar
  59   31   36 ar
  60   32   33 ar
  61   32   37 1
  62   33   34 ar
  63   33   73 1
  64   34   35 ar
  65   34   74 1
  66   35   36 ar
  67   35   75 1
  68   36   76 1
  69   37   38 1
  70   38   39 1
  71   38   77 1
  72   38   78 1
  73   39   40 1
  74   39   41 1
  75   39   79 1
  76   43   44 2
  77   43   45 am
  78   45   80 1
  79   46   47 1
  80   46   51 1
  81   47   48 1
  82   47   81 1
  83   47   82 1
  84   48   49 1
  85   48   83 1
  86   48   84 1
  87   49   50 1
  88   49   52 1
  89   50   51 1
  90   50   85 1
  91   50   86 1
  92   51   87 1
  93   51   88 1
  94   52   89 1
  95   52   90 1
  96   52   91 1

#	End of record

