#	Name: ASD03520007
#	Creating user name:	WinNT
#	Creation time:	15. 06. 2019 20:42

#	Modifying user name:	WinNT
#	Modification time:	15. 06. 2019 20:42

#	Program:	/corina/corina34_cracker 3.40 0067  02.08.2006

@<TRIPOS>MOLECULE
ASD03520007
  55   58    0    0    0
SMALL
NO_CHARGES


@<TRIPOS>ATOM
   1 C1            -0.3560     2.5358     0.2177 C.3     
   2 C2            -0.3555     1.0474     0.5533 C.3     
   3 C3             0.3285     0.2184    -0.5454 C.3     
   4 C4            -0.3954     0.5047    -1.8484 C.3     
   5 C5            -0.1733     2.0059    -2.1754 C.3     
   6 C6            -0.9717     2.8064    -1.1643 C.3     
   7 C7             0.3833     0.8270     1.8766 C.3     
   8 C8             0.4560    -0.6422     2.1694 C.2     
   9 C9             0.9902    -1.5600     1.0859 C.3     
  10 C10            0.2211    -1.2697    -0.2068 C.3     
  11 C11           -0.2412     1.6284     2.9672 C.2     
  12 C12           -0.6423     1.1222     4.1225 C.2     
  13 C13           -0.4900    -0.3189     4.3845 C.2     
  14 C14            0.0653    -1.1704     3.3211 C.2     
  15 C15            0.1826    -0.1736    -3.0954 C.3     
  16 C16           -0.3352     0.7249    -4.2515 C.3     
  17 C17           -0.6151     2.1164    -3.6311 C.3     
  18 C18            0.1876     3.1757    -4.3414 C.2     
  19 O19           -2.0098     2.4192    -3.7035 O.3     
  20 O20            1.1748     2.8682    -4.9654 O.2     
  21 C21           -0.2414     4.6187    -4.2730 C.3     
  22 O22            0.6731     5.4235    -5.0199 O.3     
  23 C23            1.3125     2.3496    -2.0523 C.3     
  24 O24            0.9894     3.0170     0.2308 O.3     
  25 C25            1.8140     1.3406     1.7026 C.3     
  26 F26           -1.6761     0.6045     0.6843 F       
  27 O27           -0.8157    -0.7945     5.4562 O.2     
  28 O28           -1.5386     0.1792    -4.7955 O.3     
  29 H29           -0.9320     3.0703     0.9731 H       
  30 H30            1.3738     0.5145    -0.6326 H       
  31 H31           -1.4592     0.2908    -1.7455 H       
  32 H32           -2.0133     2.4856    -1.1759 H       
  33 H33           -0.9070     3.8692    -1.3978 H       
  34 H34            2.0524    -1.3694     0.9328 H       
  35 H35            0.8405    -2.5996     1.3775 H       
  36 H36           -0.8272    -1.5367    -0.0732 H       
  37 H37            0.6441    -1.8585    -1.0208 H       
  38 H38           -0.3744     2.6878     2.8048 H       
  39 H39           -1.0802     1.7650     4.8718 H       
  40 H40            0.1555    -2.2348     3.4799 H       
  41 H41            1.2721    -0.1730    -3.0648 H       
  42 H42           -0.2009    -1.1891    -3.1947 H       
  43 H43            0.4237     0.8079    -5.0294 H       
  44 H44           -2.3481     2.5016    -4.6057 H       
  45 H45           -1.2420     4.7206    -4.6932 H       
  46 H46           -0.2488     4.9467    -3.2335 H       
  47 H47            0.4582     6.3663    -5.0197 H       
  48 H48            1.8601     1.8954    -2.8780 H       
  49 H49            1.4390     3.4318    -2.0841 H       
  50 H50            1.6969     1.9665    -1.1070 H       
  51 H51            1.0725     3.9584     0.0261 H       
  52 H52            1.8244     2.4264     1.7984 H       
  53 H53            2.4532     0.9021     2.4688 H       
  54 H54            2.1836     1.0594     0.7165 H       
  55 H55           -1.4331    -0.7030    -5.1771 H       
@<TRIPOS>BOND
   1    1    2 1
   2    1   24 1
   3    1    6 1
   4    1   29 1
   5    2    7 1
   6    2   26 1
   7    2    3 1
   8    3    4 1
   9    3   10 1
  10    3   30 1
  11    4    5 1
  12    4   15 1
  13    4   31 1
  14    5    6 1
  15    5   17 1
  16    5   23 1
  17    6   32 1
  18    6   33 1
  19    7    8 1
  20    7   11 1
  21    7   25 1
  22    8    9 1
  23    8   14 2
  24    9   10 1
  25    9   34 1
  26    9   35 1
  27   10   36 1
  28   10   37 1
  29   11   12 2
  30   11   38 1
  31   12   13 1
  32   12   39 1
  33   13   14 1
  34   13   27 2
  35   14   40 1
  36   15   16 1
  37   15   41 1
  38   15   42 1
  39   16   17 1
  40   16   28 1
  41   16   43 1
  42   17   18 1
  43   17   19 1
  44   18   20 2
  45   18   21 1
  46   19   44 1
  47   21   22 1
  48   21   45 1
  49   21   46 1
  50   22   47 1
  51   23   48 1
  52   23   49 1
  53   23   50 1
  54   24   51 1
  55   25   52 1
  56   25   53 1
  57   25   54 1
  58   28   55 1

#	End of record

