#	Name: ASD02030139
#	Creating user name:	WinNT
#	Creation time:	15. 06. 2019 20:14

#	Modifying user name:	WinNT
#	Modification time:	15. 06. 2019 20:14

#	Program:	/corina/corina34_cracker 3.40 0067  02.08.2006

@<TRIPOS>MOLECULE
ASD02030139
  55   59    0    0    0
SMALL
NO_CHARGES


@<TRIPOS>ATOM
   1 N1            -0.1329     1.2640     0.4015 N.am    
   2 C2            -0.3363    -0.1914     0.4150 C.3     
   3 C3            -1.3610    -0.5330     1.5038 C.3     
   4 N4            -2.5291     0.3439     1.3411 N.am    
   5 C5            -2.3257     1.7994     1.3276 C.3     
   6 C6            -1.3016     2.1411     0.2444 C.3     
   7 C7             1.1027     1.7852     0.5365 C.2     
   8 C8             2.2504     0.9003     0.8283 C.2     
   9 N9             3.4766     1.2891     1.1042 N.2     
  10 N10            2.2237    -0.4446     0.8642 N.2     
  11 C11            3.4334    -0.8500     1.1557 C.2     
  12 N12            4.2061     0.2457     1.3030 N.pl3   
  13 O13            1.2733     2.9830     0.4183 O.2     
  14 C14           -3.7646    -0.1773     1.2061 C.2     
  15 C15           -3.9434    -1.6369     1.1268 C.2     
  16 O16           -4.7320     0.5579     1.1499 O.2     
  17 C17           -0.8716     3.6025     0.3870 C.3     
  18 C18           -1.9207     1.9167    -1.1366 C.3     
  19 C19            5.5716     0.2488     1.6185 C.ar    
  20 C20            6.2543     1.4515     1.7420 C.ar    
  21 C21            7.6000     1.4513     2.0529 C.ar    
  22 C22            8.2675     0.2549     2.2409 C.ar    
  23 C23            7.5903    -0.9445     2.1186 C.ar    
  24 C24            6.2431    -0.9507     1.8139 C.ar    
  25 C25           -5.1315    -2.2224     0.8550 C.2     
  26 N26           -2.9460    -2.5058     1.3110 N.2     
  27 C27           -3.2611    -3.7489     1.2085 C.2     
  28 S28           -4.9224    -3.9189     0.8513 S.3     
  29 C29           -2.2976    -4.8953     1.3766 C.3     
  30 C30           -2.5896    -5.9065     2.4871 C.3     
  31 C31           -2.7986    -6.2969     1.0226 C.3     
  32 H32           -0.7110    -0.5174    -0.5552 H       
  33 H33            0.6080    -0.6908     0.6318 H       
  34 H34           -1.6683    -1.5740     1.4034 H       
  35 H35           -0.9176    -0.3731     2.4866 H       
  36 H36           -3.2700     2.2987     1.1108 H       
  37 H37           -1.9509     2.1254     2.2979 H       
  38 H38            3.7541    -1.8758     1.2623 H       
  39 H39           -0.3296     3.7320     1.3238 H       
  40 H40           -0.2250     3.8740    -0.4474 H       
  41 H41           -1.7539     4.2425     0.3862 H       
  42 H42           -2.7957     2.5566    -1.2508 H       
  43 H43           -1.1890     2.1609    -1.9068 H       
  44 H44           -2.2183     0.8729    -1.2361 H       
  45 H45            5.7337     2.3862     1.5946 H       
  46 H46            8.1316     2.3865     2.1491 H       
  47 H47            9.3199     0.2573     2.4832 H       
  48 H48            8.1143    -1.8773     2.2659 H       
  49 H49            5.7147    -1.8877     1.7188 H       
  50 H50           -6.0604    -1.7032     0.6707 H       
  51 H51           -1.2528    -4.6660     1.1667 H       
  52 H52           -1.7370    -6.3427     3.0075 H       
  53 H53           -3.4786    -5.7425     3.0960 H       
  54 H54           -3.8251    -6.3898     0.6680 H       
  55 H55           -2.0834    -6.9900     0.5795 H       
@<TRIPOS>BOND
   1    1    2 1
   2    1    7 am
   3    1    6 1
   4    2    3 1
   5    2   32 1
   6    2   33 1
   7    3    4 1
   8    3   34 1
   9    3   35 1
  10    4    5 1
  11    4   14 am
  12    5    6 1
  13    5   36 1
  14    5   37 1
  15    6   17 1
  16    6   18 1
  17    7    8 1
  18    7   13 2
  19    8    9 2
  20    8   10 1
  21    9   12 1
  22   10   11 2
  23   11   12 1
  24   11   38 1
  25   12   19 1
  26   14   15 1
  27   14   16 2
  28   15   26 1
  29   15   25 2
  30   17   39 1
  31   17   40 1
  32   17   41 1
  33   18   42 1
  34   18   43 1
  35   18   44 1
  36   19   20 ar
  37   19   24 ar
  38   20   21 ar
  39   20   45 1
  40   21   22 ar
  41   21   46 1
  42   22   23 ar
  43   22   47 1
  44   23   24 ar
  45   23   48 1
  46   24   49 1
  47   25   28 1
  48   25   50 1
  49   26   27 2
  50   27   28 1
  51   27   29 1
  52   29   30 1
  53   29   31 1
  54   29   51 1
  55   30   31 1
  56   30   52 1
  57   30   53 1
  58   31   54 1
  59   31   55 1

#	End of record

