#	Name: ASD01882299
#	Creating user name:	WinNT
#	Creation time:	15. 06. 2019 19:44

#	Modifying user name:	WinNT
#	Modification time:	15. 06. 2019 19:44

#	Program:	/corina/corina34_cracker 3.40 0067  02.08.2006

@<TRIPOS>MOLECULE
ASD01882299
  56   58    0    0    0
SMALL
NO_CHARGES


@<TRIPOS>ATOM
   1 N1            -0.0165     1.3692     0.0096 N.pl3   
   2 O2             1.1412    -0.7243    -0.0127 O.3     
   3 C3             0.0021    -0.0041     0.0020 C.2     
   4 N4            -1.0753    -0.7270     0.0089 N.2     
   5 C5            -0.6823    -2.1496     0.0076 C.3     
   6 C6             0.8153    -2.0697     0.3922 C.3     
   7 C7             1.6390    -3.0940    -0.3909 C.3     
   8 O8             3.0178    -2.9666    -0.0377 O.3     
   9 C9             3.8916    -3.8096    -0.6484 C.ar    
  10 C10            5.2452    -3.7410    -0.3526 C.ar    
  11 C11            6.1314    -4.5989    -0.9747 C.ar    
  12 C12            5.6702    -5.5255    -1.8915 C.ar    
  13 C13            4.3216    -5.5956    -2.1884 C.ar    
  14 C14            3.4306    -4.7440    -1.5644 C.ar    
  15 N15            7.3859    -8.5978    -4.3333 N.3     
  16 C16            7.2344    -8.8696    -2.9176 C.3     
  17 C17            6.2596    -7.9066    -2.2409 C.3     
  18 C18            6.6410    -6.4621    -2.5701 C.3     
  19 C19            6.5489    -6.2734    -4.0841 C.3     
  20 C20            7.4953    -7.2319    -4.8021 C.3     
  21 C21            8.9348    -6.7174    -4.6803 C.3     
  22 C22            7.1287    -7.2084    -6.3032 C.3     
  23 C23            6.6639   -10.2961    -2.7588 C.3     
  24 C24            8.5833    -8.8340    -2.1929 C.3     
  25 C25            8.3777    -9.4805    -4.9621 C.3     
  26 H26            0.8168     1.8655     0.0043 H       
  27 H27           -0.8631     1.8427     0.0162 H       
  28 H28           -1.2463    -2.7101     0.7532 H       
  29 H29           -0.8071    -2.5872    -0.9829 H       
  30 H30            0.9511    -2.1991     1.4659 H       
  31 H31            1.2935    -4.0992    -0.1495 H       
  32 H32            1.5198    -2.9156    -1.4596 H       
  33 H33            5.6060    -3.0171     0.3632 H       
  34 H34            7.1853    -4.5456    -0.7450 H       
  35 H35            3.9639    -6.3197    -2.9054 H       
  36 H36            2.3767    -4.8024    -1.7930 H       
  37 H37            5.2469    -8.1045    -2.5961 H       
  38 H38            6.2942    -8.0537    -1.1600 H       
  39 H39            7.6462    -6.2446    -2.2205 H       
  40 H40            5.5235    -6.4627    -4.4106 H       
  41 H41            6.8135    -5.2439    -4.3371 H       
  42 H42            9.5964    -7.3442    -5.2782 H       
  43 H43            8.9850    -5.6897    -5.0399 H       
  44 H44            9.2461    -6.7527    -3.6363 H       
  45 H45            6.1086    -7.5696    -6.4338 H       
  46 H46            7.2039    -6.1882    -6.6797 H       
  47 H47            7.8150    -7.8508    -6.8550 H       
  48 H48            7.3510   -11.0140    -3.2068 H       
  49 H49            6.5413   -10.5226    -1.6997 H       
  50 H50            5.6970   -10.3584    -3.2580 H       
  51 H51            9.0323    -7.8476    -2.3092 H       
  52 H52            8.4323    -9.0419    -1.1336 H       
  53 H53            9.2453    -9.5872    -2.6202 H       
  54 H54            8.0651   -10.5184    -4.8471 H       
  55 H55            8.4574    -9.2404    -6.0223 H       
  56 H56            9.3465    -9.3377    -4.4833 H       
@<TRIPOS>BOND
   1    1    3 1
   2    1   26 1
   3    1   27 1
   4    2    3 1
   5    2    6 1
   6    3    4 2
   7    4    5 1
   8    5    6 1
   9    5   28 1
  10    5   29 1
  11    6    7 1
  12    6   30 1
  13    7    8 1
  14    7   31 1
  15    7   32 1
  16    8    9 1
  17    9   10 ar
  18    9   14 ar
  19   10   11 ar
  20   10   33 1
  21   11   12 ar
  22   11   34 1
  23   12   13 ar
  24   12   18 1
  25   13   14 ar
  26   13   35 1
  27   14   36 1
  28   15   16 1
  29   15   20 1
  30   15   25 1
  31   16   17 1
  32   16   23 1
  33   16   24 1
  34   17   18 1
  35   17   37 1
  36   17   38 1
  37   18   19 1
  38   18   39 1
  39   19   20 1
  40   19   40 1
  41   19   41 1
  42   20   21 1
  43   20   22 1
  44   21   42 1
  45   21   43 1
  46   21   44 1
  47   22   45 1
  48   22   46 1
  49   22   47 1
  50   23   48 1
  51   23   49 1
  52   23   50 1
  53   24   51 1
  54   24   52 1
  55   24   53 1
  56   25   54 1
  57   25   55 1
  58   25   56 1

#	End of record

