#	Name: ASD03331628
#	Creating user name:	WinNT
#	Creation time:	15. 06. 2019 20:39

#	Modifying user name:	WinNT
#	Modification time:	15. 06. 2019 20:39

#	Program:	/corina/corina34_cracker 3.40 0067  02.08.2006

@<TRIPOS>MOLECULE
ASD03331628
  51   53    0    0    0
SMALL
NO_CHARGES


@<TRIPOS>ATOM
   1 C1             0.3444     1.7042    -0.0138 C.3     
   2 N2             0.1710     0.2449    -0.0133 N.3     
   3 C3             0.6266    -0.3466    -1.2844 C.3     
   4 C4             2.0057     0.1860    -1.5770 C.2     
   5 N5             2.5445     1.2750    -0.9520 N.pl3   
   6 C6             1.8365     2.0511     0.0702 C.3     
   7 C7             2.9304    -0.2709    -2.4555 C.2     
   8 N8             4.0221     0.5346    -2.3600 N.2     
   9 C9             3.7920     1.4626    -1.4569 C.2     
  10 C10            4.7325     2.5309    -1.0586 C.2     
  11 C11            4.5906     3.2448     0.0740 C.2     
  12 C12            2.7806    -1.4303    -3.3520 C.2     
  13 O13            1.7494    -2.0753    -3.3447 O.2     
  14 N14            3.7860    -1.7762    -4.1801 N.am    
  15 C15            3.6370    -2.9292    -5.0715 C.3     
  16 C16            2.9262    -2.4934    -6.3544 C.3     
  17 C17            4.9978    -3.4791    -5.4132 C.2     
  18 N18            5.1418    -4.7864    -5.7079 N.am    
  19 O19            5.9634    -2.7454    -5.4231 O.2     
  20 C20            6.4780    -5.3443    -5.9304 C.3     
  21 C21            3.6915    -1.3322    -6.9922 C.3     
  22 C22            2.8741    -3.6684    -7.3329 C.3     
  23 C23            1.5023    -2.0438    -6.0210 C.3     
  24 S24            5.8477     4.3891     0.2209 S.3     
  25 C25            6.5682     3.8709    -1.2957 C.2     
  26 C26            5.8483     2.8828    -1.8224 C.2     
  27 H27           -0.0726     2.1182    -0.9318 H       
  28 H28           -0.1756     2.1310     0.8438 H       
  29 H29            0.6455    -0.1754     0.7717 H       
  30 H30            0.6624    -1.4323    -1.1938 H       
  31 H31           -0.0551    -0.0654    -2.0871 H       
  32 H32            1.9774     3.1162    -0.1134 H       
  33 H33            2.2189     1.7938     1.0579 H       
  34 H34            3.7925     3.1119     0.7895 H       
  35 H35            4.6084    -1.2618    -4.1858 H       
  36 H36            3.0482    -3.6996    -4.5737 H       
  37 H37            4.3606    -5.3579    -5.7725 H       
  38 H38            7.0824    -5.2084    -5.0336 H       
  39 H39            6.3949    -6.4077    -6.1548 H       
  40 H40            6.9507    -4.8319    -6.7683 H       
  41 H41            4.7059    -1.6525    -7.2298 H       
  42 H42            3.1851    -1.0217    -7.9062 H       
  43 H43            3.7286    -0.4950    -6.2951 H       
  44 H44            2.2835    -4.4758    -6.9000 H       
  45 H45            2.4157    -3.3434    -8.2669 H       
  46 H46            3.8859    -4.0232    -7.5289 H       
  47 H47            1.5394    -1.2067    -5.3239 H       
  48 H48            0.9959    -1.7333    -6.9349 H       
  49 H49            0.9571    -2.8711    -5.5666 H       
  50 H50            7.4630     4.2886    -1.7329 H       
  51 H51            6.0995     2.4025    -2.7565 H       
@<TRIPOS>BOND
   1    1    2 1
   2    1    6 1
   3    1   27 1
   4    1   28 1
   5    2    3 1
   6    2   29 1
   7    3    4 1
   8    3   30 1
   9    3   31 1
  10    4    5 1
  11    4    7 2
  12    5    6 1
  13    5    9 1
  14    6   32 1
  15    6   33 1
  16    7    8 1
  17    7   12 1
  18    8    9 2
  19    9   10 1
  20   10   11 2
  21   10   26 1
  22   11   24 1
  23   11   34 1
  24   12   13 2
  25   12   14 am
  26   14   15 1
  27   14   35 1
  28   15   16 1
  29   15   17 1
  30   15   36 1
  31   16   21 1
  32   16   22 1
  33   16   23 1
  34   17   18 am
  35   17   19 2
  36   18   20 1
  37   18   37 1
  38   20   38 1
  39   20   39 1
  40   20   40 1
  41   21   41 1
  42   21   42 1
  43   21   43 1
  44   22   44 1
  45   22   45 1
  46   22   46 1
  47   23   47 1
  48   23   48 1
  49   23   49 1
  50   24   25 1
  51   25   26 2
  52   25   50 1
  53   26   51 1

#	End of record

