#	Name: ASD05313207
#	Creating user name:	WinNT
#	Creation time:	15. 06. 2019 20:58

#	Modifying user name:	WinNT
#	Modification time:	15. 06. 2019 20:58

#	Program:	/corina/corina34_cracker 3.40 0067  02.08.2006

@<TRIPOS>MOLECULE
ASD05313207
  41   44    0    0    0
SMALL
NO_CHARGES


@<TRIPOS>ATOM
   1 C1            -0.0632     0.8453     0.9866 C.2     
   2 C2             0.1148    -0.5966     0.5754 C.3     
   3 N3             0.9543     1.7557     1.0095 N.pl3   
   4 N4             1.4611    -0.7111    -0.0167 N.am    
   5 C5             2.5772    -0.0336     0.6600 C.3     
   6 C6             2.3402     1.4812     0.6352 C.3     
   7 N7            -0.8786     2.6843     1.6447 N.2     
   8 N8            -1.1418     1.4517     1.3757 N.2     
   9 C9             0.4012     2.9236     1.4374 C.2     
  10 S10            1.6768     6.6160     2.1550 S.3     
  11 C11            2.8906     5.5415     1.6135 C.2     
  12 N12            2.3977     4.3709     1.4049 N.2     
  13 C13            1.1009     4.2107     1.6345 C.2     
  14 C14            0.4770     5.3292     2.0638 C.2     
  15 C15           -0.9856     5.4540     2.4051 C.3     
  16 C16            1.6628    -1.4176    -1.1467 C.2     
  17 O17            2.7579    -1.4208    -1.6741 O.2     
  18 C18            0.5520    -2.1886    -1.7446 C.ar    
  19 C19            0.3182    -2.1295    -3.1194 C.ar    
  20 C20           -0.7205    -2.8524    -3.6713 C.ar    
  21 C21           -1.5290    -3.6345    -2.8635 C.ar    
  22 C22           -1.3018    -3.6967    -1.5006 C.ar    
  23 C23           -0.2636    -2.9831    -0.9376 C.ar    
  24 C24            1.1972    -1.2783    -3.9991 C.3     
  25 Cl25          -1.0139    -2.7803    -5.3808 Cl      
  26 H26            0.0357    -1.2449     1.4481 H       
  27 H27           -0.6404    -0.8693    -0.1617 H       
  28 H28            2.6377    -0.3755     1.6933 H       
  29 H29            3.5095    -0.2646     0.1446 H       
  30 H30            2.5290     1.8629    -0.3682 H       
  31 H31            3.0118     1.9668     1.3431 H       
  32 H32            3.9268     5.8078     1.4665 H       
  33 H33           -1.1989     6.4748     2.7222 H       
  34 H34           -1.5853     5.2135     1.5273 H       
  35 H35           -1.2304     4.7640     3.2126 H       
  36 H36           -2.3406    -4.1980    -3.2996 H       
  37 H37           -1.9361    -4.3082    -0.8760 H       
  38 H38           -0.0851    -3.0360     0.1262 H       
  39 H39            2.0874    -1.8422    -4.2778 H       
  40 H40            0.6486    -0.9977    -4.8983 H       
  41 H41            1.4914    -0.3792    -3.4576 H       
@<TRIPOS>BOND
   1    1    2 1
   2    1    3 1
   3    1    8 2
   4    2    4 1
   5    2   26 1
   6    2   27 1
   7    3    6 1
   8    3    9 1
   9    4    5 1
  10    4   16 am
  11    5    6 1
  12    5   28 1
  13    5   29 1
  14    6   30 1
  15    6   31 1
  16    7    8 1
  17    7    9 2
  18    9   13 1
  19   10   11 1
  20   10   14 1
  21   11   12 2
  22   11   32 1
  23   12   13 1
  24   13   14 2
  25   14   15 1
  26   15   33 1
  27   15   34 1
  28   15   35 1
  29   16   17 2
  30   16   18 1
  31   18   19 ar
  32   18   23 ar
  33   19   20 ar
  34   19   24 1
  35   20   21 ar
  36   20   25 1
  37   21   22 ar
  38   21   36 1
  39   22   23 ar
  40   22   37 1
  41   23   38 1
  42   24   39 1
  43   24   40 1
  44   24   41 1

#	End of record

