#	Name: ASD01814418
#	Creating user name:	WinNT
#	Creation time:	15. 06. 2019 19:32

#	Modifying user name:	WinNT
#	Modification time:	15. 06. 2019 19:32

#	Program:	/corina/corina34_cracker 3.40 0067  02.08.2006

@<TRIPOS>MOLECULE
ASD01814418
  56   62    0    0    0
SMALL
NO_CHARGES


@<TRIPOS>ATOM
   1 C1            -0.0167     1.3819     0.0096 C.ar    
   2 C2             0.0021    -0.0041     0.0020 C.ar    
   3 C3             1.1969    -0.6936    -0.0127 C.ar    
   4 C4             2.3990     0.0034    -0.0204 C.ar    
   5 C5             2.3751     1.4118    -0.0131 C.ar    
   6 C6             1.1661     2.0940     0.0022 C.ar    
   7 N7             3.6101    -0.6577    -0.0347 N.pl3   
   8 N8             4.7454    -0.0610    -0.0415 N.2     
   9 C9             4.8826     1.2396    -0.0362 C.2     
  10 C10            3.6767     2.1037    -0.0219 C.2     
  11 C11            6.0121     2.1722    -0.0413 C.2     
  12 N12            5.4770     3.4119    -0.0305 N.am    
  13 N13            4.0817     3.3391    -0.0191 N.2     
  14 C14            3.5985    -2.1226    -0.0419 C.3     
  15 C15            3.5817    -2.6178    -1.4652 C.ar    
  16 C16            4.7723    -2.8539    -2.1276 C.ar    
  17 C17            4.7602    -3.3073    -3.4322 C.ar    
  18 C18            3.5509    -3.5264    -4.0783 C.ar    
  19 C19            2.3572    -3.2889    -3.4103 C.ar    
  20 C20            2.3758    -2.8404    -2.1041 C.ar    
  21 O21            7.1975     1.8865    -0.0524 O.2     
  22 C22            6.2112     4.5946    -0.0306 C.ar    
  23 N23            3.5353    -3.9862    -5.4025 N.pl3   
  24 C24            2.4333    -4.2390    -6.1442 C.2     
  25 C25            2.8448    -4.6634    -7.3615 C.2     
  26 C26            4.2440    -4.6707    -7.3649 C.2     
  27 N27            4.6586    -4.2593    -6.1937 N.2     
  28 C28            7.1540     4.8270    -1.0203 C.ar    
  29 C29            7.8825     5.9995    -1.0204 C.ar    
  30 C30            7.6776     6.9503    -0.0343 C.ar    
  31 C31            6.7436     6.7393     0.9600 C.ar    
  32 C32            5.9933     5.5624     0.9733 C.ar    
  33 C33            6.3414     7.6078     2.1280 C.3     
  34 C34            5.2514     6.8344     2.8829 C.3     
  35 C35            5.0677     5.5494     2.1125 C.2     
  36 O36            4.2903     4.6598     2.3876 O.2     
  37 H37           -0.9605     1.9070     0.0170 H       
  38 H38           -0.9295    -0.5505     0.0080 H       
  39 H39            1.1980    -1.7735    -0.0178 H       
  40 H40            1.1509     3.1739     0.0081 H       
  41 H41            4.4902    -2.4955     0.4620 H       
  42 H42            2.7104    -2.4815     0.4781 H       
  43 H43            5.7126    -2.6833    -1.6246 H       
  44 H44            5.6903    -3.4909    -3.9494 H       
  45 H45            1.4150    -3.4581    -3.9104 H       
  46 H46            1.4475    -2.6555    -1.5840 H       
  47 H47            1.4087    -4.1235    -5.8227 H       
  48 H48            2.2060    -4.9466    -8.1849 H       
  49 H49            4.8734    -4.9613    -8.1930 H       
  50 H50            7.3189     4.0895    -1.7919 H       
  51 H51            8.6162     6.1762    -1.7930 H       
  52 H52            8.2535     7.8639    -0.0432 H       
  53 H53            7.1982     7.7797     2.7796 H       
  54 H54            5.9462     8.5583     1.7694 H       
  55 H55            5.5750     6.6237     3.9022 H       
  56 H56            4.3216     7.4032     2.8909 H       
@<TRIPOS>BOND
   1    1    2 ar
   2    1    6 ar
   3    1   37 1
   4    2    3 ar
   5    2   38 1
   6    3    4 ar
   7    3   39 1
   8    4    5 ar
   9    4    7 1
  10    5    6 ar
  11    5   10 1
  12    6   40 1
  13    7    8 1
  14    7   14 1
  15    8    9 2
  16    9   10 1
  17    9   11 1
  18   10   13 2
  19   11   12 am
  20   11   21 2
  21   12   13 1
  22   12   22 1
  23   14   15 1
  24   14   41 1
  25   14   42 1
  26   15   16 ar
  27   15   20 ar
  28   16   17 ar
  29   16   43 1
  30   17   18 ar
  31   17   44 1
  32   18   19 ar
  33   18   23 1
  34   19   20 ar
  35   19   45 1
  36   20   46 1
  37   22   28 ar
  38   22   32 ar
  39   23   24 1
  40   23   27 1
  41   24   25 2
  42   24   47 1
  43   25   26 1
  44   25   48 1
  45   26   27 2
  46   26   49 1
  47   28   29 ar
  48   28   50 1
  49   29   30 ar
  50   29   51 1
  51   30   31 ar
  52   30   52 1
  53   31   32 ar
  54   31   33 1
  55   32   35 1
  56   33   34 1
  57   33   53 1
  58   33   54 1
  59   34   35 1
  60   34   55 1
  61   34   56 1
  62   35   36 2

#	End of record

