#	Name: ASD01915865
#	Creating user name:	WinNT
#	Creation time:	15. 06. 2019 20:06

#	Modifying user name:	WinNT
#	Modification time:	15. 06. 2019 20:06

#	Program:	/corina/corina34_cracker 3.40 0067  02.08.2006

@<TRIPOS>MOLECULE
ASD01915865
  47   51    0    0    0
SMALL
NO_CHARGES


@<TRIPOS>ATOM
   1 C1            -0.0042     1.4693     0.2373 C.2     
   2 N2             0.0668     0.1204    -0.0303 N.pl3   
   3 C3            -1.1418    -0.6622    -0.3158 C.3     
   4 C4            -2.3278    -0.0489     0.4268 C.3     
   5 N5            -2.4044     1.3988     0.2637 N.am    
   6 C6            -1.2937     2.1745     0.2888 C.2     
   7 C7             1.2760     1.9065     0.4304 C.2     
   8 C8             2.0760     0.7662     0.2767 C.2     
   9 N9             1.2871    -0.2488     0.0111 N.2     
  10 C10            3.5775     0.7145     0.3949 C.3     
  11 O11            4.0772     2.0199     0.6919 O.3     
  12 C12            5.4228     2.1483     0.8320 C.ar    
  13 O13           -1.3596     3.3876     0.3502 O.2     
  14 C14            5.9763     3.3873     1.1206 C.ar    
  15 C15            6.2449     1.0396     0.6921 C.ar    
  16 C16            7.6125     1.1728     0.8349 C.ar    
  17 C17            8.1621     2.4098     1.1170 C.ar    
  18 C18            7.3444     3.5152     1.2624 C.ar    
  19 C19           -3.6529     1.9997     0.0772 C.ar    
  20 C20           -4.5534     1.9919     1.1001 C.ar    
  21 C21           -5.8153     2.5964     0.9206 C.ar    
  22 C22           -6.1198     3.2208    -0.3764 C.ar    
  23 C23           -5.1403     3.1936    -1.3930 C.ar    
  24 C24           -3.9451     2.6007    -1.1562 C.ar    
  25 N25           -6.8827     2.7589     1.6817 N.2     
  26 N26           -7.8582     3.4505     0.9545 N.pl3   
  27 C27           -7.4024     3.7264    -0.2749 C.2     
  28 C28           -9.1823     3.8181     1.4623 C.3     
  29 H29           -1.3382    -0.6502    -1.3879 H       
  30 H30           -0.9966    -1.6901     0.0165 H       
  31 H31           -3.2481    -0.4950     0.0498 H       
  32 H32           -2.2361    -0.2794     1.4882 H       
  33 H33            1.6007     2.9122     0.6530 H       
  34 H34            3.8555     0.0283     1.1950 H       
  35 H35            4.0043     0.3674    -0.5461 H       
  36 H36            5.3380     4.2512     1.2340 H       
  37 H37            5.8160     0.0731     0.4722 H       
  38 H38            8.2528     0.3099     0.7265 H       
  39 H39            9.2315     2.5118     1.2282 H       
  40 H40            7.7761     4.4805     1.4823 H       
  41 H41           -4.3028     1.5258     2.0415 H       
  42 H42           -5.3417     3.6451    -2.3532 H       
  43 H43           -3.2014     2.5842    -1.9391 H       
  44 H44           -7.9419     4.2507    -1.0498 H       
  45 H45           -9.1323     4.8019     1.9289 H       
  46 H46           -9.8939     3.8431     0.6370 H       
  47 H47           -9.5060     3.0827     2.1990 H       
@<TRIPOS>BOND
   1    1    2 1
   2    1    7 2
   3    1    6 1
   4    2    3 1
   5    2    9 1
   6    3    4 1
   7    3   29 1
   8    3   30 1
   9    4    5 1
  10    4   31 1
  11    4   32 1
  12    5    6 am
  13    5   19 1
  14    6   13 2
  15    7    8 1
  16    7   33 1
  17    8    9 2
  18    8   10 1
  19   10   11 1
  20   10   34 1
  21   10   35 1
  22   11   12 1
  23   12   14 ar
  24   12   15 ar
  25   14   18 ar
  26   14   36 1
  27   15   16 ar
  28   15   37 1
  29   16   17 ar
  30   16   38 1
  31   17   18 ar
  32   17   39 1
  33   18   40 1
  34   19   20 ar
  35   19   24 ar
  36   20   21 ar
  37   20   41 1
  38   21   22 ar
  39   21   25 2
  40   22   23 ar
  41   22   27 2
  42   23   24 ar
  43   23   42 1
  44   24   43 1
  45   25   26 1
  46   26   27 1
  47   26   28 1
  48   27   44 1
  49   28   45 1
  50   28   46 1
  51   28   47 1

#	End of record

