#	Name: ASD01813071
#	Creating user name:	WinNT
#	Creation time:	15. 06. 2019 19:29

#	Modifying user name:	WinNT
#	Modification time:	15. 06. 2019 19:29

#	Program:	/corina/corina34_cracker 3.40 0067  02.08.2006

@<TRIPOS>MOLECULE
ASD01813071
  62   65    0    0    0
SMALL
NO_CHARGES


@<TRIPOS>ATOM
   1 C1            -0.6636     1.4725     0.0041 C.2     
   2 C2            -0.4076     0.1541    -0.0325 C.2     
   3 N3            -1.4203    -0.7579     0.0643 N.pl3   
   4 C4            -2.7090    -0.4178     0.1860 C.2     
   5 C5            -3.0746     0.9133     0.2228 C.2     
   6 C6            -2.0085     1.9192     0.1320 C.2     
   7 O7            -2.2707     3.1112     0.1582 O.2     
   8 C8            -1.0779    -2.1820     0.0326 C.3     
   9 C9            -1.2003    -2.6968    -1.3785 C.ar    
  10 C10            0.4095     2.5252    -0.0779 C.3     
  11 C11            1.7038     1.9370    -0.6355 C.3     
  12 C12            2.0306     0.6651     0.1569 C.3     
  13 C13            0.9890    -0.3953    -0.1903 C.3     
  14 C14           -0.0795    -2.7666    -2.1861 C.ar    
  15 C15           -0.1859    -3.2373    -3.4792 C.ar    
  16 C16           -1.4251    -3.6425    -3.9706 C.ar    
  17 C17           -2.5508    -3.5700    -3.1527 C.ar    
  18 C18           -2.4320    -3.1030    -1.8593 C.ar    
  19 N19           -0.0452     3.6120    -0.9554 N.3     
  20 C20           -1.5457    -4.1490    -5.3602 C.ar    
  21 C21           -2.7850    -4.5542    -5.8516 C.ar    
  22 C22           -2.8914    -5.0245    -7.1449 C.ar    
  23 C23           -1.7706    -5.0944    -7.9525 C.ar    
  24 C24           -0.5378    -4.6939    -7.4696 C.ar    
  25 C25           -0.4211    -4.2157    -6.1802 C.ar    
  26 C26            0.6325     4.8730    -0.6262 C.3     
  27 C27            0.1340     5.9786    -1.5590 C.3     
  28 C28            0.8399     7.2920    -1.2161 C.3     
  29 C29            0.3414     8.3975    -2.1489 C.3     
  30 C30           -4.4854     1.3106     0.3532 C.2     
  31 O31           -5.3513     0.4613     0.4305 O.2     
  32 O32           -4.8173     2.6165     0.3867 O.3     
  33 H33           -3.4647    -1.1862     0.2554 H       
  34 H34           -0.0541    -2.3173     0.3812 H       
  35 H35           -1.7585    -2.7338     0.6810 H       
  36 H36            0.5971     2.9246     0.9188 H       
  37 H37            1.5719     1.6904    -1.6891 H       
  38 H38            2.5136     2.6581    -0.5243 H       
  39 H39            3.0238     0.3077    -0.1149 H       
  40 H40            1.9957     0.8785     1.2252 H       
  41 H41            1.1146    -1.2519     0.4720 H       
  42 H42            1.1338    -0.7162    -1.2219 H       
  43 H43            0.8805    -2.4519    -1.8043 H       
  44 H44            0.6898    -3.2911    -4.1090 H       
  45 H45           -3.5137    -3.8829    -3.5286 H       
  46 H46           -3.3038    -3.0464    -1.2244 H       
  47 H47            0.0883     3.3725    -1.9265 H       
  48 H48           -3.6606    -4.5008    -5.2217 H       
  49 H49           -3.8514    -5.3389    -7.5268 H       
  50 H50           -1.8583    -5.4634    -8.9637 H       
  51 H51            0.3341    -4.7509    -8.1044 H       
  52 H52            0.5418    -3.9029    -5.8042 H       
  53 H53            0.4146     5.1437     0.4070 H       
  54 H54            1.7084     4.7505    -0.7504 H       
  55 H55            0.3520     5.7079    -2.5921 H       
  56 H56           -0.9419     6.1011    -1.4348 H       
  57 H57            0.6219     7.5626    -0.1830 H       
  58 H58            1.9158     7.1694    -1.3404 H       
  59 H59            0.5594     8.1269    -3.1821 H       
  60 H60           -0.7345     8.5201    -2.0247 H       
  61 H61            0.8443     9.3332    -1.9046 H       
  62 H62           -5.7568     2.8285     0.4734 H       
@<TRIPOS>BOND
   1    1    2 2
   2    1   10 1
   3    1    6 1
   4    2    3 1
   5    2   13 1
   6    3    4 1
   7    3    8 1
   8    4    5 2
   9    4   33 1
  10    5    6 1
  11    5   30 1
  12    6    7 2
  13    8    9 1
  14    8   34 1
  15    8   35 1
  16    9   14 ar
  17    9   18 ar
  18   10   11 1
  19   10   19 1
  20   10   36 1
  21   11   12 1
  22   11   37 1
  23   11   38 1
  24   12   13 1
  25   12   39 1
  26   12   40 1
  27   13   41 1
  28   13   42 1
  29   14   15 ar
  30   14   43 1
  31   15   16 ar
  32   15   44 1
  33   16   17 ar
  34   16   20 1
  35   17   18 ar
  36   17   45 1
  37   18   46 1
  38   19   26 1
  39   19   47 1
  40   20   21 ar
  41   20   25 ar
  42   21   22 ar
  43   21   48 1
  44   22   23 ar
  45   22   49 1
  46   23   24 ar
  47   23   50 1
  48   24   25 ar
  49   24   51 1
  50   25   52 1
  51   26   27 1
  52   26   53 1
  53   26   54 1
  54   27   28 1
  55   27   55 1
  56   27   56 1
  57   28   29 1
  58   28   57 1
  59   28   58 1
  60   29   59 1
  61   29   60 1
  62   29   61 1
  63   30   31 2
  64   30   32 1
  65   32   62 1

#	End of record

