#	Name: ASD01000164
#	Creating user name:	WinNT
#	Creation time:	15. 06. 2019 18:54

#	Modifying user name:	WinNT
#	Modification time:	15. 06. 2019 18:54

#	Program:	/corina/corina34_cracker 3.40 0067  02.08.2006

@<TRIPOS>MOLECULE
ASD01000164
  52   55    0    0    0
SMALL
NO_CHARGES


@<TRIPOS>ATOM
   1 C1             0.0490     1.4349    -0.1614 C.ar    
   2 C2            -2.5177    -0.3118    -0.0924 C.ar    
   3 C3            -0.0103    -0.0338     0.0118 C.3     
   4 C4             0.5999     4.1265    -0.6401 C.ar    
   5 C5            -0.6862     3.6639    -0.5126 C.ar    
   6 C6            -0.9627     2.3120    -0.2347 C.ar    
   7 C7             1.3721     1.9120    -0.2674 C.ar    
   8 C8             1.6481     3.2359    -0.4971 C.ar    
   9 C9            -3.6228    -1.1704     0.1185 C.ar    
  10 C10           -3.4502    -2.4942     0.4328 C.ar    
  11 C11           -2.1684    -3.0022     0.5458 C.ar    
  12 C12           -1.0970    -2.1621     0.3625 C.ar    
  13 C13           -1.2776    -0.7994     0.0638 C.ar    
  14 C14            0.8083    -0.6319    -1.1032 C.ar    
  15 C15            0.4331    -0.4342    -2.4189 C.ar    
  16 C16            1.1840    -0.9829    -3.4416 C.ar    
  17 C17            2.3103    -1.7290    -3.1487 C.ar    
  18 C18            2.6859    -1.9259    -1.8330 C.ar    
  19 C19            1.9375    -1.3736    -0.8104 C.ar    
  20 S20            0.8846    -0.4112     1.5439 S.3     
  21 C21           -0.0935     0.4449     2.8092 C.3     
  22 C22            0.4512     0.0977     4.1962 C.3     
  23 C23           -0.3614     0.8089     5.2474 C.2     
  24 N24            0.3630    -1.3533     4.4078 N.3     
  25 O25           -0.1263     2.1029     5.5158 O.3     
  26 O26           -1.2245     0.2143     5.8486 O.2     
  27 C27           -2.4387     2.1020     0.0247 C.3     
  28 O28           -2.9563     0.9141    -0.4961 O.3     
  29 C29            3.1283    -2.3280    -4.2636 C.3     
  30 F30            4.1178    -1.4201    -4.6557 F       
  31 F31            3.7299    -3.5097    -3.8176 F       
  32 F32            2.2965    -2.6103    -5.3525 F       
  33 H33            0.7900     5.1688    -0.8494 H       
  34 H34           -1.5075     4.3557    -0.6279 H       
  35 H35            2.1910     1.2154    -0.1644 H       
  36 H36            2.6702     3.5780    -0.5657 H       
  37 H37           -4.6238    -0.7745     0.0303 H       
  38 H38           -4.3062    -3.1335     0.5908 H       
  39 H39           -2.0120    -4.0459     0.7755 H       
  40 H40           -0.0952    -2.5559     0.4502 H       
  41 H41           -0.4468     0.1487    -2.6478 H       
  42 H42            0.8905    -0.8291    -4.4695 H       
  43 H43            3.5657    -2.5091    -1.6041 H       
  44 H44            2.2331    -1.5244     0.2173 H       
  45 H45           -0.0281     1.5215     2.6522 H       
  46 H46           -1.1346     0.1299     2.7384 H       
  47 H47            1.4923     0.4127     4.2670 H       
  48 H48           -0.5930    -1.6702     4.3470 H       
  49 H49            0.9508    -1.8502     3.7554 H       
  50 H50           -0.6730     2.5161     6.1981 H       
  51 H51           -2.6042     2.1077     1.1020 H       
  52 H52           -2.9879     2.9375    -0.4096 H       
@<TRIPOS>BOND
   1    1    3 1
   2    1    7 ar
   3    1    6 ar
   4    2    9 ar
   5    2   13 ar
   6    2   28 1
   7    3   14 1
   8    3   20 1
   9    3   13 1
  10    4    5 ar
  11    4    8 ar
  12    4   33 1
  13    5    6 ar
  14    5   34 1
  15    6   27 1
  16    7    8 ar
  17    7   35 1
  18    8   36 1
  19    9   10 ar
  20    9   37 1
  21   10   11 ar
  22   10   38 1
  23   11   12 ar
  24   11   39 1
  25   12   13 ar
  26   12   40 1
  27   14   15 ar
  28   14   19 ar
  29   15   16 ar
  30   15   41 1
  31   16   17 ar
  32   16   42 1
  33   17   18 ar
  34   17   29 1
  35   18   19 ar
  36   18   43 1
  37   19   44 1
  38   20   21 1
  39   21   22 1
  40   21   45 1
  41   21   46 1
  42   22   23 1
  43   22   24 1
  44   22   47 1
  45   23   25 1
  46   23   26 2
  47   24   48 1
  48   24   49 1
  49   25   50 1
  50   27   28 1
  51   27   51 1
  52   27   52 1
  53   29   30 1
  54   29   31 1
  55   29   32 1

#	End of record

