#	Name: ASD01948225
#	Creating user name:	WinNT
#	Creation time:	15. 06. 2019 20:14

#	Modifying user name:	WinNT
#	Modification time:	15. 06. 2019 20:14

#	Program:	/corina/corina34_cracker 3.40 0067  02.08.2006

@<TRIPOS>MOLECULE
ASD01948225
  43   46    0    0    0
SMALL
NO_CHARGES


@<TRIPOS>ATOM
   1 C1             0.1087     1.1191    -0.3198 C.ar    
   2 C2             0.1639    -0.2349    -0.1068 C.ar    
   3 C3             1.3591    -0.8460     0.2909 C.ar    
   4 C4             2.5061    -0.0695     0.4730 C.ar    
   5 C5             2.4563     1.2968     0.2601 C.ar    
   6 C6             1.2538     1.9016    -0.1395 C.ar    
   7 C7            -0.8627    -1.3358    -0.2104 C.3     
   8 N8            -0.1701    -2.5779     0.1502 N.am    
   9 C9             1.1108    -2.2918     0.4387 C.2     
  10 C10            2.8130     2.7450     2.6231 C.ar    
  11 C11            3.7471     2.8425     1.6009 C.ar    
  12 N12            3.6007     2.0732     0.4419 N.pl3   
  13 C13            2.9598     3.5065     3.7668 C.ar    
  14 C14            4.0357     4.3660     3.8946 C.ar    
  15 C15            4.9697     4.4663     2.8785 C.ar    
  16 C16            4.8291     3.7075     1.7317 C.ar    
  17 F17            5.7409     3.8053     0.7396 F       
  18 I18            4.2522     5.5182     5.6308 I       
  19 O19            1.9464    -3.1091     0.7732 O.2     
  20 C20            1.1982     3.3575    -0.3673 C.2     
  21 N21            2.2126     4.1886    -0.3325 N.2     
  22 N22            1.7964     5.3809    -0.5779 N.2     
  23 C23            0.4990     5.3583    -0.7793 C.2     
  24 O24            0.0934     4.0807    -0.6563 O.3     
  25 N25           -0.3013     6.4446    -1.0687 N.pl3   
  26 C26            0.2888     7.7812    -1.1767 C.3     
  27 C27           -0.8072     8.7979    -1.5022 C.3     
  28 O28           -1.7238     8.8766    -0.4087 O.3     
  29 H29           -0.8172     1.5799    -0.6308 H       
  30 H30            3.4308    -0.5352     0.7802 H       
  31 H31           -1.6830    -1.1495     0.4828 H       
  32 H32           -1.2411    -1.4005    -1.2306 H       
  33 H33           -0.5710    -3.4608     0.1761 H       
  34 H34            1.9697     2.0778     2.5228 H       
  35 H35            4.2951     2.0796    -0.2354 H       
  36 H36            2.2330     3.4306     4.5620 H       
  37 H37            5.8084     5.1389     2.9810 H       
  38 H38           -1.2546     6.3233    -1.2006 H       
  39 H39            0.7618     8.0470    -0.2313 H       
  40 H40            1.0358     7.7855    -1.9705 H       
  41 H41           -0.3570     9.7762    -1.6700 H       
  42 H42           -1.3391     8.4837    -2.4002 H       
  43 H43           -2.4470     9.5037    -0.5461 H       
@<TRIPOS>BOND
   1    1    2 ar
   2    1    6 ar
   3    1   29 1
   4    2    3 ar
   5    2    7 1
   6    3    4 ar
   7    3    9 1
   8    4    5 ar
   9    4   30 1
  10    5    6 ar
  11    5   12 1
  12    6   20 1
  13    7    8 1
  14    7   31 1
  15    7   32 1
  16    8    9 am
  17    8   33 1
  18    9   19 2
  19   10   11 ar
  20   10   13 ar
  21   10   34 1
  22   11   12 1
  23   11   16 ar
  24   12   35 1
  25   13   14 ar
  26   13   36 1
  27   14   15 ar
  28   14   18 1
  29   15   16 ar
  30   15   37 1
  31   16   17 1
  32   20   21 2
  33   20   24 1
  34   21   22 1
  35   22   23 2
  36   23   24 1
  37   23   25 1
  38   25   26 1
  39   25   38 1
  40   26   27 1
  41   26   39 1
  42   26   40 1
  43   27   28 1
  44   27   41 1
  45   27   42 1
  46   28   43 1

#	End of record

