#	Name: ASD01901072
#	Creating user name:	WinNT
#	Creation time:	15. 06. 2019 19:53

#	Modifying user name:	WinNT
#	Modification time:	15. 06. 2019 19:53

#	Program:	/corina/corina34_cracker 3.40 0067  02.08.2006

@<TRIPOS>MOLECULE
ASD01901072
  28   29    0    0    0
SMALL
NO_CHARGES


@<TRIPOS>ATOM
   1 C1            -0.0184     1.5028     0.0103 C.2     
   2 C2             0.0021    -0.0041     0.0020 C.3     
   3 C3             1.2453     2.2555     0.0023 C.ar    
   4 C4             1.2302     3.6544     0.0099 C.ar    
   5 C5             2.4181     4.3530     0.0023 C.ar    
   6 C6             3.6255     3.6732    -0.0134 C.ar    
   7 C7             3.6481     2.2877    -0.0210 C.ar    
   8 C8             2.4681     1.5759    -0.0073 C.ar    
   9 Cl9            5.1169     4.5616    -0.0241 Cl      
  10 O10           -1.3386    -0.4987     0.0122 O.3     
  11 C11           -1.4983    -1.8484     0.0064 C.ar    
  12 C12           -2.7733    -2.3978     0.0157 C.ar    
  13 C13           -2.9327    -3.7705     0.0099 C.ar    
  14 C14           -1.8235    -4.5962    -0.0051 C.ar    
  15 C15           -0.5531    -4.0513    -0.0139 C.ar    
  16 C16           -0.3882    -2.6792    -0.0144 C.ar    
  17 Br17          -4.2902    -1.2689     0.0368 Br      
  18 O18           -1.0767     2.0948     0.0185 O.2     
  19 H19            0.5123    -0.3556    -0.8948 H       
  20 H20            0.5293    -0.3651     0.8851 H       
  21 H21            0.2899     4.1855     0.0214 H       
  22 H22            2.4080     5.4329     0.0082 H       
  23 H23            4.5928     1.7645    -0.0333 H       
  24 H24            2.4873     0.4961    -0.0087 H       
  25 H25           -3.9241    -4.1987     0.0174 H       
  26 H26           -1.9500    -5.6688    -0.0096 H       
  27 H27            0.3114    -4.6985    -0.0252 H       
  28 H28            0.6046    -2.2543    -0.0264 H       
@<TRIPOS>BOND
   1    1    2 1
   2    1    3 1
   3    1   18 2
   4    2   10 1
   5    2   19 1
   6    2   20 1
   7    3    4 ar
   8    3    8 ar
   9    4    5 ar
  10    4   21 1
  11    5    6 ar
  12    5   22 1
  13    6    7 ar
  14    6    9 1
  15    7    8 ar
  16    7   23 1
  17    8   24 1
  18   10   11 1
  19   11   12 ar
  20   11   16 ar
  21   12   13 ar
  22   12   17 1
  23   13   14 ar
  24   13   25 1
  25   14   15 ar
  26   14   26 1
  27   15   16 ar
  28   15   27 1
  29   16   28 1

#	End of record

