#	Name: ASD02560266
#	Creating user name:	WinNT
#	Creation time:	15. 06. 2019 20:25

#	Modifying user name:	WinNT
#	Modification time:	15. 06. 2019 20:25

#	Program:	/corina/corina34_cracker 3.40 0067  02.08.2006

@<TRIPOS>MOLECULE
ASD02560266
  38   40    0    0    0
SMALL
NO_CHARGES


@<TRIPOS>ATOM
   1 C1             0.9653     1.5044     1.5382 C.2     
   2 O2             0.9191     0.1623     1.6097 O.3     
   3 C3             0.4223    -0.1895     2.8086 C.2     
   4 N4             0.1602     0.9038     3.4801 N.2     
   5 N5             0.5135     1.9904     2.6669 N.2     
   6 N6             0.2217    -1.4863     3.2565 N.pl3   
   7 N7             1.4189     2.2458     0.4575 N.pl3   
   8 C8             1.4752     3.6347     0.5405 C.ar    
   9 C9             0.3214     4.3892     0.3485 C.ar    
  10 C10            0.3736     5.7622     0.4298 C.ar    
  11 C11            1.5874     6.3990     0.7057 C.ar    
  12 C12            2.7445     5.6381     0.8981 C.ar    
  13 C13            2.6841     4.2651     0.8209 C.ar    
  14 C14           -0.1878    -1.7154     4.5734 C.ar    
  15 C15           -0.8833    -2.8744     4.8942 C.ar    
  16 C16           -1.2867    -3.0981     6.1958 C.ar    
  17 C17           -0.9990    -2.1689     7.1802 C.ar    
  18 C18           -0.3067    -1.0132     6.8634 C.ar    
  19 C19            0.1049    -0.7874     5.5647 C.ar    
  20 Cl20          -1.5081    -2.4532     8.8153 Cl      
  21 C21           -0.9863     3.7020     0.0507 C.3     
  22 C22            3.9308     3.4441     1.0281 C.3     
  23 C23            1.6454     7.8273     0.7906 C.1     
  24 N24            1.6915     8.9604     0.8579 N.1     
  25 H25            0.3655    -2.2344     2.6561 H       
  26 H26            1.6969     1.7968    -0.3562 H       
  27 H27           -0.5220     6.3471     0.2803 H       
  28 H28            3.6838     6.1268     1.1110 H       
  29 H29           -1.1087    -3.5996     4.1262 H       
  30 H30           -1.8274    -3.9990     6.4458 H       
  31 H31           -0.0840    -0.2896     7.6336 H       
  32 H32            0.6454     0.1145     5.3181 H       
  33 H33           -1.5534     3.5842     0.9741 H       
  34 H34           -1.5605     4.3034    -0.6542 H       
  35 H35           -0.7909     2.7214    -0.3833 H       
  36 H36            4.0606     3.2426     2.0915 H       
  37 H37            3.8390     2.5016     0.4883 H       
  38 H38            4.7944     3.9942     0.6545 H       
@<TRIPOS>BOND
   1    1    2 1
   2    1    7 1
   3    1    5 2
   4    2    3 1
   5    3    4 2
   6    3    6 1
   7    4    5 1
   8    6   14 1
   9    6   25 1
  10    7    8 1
  11    7   26 1
  12    8    9 ar
  13    8   13 ar
  14    9   10 ar
  15    9   21 1
  16   10   11 ar
  17   10   27 1
  18   11   12 ar
  19   11   23 1
  20   12   13 ar
  21   12   28 1
  22   13   22 1
  23   14   15 ar
  24   14   19 ar
  25   15   16 ar
  26   15   29 1
  27   16   17 ar
  28   16   30 1
  29   17   18 ar
  30   17   20 1
  31   18   19 ar
  32   18   31 1
  33   19   32 1
  34   21   33 1
  35   21   34 1
  36   21   35 1
  37   22   36 1
  38   22   37 1
  39   22   38 1
  40   23   24 3

#	End of record

