#	Name: ASD01883564
#	Creating user name:	WinNT
#	Creation time:	15. 06. 2019 19:46

#	Modifying user name:	WinNT
#	Modification time:	15. 06. 2019 19:46

#	Program:	/corina/corina34_cracker 3.40 0067  02.08.2006

@<TRIPOS>MOLECULE
ASD01883564
  50   53    0    0    0
SMALL
NO_CHARGES


@<TRIPOS>ATOM
   1 C1             0.9695     1.2665    -0.6199 C.2     
   2 C2             1.1867    -0.0638    -0.6882 C.2     
   3 N3             2.4139    -0.5868    -0.4261 N.am    
   4 C4             3.4506     0.2028    -0.0902 C.2     
   5 C5             3.2791     1.5922    -0.0048 C.2     
   6 C6             2.0298     2.1342    -0.2712 C.2     
   7 C7             2.6113    -2.0360    -0.5104 C.3     
   8 O8             4.5429    -0.2915     0.1413 O.2     
   9 Cl9            4.6103     2.6189     0.4283 Cl      
  10 C10            1.8109     3.5964    -0.1917 C.ar    
  11 C11            1.4862     4.3182    -1.3405 C.ar    
  12 C12            1.2825     5.6795    -1.2634 C.ar    
  13 C13            1.4005     6.3330    -0.0440 C.ar    
  14 C14            1.7244     5.6174     1.1031 C.ar    
  15 C15            1.9233     4.2547     1.0339 C.ar    
  16 C16            3.0325    -2.4115    -1.9326 C.3     
  17 C17            3.2386    -3.9250    -2.0206 C.3     
  18 O18            1.1996     7.6744     0.0281 O.3     
  19 C19            3.5505    -4.5166    -3.3967 C.3     
  20 C20            4.6486    -4.4288    -2.3350 C.3     
  21 Cl21           1.8714     6.4391     2.6253 Cl      
  22 C22            0.7527     8.3284    -1.1613 C.3     
  23 C23            0.0052     9.6127    -0.7899 C.3     
  24 C24           -0.4008    10.3462    -2.0708 C.3     
  25 O25            0.7650    10.6226    -2.8497 O.3     
  26 C26            1.4785     9.4565    -3.2660 C.3     
  27 C27            1.9600     8.6873    -2.0331 C.3     
  28 H28           -0.0099     1.6673    -0.8353 H       
  29 H29            0.3735    -0.7227    -0.9546 H       
  30 H30            3.3893    -2.3382     0.1906 H       
  31 H31            1.6801    -2.5447    -0.2610 H       
  32 H32            1.3948     3.8110    -2.2896 H       
  33 H33            1.0311     6.2384    -2.1527 H       
  34 H34            2.1745     3.6989     1.9251 H       
  35 H35            2.2544    -2.1094    -2.6336 H       
  36 H36            3.9637    -1.9029    -2.1820 H       
  37 H37            2.6299    -4.5226    -1.3421 H       
  38 H38            3.1473    -5.5036    -3.6234 H       
  39 H39            3.6088    -3.8276    -4.2393 H       
  40 H40            5.4294    -3.6820    -2.4791 H       
  41 H41            4.9679    -5.3581    -1.8631 H       
  42 H42            0.0866     7.6655    -1.7136 H       
  43 H43           -0.8867     9.3620    -0.2155 H       
  44 H44            0.6553    10.2532    -0.1938 H       
  45 H45           -1.0831     9.7212    -2.6469 H       
  46 H46           -0.8957    11.2824    -1.8124 H       
  47 H47            0.8208     8.8199    -3.8578 H       
  48 H48            2.3375     9.7518    -3.8686 H       
  49 H49            2.6496     9.3091    -1.4622 H       
  50 H50            2.4662     7.7747    -2.3478 H       
@<TRIPOS>BOND
   1    1    2 2
   2    1    6 1
   3    1   28 1
   4    2    3 1
   5    2   29 1
   6    3    4 am
   7    3    7 1
   8    4    5 1
   9    4    8 2
  10    5    6 2
  11    5    9 1
  12    6   10 1
  13    7   16 1
  14    7   30 1
  15    7   31 1
  16   10   11 ar
  17   10   15 ar
  18   11   12 ar
  19   11   32 1
  20   12   13 ar
  21   12   33 1
  22   13   14 ar
  23   13   18 1
  24   14   15 ar
  25   14   21 1
  26   15   34 1
  27   16   17 1
  28   16   35 1
  29   16   36 1
  30   17   19 1
  31   17   20 1
  32   17   37 1
  33   18   22 1
  34   19   20 1
  35   19   38 1
  36   19   39 1
  37   20   40 1
  38   20   41 1
  39   22   23 1
  40   22   27 1
  41   22   42 1
  42   23   24 1
  43   23   43 1
  44   23   44 1
  45   24   25 1
  46   24   45 1
  47   24   46 1
  48   25   26 1
  49   26   27 1
  50   26   47 1
  51   26   48 1
  52   27   49 1
  53   27   50 1

#	End of record

