#	Name: ASD01148643
#	Creating user name:	WinNT
#	Creation time:	15. 06. 2019 19:02

#	Modifying user name:	WinNT
#	Modification time:	15. 06. 2019 19:02

#	Program:	/corina/corina34_cracker 3.40 0067  02.08.2006

@<TRIPOS>MOLECULE
ASD01148643
  64   68    0    0    0
SMALL
NO_CHARGES


@<TRIPOS>ATOM
   1 C1            -0.0169     1.4366    -0.0252 C.ar    
   2 C2             0.0192     0.0536    -0.0358 C.ar    
   3 C3            -1.1607    -0.6688    -0.0207 C.ar    
   4 C4            -2.3746    -0.0085     0.0050 C.ar    
   5 C5            -2.4101     1.3734     0.0157 C.ar    
   6 C6            -1.2314     2.0957     0.0064 C.ar    
   7 C7            -3.7341     2.0927     0.0432 C.3     
   8 O8            -4.7239     1.3245     0.7571 O.3     
   9 C9            -3.6494     3.3757     0.9039 C.3     
  10 C10           -4.1234     2.8939     2.2619 C.2     
  11 N11           -4.7055     1.7508     2.1051 N.2     
  12 C12           -3.9494     3.6059     3.5395 C.ar    
  13 C13           -4.4572     3.0250     4.7800 C.ar    
  14 C14           -3.2968     4.8304     3.5735 C.ar    
  15 C15           -3.1194     5.5208     4.7594 C.ar    
  16 C16           -3.5860     5.0186     5.9662 C.ar    
  17 C17           -4.2759     3.7312     5.9927 C.ar    
  18 C18           -3.3818     5.7768     7.2141 C.2     
  19 O19           -3.8833     5.3873     8.2512 O.2     
  20 N20           -2.6393     6.9015     7.2053 N.am    
  21 C21           -4.7629     3.1858     7.1873 C.ar    
  22 C22           -5.1163     1.7892     4.7939 C.ar    
  23 C23           -4.2089     2.4142    -1.3752 C.3     
  24 F24           -4.3419     1.2268    -2.1029 F       
  25 F25           -5.4454     3.0661    -1.3165 F       
  26 F26           -3.2737     3.2438    -2.0032 F       
  27 Cl27           1.5443    -0.7750    -0.0687 Cl      
  28 N28           -2.4453     7.6220     8.3911 N.pl3   
  29 C29           -1.5222     7.1187     9.4113 C.3     
  30 C30           -3.1319     8.8202     8.6006 C.ar    
  31 C31           -2.9406     9.5358     9.7757 C.ar    
  32 C32           -3.6207    10.7203     9.9795 C.ar    
  33 C33           -4.4913    11.1943     9.0152 C.ar    
  34 C34           -4.6844    10.4841     7.8444 C.ar    
  35 C35           -4.0031     9.3018     7.6318 C.ar    
  36 C36           -5.5740     1.2835     5.9743 C.ar    
  37 C37           -5.4005     1.9810     7.1668 C.ar    
  38 C38           -1.1222    -2.1753    -0.0328 C.3     
  39 F39           -2.4286    -2.6753    -0.0138 F       
  40 F40           -0.4710    -2.6158    -1.1900 F       
  41 F41           -0.4312    -2.6332     1.0941 F       
  42 C42            1.2678     2.2242    -0.0416 C.3     
  43 F43            0.9762     3.5924    -0.0267 F       
  44 F44            2.0296     1.8974     1.0853 F       
  45 F45            1.9901     1.9140    -1.1989 F       
  46 H46           -3.2957    -0.5724     0.0164 H       
  47 H47           -1.2597     3.1753     0.0147 H       
  48 H48           -2.6227     3.7379     0.9586 H       
  49 H49           -4.3128     4.1477     0.5140 H       
  50 H50           -2.9189     5.2533     2.6544 H       
  51 H51           -2.6064     6.4711     4.7457 H       
  52 H52           -2.2393     7.2122     6.3781 H       
  53 H53           -4.6337     3.7163     8.1192 H       
  54 H54           -5.2614     1.2404     3.8751 H       
  55 H55           -0.5232     7.5122     9.2234 H       
  56 H56           -1.8597     7.4397    10.3968 H       
  57 H57           -1.4969     6.0297     9.3729 H       
  58 H58           -2.2611     9.1660    10.5294 H       
  59 H59           -3.4728    11.2770    10.8930 H       
  60 H60           -5.0219    12.1209     9.1770 H       
  61 H61           -5.3653    10.8569     7.0935 H       
  62 H62           -4.1543     8.7477     6.7172 H       
  63 H63           -6.0821     0.3305     5.9839 H       
  64 H64           -5.7753     1.5612     8.0885 H       
@<TRIPOS>BOND
   1    1    2 ar
   2    1   42 1
   3    1    6 ar
   4    2    3 ar
   5    2   27 1
   6    3    4 ar
   7    3   38 1
   8    4    5 ar
   9    4   46 1
  10    5    6 ar
  11    5    7 1
  12    6   47 1
  13    7    8 1
  14    7    9 1
  15    7   23 1
  16    8   11 1
  17    9   10 1
  18    9   48 1
  19    9   49 1
  20   10   11 2
  21   10   12 1
  22   12   13 ar
  23   12   14 ar
  24   13   22 ar
  25   13   17 ar
  26   14   15 ar
  27   14   50 1
  28   15   16 ar
  29   15   51 1
  30   16   17 ar
  31   16   18 1
  32   17   21 ar
  33   18   19 2
  34   18   20 am
  35   20   28 1
  36   20   52 1
  37   21   37 ar
  38   21   53 1
  39   22   36 ar
  40   22   54 1
  41   23   24 1
  42   23   25 1
  43   23   26 1
  44   28   29 1
  45   28   30 1
  46   29   55 1
  47   29   56 1
  48   29   57 1
  49   30   31 ar
  50   30   35 ar
  51   31   32 ar
  52   31   58 1
  53   32   33 ar
  54   32   59 1
  55   33   34 ar
  56   33   60 1
  57   34   35 ar
  58   34   61 1
  59   35   62 1
  60   36   37 ar
  61   36   63 1
  62   37   64 1
  63   38   39 1
  64   38   40 1
  65   38   41 1
  66   42   43 1
  67   42   44 1
  68   42   45 1

#	End of record

