#	Name: ASD08070670
#	Creating user name:	WinNT
#	Creation time:	15. 06. 2019 21:15

#	Modifying user name:	WinNT
#	Modification time:	15. 06. 2019 21:15

#	Program:	/corina/corina34_cracker 3.40 0067  02.08.2006

@<TRIPOS>MOLECULE
ASD08070670
  46   46    0    0    0
SMALL
NO_CHARGES


@<TRIPOS>ATOM
   1 C1             0.2170     1.5227    -0.0231 C.2     
   2 C2             0.3202     0.0638    -0.0196 C.2     
   3 C3             1.5321    -0.5273    -0.0808 C.2     
   4 O4             1.2241     2.2039    -0.0813 O.2     
   5 N5            -0.9934     2.1128     0.0324 N.am    
   6 C6             1.6358    -1.9936    -0.0773 C.ar    
   7 C7             2.8914    -2.6090    -0.1407 C.ar    
   8 C8             2.9831    -3.9825    -0.1366 C.ar    
   9 C9             1.8314    -4.7582    -0.0697 C.ar    
  10 C10            0.5819    -4.1520    -0.0066 C.ar    
  11 C11            0.4796    -2.7792    -0.0047 C.ar    
  12 O12            1.9271    -6.1123    -0.0664 O.3     
  13 C13            0.7047    -6.8489     0.0040 C.3     
  14 C14           -1.0934     3.5698     0.1475 C.3     
  15 C15           -0.9145     4.2040    -1.2334 C.3     
  16 C16           -0.9419     5.7281    -1.1021 C.3     
  17 C17            0.2715     6.1922    -0.2939 C.3     
  18 C18           -0.8995     6.3608    -2.4945 C.3     
  19 C19           -2.4676     3.9441     0.7064 C.3     
  20 O20           -3.4807     3.5684    -0.2287 O.3     
  21 C21           -4.8092     3.8757     0.1988 C.3     
  22 H22           -0.5734    -0.5407     0.0319 H       
  23 H23            2.4257     0.0771    -0.1324 H       
  24 H24           -1.7984     1.5728    -0.0039 H       
  25 H25            3.7867    -2.0072    -0.1931 H       
  26 H26            3.9514    -4.4583    -0.1859 H       
  27 H27           -0.3098    -4.7591     0.0452 H       
  28 H28           -0.4913    -2.3092     0.0485 H       
  29 H29            0.1771    -6.5904     0.9222 H       
  30 H30            0.0813    -6.6015    -0.8552 H       
  31 H31            0.9231    -7.9168    -0.0011 H       
  32 H32           -0.3163     3.9355     0.8186 H       
  33 H33            0.0412     3.8927    -1.6551 H       
  34 H34           -1.7233     3.8812    -1.8890 H       
  35 H35           -1.8560     6.0325    -0.5924 H       
  36 H36            0.2088     7.2679    -0.1297 H       
  37 H37            0.2860     5.6782     0.6672 H       
  38 H38            1.1840     5.9611    -0.8433 H       
  39 H39           -1.7639     6.0301    -3.0703 H       
  40 H40           -0.9190     7.4466    -2.4009 H       
  41 H41            0.0146     6.0564    -3.0042 H       
  42 H42           -2.6312     3.4215     1.6488 H       
  43 H43           -2.5103     5.0201     0.8755 H       
  44 H44           -5.0213     3.3516     1.1307 H       
  45 H45           -4.9004     4.9502     0.3574 H       
  46 H46           -5.5191     3.5596    -0.5655 H       
@<TRIPOS>BOND
   1    1    2 1
   2    1    4 2
   3    1    5 am
   4    2    3 2
   5    2   22 1
   6    3    6 1
   7    3   23 1
   8    5   14 1
   9    5   24 1
  10    6    7 ar
  11    6   11 ar
  12    7    8 ar
  13    7   25 1
  14    8    9 ar
  15    8   26 1
  16    9   10 ar
  17    9   12 1
  18   10   11 ar
  19   10   27 1
  20   11   28 1
  21   12   13 1
  22   13   29 1
  23   13   30 1
  24   13   31 1
  25   14   15 1
  26   14   19 1
  27   14   32 1
  28   15   16 1
  29   15   33 1
  30   15   34 1
  31   16   17 1
  32   16   18 1
  33   16   35 1
  34   17   36 1
  35   17   37 1
  36   17   38 1
  37   18   39 1
  38   18   40 1
  39   18   41 1
  40   19   20 1
  41   19   42 1
  42   19   43 1
  43   20   21 1
  44   21   44 1
  45   21   45 1
  46   21   46 1

#	End of record

