#	Name: ASD00122058
#	Creating user name:	WinNT
#	Creation time:	15. 06. 2019 18:31

#	Modifying user name:	WinNT
#	Modification time:	15. 06. 2019 18:31

#	Program:	/corina/corina34_cracker 3.40 0067  02.08.2006

@<TRIPOS>MOLECULE
ASD00122058
  41   41    0    0    0
SMALL
NO_CHARGES


@<TRIPOS>ATOM
   1 C1            -0.0167     1.3772     0.0096 C.ar    
   2 C2             0.0021    -0.0041     0.0020 C.ar    
   3 C3             1.2080    -0.6802    -0.0131 C.ar    
   4 C4             2.3980     0.0239    -0.0207 C.ar    
   5 C5             2.3846     1.4052    -0.0127 C.ar    
   6 C6             1.1759     2.0860     0.0020 C.ar    
   7 O7             1.1601     3.4449     0.0095 O.3     
   8 C8            -0.1205     4.0787     0.0246 C.3     
   9 C9             1.2349    -4.1966    -1.4737 C.2     
  10 N10            1.2314    -4.8646    -2.6443 N.am    
  11 O11            1.2522    -4.8083    -0.4265 O.2     
  12 C12            1.2484    -6.3295    -2.6518 C.3     
  13 C13           -0.1813    -6.8568    -2.5148 C.3     
  14 C14            1.8512    -6.8257    -3.9676 C.3     
  15 C15            3.3196    -6.4035    -4.0472 C.3     
  16 C16           -0.7401    -6.4656    -1.1453 C.3     
  17 C17            1.2256    -2.1871    -0.0209 C.3     
  18 C18            1.2174    -2.6898    -1.4659 C.3     
  19 H19           -0.9589     1.9049     0.0169 H       
  20 H20           -0.9260    -0.5563     0.0083 H       
  21 H21            3.3387    -0.5065    -0.0325 H       
  22 H22            3.3144     1.9547    -0.0179 H       
  23 H23            0.0097     5.1609     0.0292 H       
  24 H24           -0.6822     3.7842    -0.8618 H       
  25 H25           -0.6659     3.7746     0.9180 H       
  26 H26            1.2176    -4.3754    -3.4818 H       
  27 H27            1.8502    -6.6901    -1.8176 H       
  28 H28           -0.8043    -6.4254    -3.2983 H       
  29 H29           -0.1786    -7.9427    -2.6094 H       
  30 H30            1.7828    -7.9127    -4.0115 H       
  31 H31            1.3028    -6.3931    -4.8044 H       
  32 H32            3.7490    -6.7570    -4.9846 H       
  33 H33            3.3880    -5.3165    -4.0034 H       
  34 H34            3.8679    -6.8361    -3.2104 H       
  35 H35           -0.1171    -6.8970    -0.3619 H       
  36 H36           -0.7428    -5.3797    -1.0507 H       
  37 H37           -1.7587    -6.8413    -1.0478 H       
  38 H38            2.1247    -2.5426     0.4824 H       
  39 H39            0.3449    -2.5634     0.4997 H       
  40 H40            2.0981    -2.3135    -1.9865 H       
  41 H41            0.3183    -2.3343    -1.9692 H       
@<TRIPOS>BOND
   1    1    2 ar
   2    1    6 ar
   3    1   19 1
   4    2    3 ar
   5    2   20 1
   6    3    4 ar
   7    3   17 1
   8    4    5 ar
   9    4   21 1
  10    5    6 ar
  11    5   22 1
  12    6    7 1
  13    7    8 1
  14    8   23 1
  15    8   24 1
  16    8   25 1
  17    9   10 am
  18    9   11 2
  19    9   18 1
  20   10   12 1
  21   10   26 1
  22   12   13 1
  23   12   14 1
  24   12   27 1
  25   13   16 1
  26   13   28 1
  27   13   29 1
  28   14   15 1
  29   14   30 1
  30   14   31 1
  31   15   32 1
  32   15   33 1
  33   15   34 1
  34   16   35 1
  35   16   36 1
  36   16   37 1
  37   17   18 1
  38   17   38 1
  39   17   39 1
  40   18   40 1
  41   18   41 1

#	End of record

