#	Name: ASD01884844
#	Creating user name:	WinNT
#	Creation time:	15. 06. 2019 19:49

#	Modifying user name:	WinNT
#	Modification time:	15. 06. 2019 19:49

#	Program:	/corina/corina34_cracker 3.40 0067  02.08.2006

@<TRIPOS>MOLECULE
ASD01884844
  49   52    0    0    0
SMALL
NO_CHARGES


@<TRIPOS>ATOM
   1 C1             1.1207     1.3446    -0.2203 C.3     
   2 N2             1.1330    -0.1196    -0.2665 N.pl3   
   3 C3             1.4517    -0.8878     0.9395 C.3     
   4 C4             0.1840    -1.1739     1.7024 C.ar    
   5 C5            -0.2711    -0.2866     2.6654 C.ar    
   6 C6            -1.4426    -0.5907     3.3421 C.ar    
   7 C7            -2.1129    -1.7597     3.0363 C.ar    
   8 N8            -1.6504    -2.5809     2.1137 N.ar    
   9 C9            -0.5429    -2.3215     1.4468 C.ar    
  10 C10            0.8406    -0.7839    -1.4618 C.ar    
  11 C11            0.8471    -2.1768    -1.5028 C.ar    
  12 C12            0.5609    -2.8458    -2.6716 C.ar    
  13 C13            0.2610    -2.1320    -3.8289 C.ar    
  14 N14           -0.0276    -2.7956    -5.0051 N.pl3   
  15 C15           -0.3229    -2.1554    -6.1456 C.2     
  16 C16           -0.3600    -0.7784    -6.2272 C.2     
  17 C17           -0.6889    -0.1135    -7.4977 C.2     
  18 N18           -0.8292     1.2263    -7.5406 N.am    
  19 O19           -0.8342    -0.7729    -8.5095 O.2     
  20 C20           -0.0660     0.0139    -5.0232 C.2     
  21 O21           -0.0865     1.2323    -5.0447 O.2     
  22 C22            0.2541    -0.7272    -3.7889 C.ar    
  23 C23            0.5398    -0.0568    -2.6003 C.ar    
  24 C24           -0.0107    -4.1955    -5.0069 C.ar    
  25 C25           -0.9803    -4.9035    -4.3086 C.ar    
  26 C26           -0.9621    -6.2843    -4.3121 C.ar    
  27 C27            0.0221    -6.9631    -5.0111 C.ar    
  28 F28            0.0381    -8.3140    -5.0132 F       
  29 C29            0.9896    -6.2590    -5.7084 C.ar    
  30 C30            0.9723    -4.8782    -5.7115 C.ar    
  31 H31            2.1136     1.7241    -0.4616 H       
  32 H32            0.4005     1.7250    -0.9447 H       
  33 H33            0.8389     1.6742     0.7797 H       
  34 H34            1.9256    -1.8279     0.6568 H       
  35 H35            2.1318    -0.3125     1.5676 H       
  36 H36            0.2741     0.6198     2.8837 H       
  37 H37           -1.8262     0.0776     4.0989 H       
  38 H38           -3.0258    -2.0040     3.5591 H       
  39 H39           -0.1974    -3.0158     0.6952 H       
  40 H40            1.0792    -2.7370    -0.6091 H       
  41 H41            0.5695    -3.9256    -2.6909 H       
  42 H42           -0.5385    -2.7368    -7.0298 H       
  43 H43           -0.7856     1.7449    -6.7221 H       
  44 H44           -0.9737     1.6718    -8.3900 H       
  45 H45            0.5303     1.0227    -2.5692 H       
  46 H46           -1.7478    -4.3746    -3.7631 H       
  47 H47           -1.7157    -6.8353    -3.7690 H       
  48 H48            1.7563    -6.7903    -6.2529 H       
  49 H49            1.7247    -4.3296    -6.2585 H       
@<TRIPOS>BOND
   1    1    2 1
   2    1   31 1
   3    1   32 1
   4    1   33 1
   5    2    3 1
   6    2   10 1
   7    3    4 1
   8    3   34 1
   9    3   35 1
  10    4    9 ar
  11    4    5 ar
  12    5    6 ar
  13    5   36 1
  14    6    7 ar
  15    6   37 1
  16    7    8 ar
  17    7   38 1
  18    8    9 ar
  19    9   39 1
  20   10   23 ar
  21   10   11 ar
  22   11   12 ar
  23   11   40 1
  24   12   13 ar
  25   12   41 1
  26   13   22 ar
  27   13   14 1
  28   14   15 1
  29   14   24 1
  30   15   16 2
  31   15   42 1
  32   16   17 1
  33   16   20 1
  34   17   18 am
  35   17   19 2
  36   18   43 1
  37   18   44 1
  38   20   21 2
  39   20   22 1
  40   22   23 ar
  41   23   45 1
  42   24   30 ar
  43   24   25 ar
  44   25   26 ar
  45   25   46 1
  46   26   27 ar
  47   26   47 1
  48   27   28 1
  49   27   29 ar
  50   29   30 ar
  51   29   48 1
  52   30   49 1

#	End of record

