#	Name: ASD01900436
#	Creating user name:	WinNT
#	Creation time:	15. 06. 2019 19:51

#	Modifying user name:	WinNT
#	Modification time:	15. 06. 2019 19:51

#	Program:	/corina/corina34_cracker 3.40 0067  02.08.2006

@<TRIPOS>MOLECULE
ASD01900436
  26   28    0    0    0
SMALL
NO_CHARGES


@<TRIPOS>ATOM
   1 C1            -0.0263     1.3949     0.1271 C.ar    
   2 C2             0.0063     0.0002    -0.0625 C.ar    
   3 C3             1.2233    -0.6705     0.0536 C.ar    
   4 C4             2.3510     0.0689     0.3516 C.ar    
   5 C5             2.2453     1.4426     0.5257 C.ar    
   6 N6             1.0909     2.0593     0.4133 N.ar    
   7 N7            -2.1143     0.7221    -0.3274 N.2     
   8 N8            -1.2752    -0.3969    -0.3392 N.pl3   
   9 C9            -1.4235     1.7964    -0.0522 C.2     
  10 N10           -1.9266     3.0976     0.0457 N.pl3   
  11 C11           -3.3024     3.3226    -0.0397 C.ar    
  12 C12           -4.1951     2.3413     0.3728 C.ar    
  13 C13           -5.5561     2.5670     0.2876 C.ar    
  14 C14           -6.0298     3.7691    -0.2082 C.ar    
  15 C15           -5.1429     4.7485    -0.6199 C.ar    
  16 C16           -3.7808     4.5304    -0.5320 C.ar    
  17 Cl17          -5.7417     6.2547    -1.2416 Cl      
  18 Cl18          -6.6723     1.3411     0.8023 Cl      
  19 H19            1.2824    -1.7399    -0.0856 H       
  20 H20            3.3098    -0.4186     0.4492 H       
  21 H21            3.1305     2.0158     0.7590 H       
  22 H22           -1.5559    -1.3085    -0.5156 H       
  23 H23           -1.3201     3.8438     0.1730 H       
  24 H24           -3.8260     1.4028     0.7594 H       
  25 H25           -7.0936     3.9431    -0.2742 H       
  26 H26           -3.0892     5.2967    -0.8496 H       
@<TRIPOS>BOND
   1    1    2 ar
   2    1    6 ar
   3    1    9 1
   4    2    3 ar
   5    2    8 1
   6    3    4 ar
   7    3   19 1
   8    4    5 ar
   9    4   20 1
  10    5    6 ar
  11    5   21 1
  12    7    8 1
  13    7    9 2
  14    8   22 1
  15    9   10 1
  16   10   11 1
  17   10   23 1
  18   11   12 ar
  19   11   16 ar
  20   12   13 ar
  21   12   24 1
  22   13   14 ar
  23   13   18 1
  24   14   15 ar
  25   14   25 1
  26   15   16 ar
  27   15   17 1
  28   16   26 1

#	End of record

