#	Name: ASD05730046
#	Creating user name:	WinNT
#	Creation time:	15. 06. 2019 21:02

#	Modifying user name:	WinNT
#	Modification time:	15. 06. 2019 21:02

#	Program:	/corina/corina34_cracker 3.40 0067  02.08.2006

@<TRIPOS>MOLECULE
ASD05730046
  85   90    0    0    0
SMALL
NO_CHARGES


@<TRIPOS>ATOM
   1 O1             0.0173     0.8300     1.3846 O.3     
   2 C2             0.1349    -0.4066     0.8314 C.ar    
   3 C3            -0.7924    -0.8376    -0.1060 C.ar    
   4 C4            -0.6735    -2.0931    -0.6687 C.ar    
   5 C5             0.3746    -2.9242    -0.2958 C.ar    
   6 C6             1.3025    -2.4920     0.6427 C.ar    
   7 C7             1.1852    -1.2342     1.2004 C.ar    
   8 N8             0.4956    -4.1975    -0.8655 N.pl3   
   9 C9             1.7467    -4.7349    -1.0958 C.ar    
  10 N10            1.8348    -5.9836    -1.5281 N.ar    
  11 C11            3.0204    -6.5352    -1.7614 C.ar    
  12 C12            4.1820    -5.7638    -1.5393 C.ar    
  13 C13            4.0354    -4.4456    -1.0808 C.ar    
  14 N14            2.8176    -3.9783    -0.8806 N.ar    
  15 N15            3.1189    -7.8282    -2.2089 N.am    
  16 C16            4.3211    -8.3871    -2.4449 C.2     
  17 C17            5.5492    -7.6195    -2.2264 C.2     
  18 C18            5.4600    -6.3176    -1.7772 C.2     
  19 C19            1.9009    -8.6110    -2.4323 C.3     
  20 O20            4.3875    -9.5369    -2.8415 O.2     
  21 C21            6.8714    -8.2331    -2.4851 C.ar    
  22 N22            7.2433    -9.3090    -1.8022 N.ar    
  23 C23            1.4263    -8.4155    -3.8737 C.3     
  24 C24           -1.1489     1.5836     1.0470 C.3     
  25 C25           -1.4238     2.6188     2.1413 C.3     
  26 N26            0.2083    -9.1983    -4.0971 N.am    
  27 C27            7.7155    -7.6792    -3.4495 C.ar    
  28 C28            8.9486    -8.2649    -3.6793 C.ar    
  29 C29            9.2985    -9.3854    -2.9380 C.ar    
  30 C30            8.4116    -9.8847    -2.0028 C.ar    
  31 S31           10.8565   -10.1683    -3.1922 S.o2    
  32 C32           12.0070    -9.4089    -2.0948 C.ar    
  33 O33           10.7075   -11.5109    -2.7513 O.2     
  34 S34           -1.2768    -8.4850    -3.9294 S.o2    
  35 C35            0.3040   -10.6121    -4.4689 C.3     
  36 O36           11.2690    -9.8234    -4.5076 O.2     
  37 C37           -2.6373     3.4628     1.7452 C.3     
  38 N38           -2.3717     4.1345     0.4666 N.3     
  39 C39           -2.1515     3.1599    -0.6095 C.3     
  40 C40           -0.9235     2.3068    -0.2836 C.3     
  41 C41           -3.4583     5.0614     0.1232 C.3     
  42 C42           -1.6592    -7.8418    -5.5819 C.3     
  43 O43           -2.1463    -9.5593    -3.5990 O.2     
  44 O44           -1.0521    -7.4177    -3.0186 O.2     
  45 Cl45           7.2257    -6.2767    -4.3477 Cl      
  46 C46           12.2029    -9.9072    -0.8159 C.ar    
  47 C47           13.1141    -9.2856     0.0168 C.ar    
  48 N48           13.7921    -8.2313    -0.3926 N.ar    
  49 C49           13.6316    -7.7303    -1.6019 C.ar    
  50 C50           12.7422    -8.3024    -2.4917 C.ar    
  51 H51           -1.6077    -0.1912    -0.3956 H       
  52 H52           -1.3957    -2.4286    -1.3982 H       
  53 H53            2.1179    -3.1378     0.9331 H       
  54 H54            1.9069    -0.8977     1.9301 H       
  55 H55           -0.2993    -4.7022    -1.0983 H       
  56 H56            4.9007    -3.8254    -0.8993 H       
  57 H57            6.3520    -5.7323    -1.6091 H       
  58 H58            2.1104    -9.6665    -2.2588 H       
  59 H59            1.1233    -8.2772    -1.7453 H       
  60 H60            1.2168    -7.3600    -4.0472 H       
  61 H61            2.2039    -8.7493    -4.5607 H       
  62 H62           -2.0031     0.9124     0.9578 H       
  63 H63           -1.6273     2.1081     3.0825 H       
  64 H64           -0.5536     3.2648     2.2580 H       
  65 H65            9.6231    -7.8596    -4.4189 H       
  66 H66            8.6820   -10.7560    -1.4248 H       
  67 H67            0.3140   -11.2249    -3.5676 H       
  68 H68           -0.5533   -10.8848    -5.0843 H       
  69 H69            1.2227   -10.7783    -5.0316 H       
  70 H70           -3.5101     2.8180     1.6422 H       
  71 H71           -2.8270     4.2102     2.5155 H       
  72 H72           -3.0266     2.5165    -0.7015 H       
  73 H73           -1.9884     3.6873    -1.5494 H       
  74 H74           -0.0455     2.9480    -0.2052 H       
  75 H75           -0.7695     1.5732    -1.0750 H       
  76 H76           -3.5507     5.8177     0.9027 H       
  77 H77           -3.2361     5.5453    -0.8279 H       
  78 H78           -4.3943     4.5092     0.0400 H       
  79 H79           -1.6815    -8.6650    -6.2960 H       
  80 H80           -2.6317    -7.3498    -5.5642 H       
  81 H81           -0.8943    -7.1242    -5.8784 H       
  82 H82           11.6501   -10.7699    -0.4745 H       
  83 H83           13.2725    -9.6676     1.0145 H       
  84 H84           14.2045    -6.8653    -1.9017 H       
  85 H85           12.6153    -7.8877    -3.4808 H       
@<TRIPOS>BOND
   1    1    2 1
   2    1   24 1
   3    2    3 ar
   4    2    7 ar
   5    3    4 ar
   6    3   51 1
   7    4    5 ar
   8    4   52 1
   9    5    6 ar
  10    5    8 1
  11    6    7 ar
  12    6   53 1
  13    7   54 1
  14    8    9 1
  15    8   55 1
  16    9   10 ar
  17    9   14 ar
  18   10   11 ar
  19   11   12 ar
  20   11   15 1
  21   12   13 ar
  22   12   18 1
  23   13   14 ar
  24   13   56 1
  25   15   16 am
  26   15   19 1
  27   16   17 1
  28   16   20 2
  29   17   18 2
  30   17   21 1
  31   18   57 1
  32   19   23 1
  33   19   58 1
  34   19   59 1
  35   21   22 ar
  36   21   27 ar
  37   22   30 ar
  38   23   26 1
  39   23   60 1
  40   23   61 1
  41   24   25 1
  42   24   40 1
  43   24   62 1
  44   25   37 1
  45   25   63 1
  46   25   64 1
  47   26   34 am
  48   26   35 1
  49   27   28 ar
  50   27   45 1
  51   28   29 ar
  52   28   65 1
  53   29   30 ar
  54   29   31 1
  55   30   66 1
  56   31   32 1
  57   31   33 2
  58   31   36 2
  59   32   46 ar
  60   32   50 ar
  61   34   42 1
  62   34   43 2
  63   34   44 2
  64   35   67 1
  65   35   68 1
  66   35   69 1
  67   37   38 1
  68   37   70 1
  69   37   71 1
  70   38   39 1
  71   38   41 1
  72   39   40 1
  73   39   72 1
  74   39   73 1
  75   40   74 1
  76   40   75 1
  77   41   76 1
  78   41   77 1
  79   41   78 1
  80   42   79 1
  81   42   80 1
  82   42   81 1
  83   46   47 ar
  84   46   82 1
  85   47   48 ar
  86   47   83 1
  87   48   49 ar
  88   49   50 ar
  89   49   84 1
  90   50   85 1

#	End of record

