#	Name: ASD01913903
#	Creating user name:	WinNT
#	Creation time:	15. 06. 2019 20:02

#	Modifying user name:	WinNT
#	Modification time:	15. 06. 2019 20:02

#	Program:	/corina/corina34_cracker 3.40 0067  02.08.2006

@<TRIPOS>MOLECULE
ASD01913903
  43   45    0    0    0
SMALL
NO_CHARGES


@<TRIPOS>ATOM
   1 C1            -0.0173     1.4278     0.0099 C.ar    
   2 C2             0.0021    -0.0041     0.0020 C.1     
   3 C3             0.0180    -1.1779    -0.0044 C.1     
   4 C4             0.0374    -2.6098    -0.0123 C.ar    
   5 C5            -1.1552    -3.3455    -0.0049 C.ar    
   6 C6             0.0738    -5.2913    -0.0280 C.ar    
   7 N7             1.2234    -4.6330    -0.0407 N.ar    
   8 C8             1.2495    -3.3128    -0.0336 C.ar    
   9 N9            -1.0933    -4.6646    -0.0130 N.ar    
  10 C10            1.1812     2.1463     0.0023 C.ar    
  11 C11            1.1547     3.5252     0.0095 C.ar    
  12 C12           -1.2350     2.1134     0.0194 C.ar    
  13 C13           -0.0549     4.1972     0.0242 C.ar    
  14 C14           -1.2458     3.4925     0.0264 C.ar    
  15 N15            0.0926    -6.6796    -0.0361 N.am    
  16 C16            1.2124    -7.4228    -0.0558 C.2     
  17 C17            0.8603    -8.8940    -0.0693 C.3     
  18 C18           -0.6317    -8.9231    -0.4745 C.3     
  19 C19           -1.1075    -7.5241    -0.0179 C.3     
  20 O20            2.3408    -6.9786    -0.0622 O.2     
  21 C21           -0.7850    -9.0930    -1.9873 C.3     
  22 C22           -1.3817   -10.0247     0.2769 C.3     
  23 O23            1.0369    -9.4625     1.2297 O.3     
  24 C24            2.3356   -10.0165     1.4501 C.3     
  25 H25           -2.1103    -2.8415     0.0077 H       
  26 H26            2.1905    -2.7829    -0.0443 H       
  27 H27            2.1259     1.6231    -0.0088 H       
  28 H28            2.0801     4.0818     0.0040 H       
  29 H29           -2.1652     1.5647     0.0208 H       
  30 H30           -0.0696     5.2771     0.0301 H       
  31 H31           -2.1861     4.0237     0.0375 H       
  32 H32            1.4656    -9.4244    -0.8044 H       
  33 H33           -1.5238    -7.5770     0.9881 H       
  34 H34           -1.8495    -7.1324    -0.7138 H       
  35 H35           -0.3202   -10.0291    -2.2967 H       
  36 H36           -1.8438    -9.1103    -2.2455 H       
  37 H37           -0.3002    -8.2606    -2.4974 H       
  38 H38           -1.3141    -9.8437     1.3496 H       
  39 H39           -2.4287   -10.0235    -0.0265 H       
  40 H40           -0.9368   -10.9919     0.0429 H       
  41 H41            2.5207   -10.8086     0.7245 H       
  42 H42            3.0878    -9.2359     1.3356 H       
  43 H43            2.3891   -10.4275     2.4582 H       
@<TRIPOS>BOND
   1    1    2 1
   2    1   10 ar
   3    1   12 ar
   4    2    3 3
   5    3    4 1
   6    4    5 ar
   7    4    8 ar
   8    5    9 ar
   9    5   25 1
  10    6    7 ar
  11    6   15 1
  12    6    9 ar
  13    7    8 ar
  14    8   26 1
  15   10   11 ar
  16   10   27 1
  17   11   13 ar
  18   11   28 1
  19   12   14 ar
  20   12   29 1
  21   13   14 ar
  22   13   30 1
  23   14   31 1
  24   15   16 am
  25   15   19 1
  26   16   17 1
  27   16   20 2
  28   17   18 1
  29   17   23 1
  30   17   32 1
  31   18   19 1
  32   18   21 1
  33   18   22 1
  34   19   33 1
  35   19   34 1
  36   21   35 1
  37   21   36 1
  38   21   37 1
  39   22   38 1
  40   22   39 1
  41   22   40 1
  42   23   24 1
  43   24   41 1
  44   24   42 1
  45   24   43 1

#	End of record

