#	Name: ASD05143305
#	Creating user name:	WinNT
#	Creation time:	15. 06. 2019 20:57

#	Modifying user name:	WinNT
#	Modification time:	15. 06. 2019 20:57

#	Program:	/corina/corina34_cracker 3.40 0067  02.08.2006

@<TRIPOS>MOLECULE
ASD05143305
  49   51    0    0    0
SMALL
NO_CHARGES


@<TRIPOS>ATOM
   1 C1            -0.2473     1.4566     0.0981 C.2     
   2 N2            -0.0152     0.2024    -0.2352 N.2     
   3 S3            -1.5394    -0.5455    -0.3029 S.3     
   4 C4            -2.4148     0.8754     0.1230 C.2     
   5 N5            -1.5037     1.8084     0.2909 N.2     
   6 N6            -3.7843     1.0058     0.2638 N.pl3   
   7 C7            -4.3265     2.1994     0.7486 C.ar    
   8 C8            -5.6252     2.5610     0.4131 C.ar    
   9 C9            -6.1579     3.7407     0.8942 C.ar    
  10 C10           -5.4002     4.5619     1.7090 C.ar    
  11 C11           -4.1070     4.2050     2.0449 C.ar    
  12 C12           -3.5699     3.0241     1.5716 C.ar    
  13 C13            1.2043    -0.3784    -0.4777 C.ar    
  14 C14            1.6075    -1.4931     0.2594 C.ar    
  15 C15            2.0425     0.1403    -1.4661 C.ar    
  16 C16            3.2668    -0.4465    -1.7069 C.ar    
  17 C17            3.6663    -1.5518    -0.9680 C.ar    
  18 C18            2.8335    -2.0741     0.0123 C.ar    
  19 C19            0.8584     2.4294     0.2558 C.ar    
  20 C20            0.6579     3.7730    -0.0613 C.ar    
  21 C21            2.1009     2.0052     0.7272 C.ar    
  22 C22            3.1279     2.9135     0.8728 C.ar    
  23 C23            2.9264     4.2492     0.5512 C.ar    
  24 C24            1.6893     4.6759     0.0867 C.ar    
  25 O25            4.8740    -2.1274    -1.2085 O.3     
  26 C26            5.2223    -3.2614    -0.4118 C.3     
  27 O27            3.9404     5.1417     0.6967 O.3     
  28 C28            3.6644     6.4997     0.3475 C.3     
  29 H29           -4.3687     0.2690     0.0261 H       
  30 H30           -6.2174     1.9203    -0.2235 H       
  31 H31           -7.1674     4.0226     0.6335 H       
  32 H32           -5.8191     5.4842     2.0836 H       
  33 H33           -3.5179     4.8486     2.6815 H       
  34 H34           -2.5599     2.7459     1.8343 H       
  35 H35            0.9604    -1.8998     1.0225 H       
  36 H36            1.7323     0.9999    -2.0417 H       
  37 H37            3.9157    -0.0460    -2.4717 H       
  38 H38            3.1481    -2.9338     0.5853 H       
  39 H39           -0.3040     4.1056    -0.4226 H       
  40 H40            2.2581     0.9666     0.9782 H       
  41 H41            4.0901     2.5858     1.2377 H       
  42 H42            1.5361     5.7154    -0.1628 H       
  43 H43            5.2384    -2.9755     0.6399 H       
  44 H44            4.4863    -4.0512    -0.5624 H       
  45 H45            6.2080    -3.6226    -0.7052 H       
  46 H46            3.3753     6.5533    -0.7021 H       
  47 H47            2.8514     6.8764     0.9680 H       
  48 H48            4.5561     7.1050     0.5101 H       
  49 Br49          11.2080    12.1050     7.6815 Br      
@<TRIPOS>BOND
   1    1    2 2
   2    1   19 1
   3    1    5 1
   4    2    3 1
   5    2   13 1
   6    3    4 1
   7    4    5 2
   8    4    6 1
   9    6    7 1
  10    6   29 1
  11    7    8 ar
  12    7   12 ar
  13    8    9 ar
  14    8   30 1
  15    9   10 ar
  16    9   31 1
  17   10   11 ar
  18   10   32 1
  19   11   12 ar
  20   11   33 1
  21   12   34 1
  22   13   14 ar
  23   13   15 ar
  24   14   18 ar
  25   14   35 1
  26   15   16 ar
  27   15   36 1
  28   16   17 ar
  29   16   37 1
  30   17   18 ar
  31   17   25 1
  32   18   38 1
  33   19   20 ar
  34   19   21 ar
  35   20   24 ar
  36   20   39 1
  37   21   22 ar
  38   21   40 1
  39   22   23 ar
  40   22   41 1
  41   23   24 ar
  42   23   27 1
  43   24   42 1
  44   25   26 1
  45   26   43 1
  46   26   44 1
  47   26   45 1
  48   27   28 1
  49   28   46 1
  50   28   47 1
  51   28   48 1

#	End of record

