#	Name: ASD01813106
#	Creating user name:	WinNT
#	Creation time:	15. 06. 2019 19:29

#	Modifying user name:	WinNT
#	Modification time:	15. 06. 2019 19:29

#	Program:	/corina/corina34_cracker 3.40 0067  02.08.2006

@<TRIPOS>MOLECULE
ASD01813106
  41   44    0    0    0
SMALL
NO_CHARGES


@<TRIPOS>ATOM
   1 C1             0.0929     2.0304    -1.4413 C.3     
   2 N2             0.1416     0.5858    -1.2029 N.pl3   
   3 C3             0.0886    -0.3737    -2.1487 C.2     
   4 C4             0.1635    -1.5806    -1.5168 C.2     
   5 C5             0.2656    -1.3309    -0.1345 C.2     
   6 N6             0.2572    -0.0367     0.0459 N.2     
   7 C7             0.1415    -2.9147    -2.1681 C.ar    
   8 C8             0.0418    -3.0141    -3.5539 C.ar    
   9 C9             0.0221    -4.2564    -4.1558 C.ar    
  10 C10            0.1006    -5.4022    -3.3860 C.ar    
  11 C11            0.0786    -6.7554    -4.0489 C.3     
  12 N12            1.4448    -7.2760    -4.1417 N.am    
  13 C13            1.8995    -8.1161    -3.1954 C.2     
  14 O14            1.1635    -8.4292    -2.2756 O.2     
  15 C15            3.2073    -8.6448    -3.2405 C.2     
  16 C16            4.0443    -8.3111    -4.2538 C.2     
  17 C17            3.5592    -7.3966    -5.2892 C.ar    
  18 C18            4.3756    -7.0167    -6.3592 C.ar    
  19 C19            3.8925    -6.1623    -7.3097 C.ar    
  20 C20            2.5985    -5.6679    -7.2229 C.ar    
  21 C21            1.7763    -6.0284    -6.1769 C.ar    
  22 C22            2.2440    -6.9020    -5.2010 C.ar    
  23 C23            0.2000    -5.3102    -2.0070 C.ar    
  24 F24            0.2765    -6.4331    -1.2596 F       
  25 C25            0.2263    -4.0707    -1.3957 C.ar    
  26 H26            1.1048     2.4093    -1.5846 H       
  27 H27           -0.5002     2.2316    -2.3335 H       
  28 H28           -0.3623     2.5251    -0.5833 H       
  29 H29            0.0025    -0.2155    -3.2135 H       
  30 H30            0.3419    -2.0787     0.6410 H       
  31 H31           -0.0204    -2.1203    -4.1569 H       
  32 H32           -0.0552    -4.3334    -5.2303 H       
  33 H33           -0.5315    -7.4392    -3.4588 H       
  34 H34           -0.3437    -6.6630    -5.0495 H       
  35 H35            3.5428    -9.3174    -2.4650 H       
  36 H36            5.0467    -8.7107    -4.2960 H       
  37 H37            5.3838    -7.3968    -6.4337 H       
  38 H38            4.5233    -5.8688    -8.1357 H       
  39 H39            2.2322    -4.9933    -7.9826 H       
  40 H40            0.7712    -5.6376    -6.1179 H       
  41 H41            0.3082    -3.9988    -0.3212 H       
@<TRIPOS>BOND
   1    1    2 1
   2    1   26 1
   3    1   27 1
   4    1   28 1
   5    2    6 1
   6    2    3 1
   7    3    4 2
   8    3   29 1
   9    4    5 1
  10    4    7 1
  11    5    6 2
  12    5   30 1
  13    7   25 ar
  14    7    8 ar
  15    8    9 ar
  16    8   31 1
  17    9   10 ar
  18    9   32 1
  19   10   11 1
  20   10   23 ar
  21   11   12 1
  22   11   33 1
  23   11   34 1
  24   12   22 1
  25   12   13 am
  26   13   14 2
  27   13   15 1
  28   15   16 2
  29   15   35 1
  30   16   17 1
  31   16   36 1
  32   17   22 ar
  33   17   18 ar
  34   18   19 ar
  35   18   37 1
  36   19   20 ar
  37   19   38 1
  38   20   21 ar
  39   20   39 1
  40   21   22 ar
  41   21   40 1
  42   23   24 1
  43   23   25 ar
  44   25   41 1

#	End of record

