#	Name: ASD08070632
#	Creating user name:	WinNT
#	Creation time:	15. 06. 2019 21:15

#	Modifying user name:	WinNT
#	Modification time:	15. 06. 2019 21:15

#	Program:	/corina/corina34_cracker 3.40 0067  02.08.2006

@<TRIPOS>MOLECULE
ASD08070632
  42   43    0    0    0
SMALL
NO_CHARGES


@<TRIPOS>ATOM
   1 O1            -0.0161     1.3372     0.0094 O.3     
   2 C2             0.0021    -0.0041     0.0020 C.2     
   3 N3             1.2272    -0.4391    -0.0120 N.2     
   4 C4             2.0712     0.6254    -0.0144 C.ar    
   5 C5             1.2626     1.7751    -0.0005 C.ar    
   6 C6             3.4633     0.7527    -0.0270 C.ar    
   7 C7             4.0355     1.9901    -0.0254 C.ar    
   8 C8             3.2369     3.1405    -0.0111 C.ar    
   9 C9             1.8467     3.0281     0.0007 C.ar    
  10 C10            3.8679     4.4751    -0.0085 C.2     
  11 O11            3.1758     5.4747     0.0039 O.2     
  12 N12            5.2110     4.5855    -0.0198 N.am    
  13 C13            5.8372     5.9099    -0.0173 C.3     
  14 C14            5.9545     6.4158     1.4219 C.3     
  15 C15            4.5553     6.6285     2.0033 C.3     
  16 C16            4.6725     7.1343     3.4425 C.3     
  17 C17            7.2316     5.8160    -0.6400 C.3     
  18 C18            7.1063     5.4304    -2.1153 C.3     
  19 C19            8.5007     5.3364    -2.7381 C.3     
  20 C20           -1.2230    -0.8817     0.0098 C.3     
  21 H21            4.0858    -0.1297    -0.0377 H       
  22 H22            5.1113     2.0838    -0.0348 H       
  23 H23            1.2302     3.9148     0.0109 H       
  24 H24            5.7631     3.7880    -0.0297 H       
  25 H25            5.2263     6.6018    -0.5970 H       
  26 H26            6.4898     5.6807     2.0230 H       
  27 H27            6.4994     7.3597     1.4320 H       
  28 H28            4.0200     7.3635     1.4023 H       
  29 H29            4.0103     5.6845     1.9933 H       
  30 H30            5.2079     6.3993     4.0435 H       
  31 H31            5.2175     8.0783     3.4526 H       
  32 H32            3.6758     7.2859     3.8567 H       
  33 H33            7.7320     6.7809    -0.5579 H       
  34 H34            7.8139     5.0589    -0.1148 H       
  35 H35            6.6060     4.4655    -2.1974 H       
  36 H36            6.5241     6.1874    -2.6406 H       
  37 H37            9.0011     6.3013    -2.6559 H       
  38 H38            9.0830     4.5794    -2.2128 H       
  39 H39            8.4115     5.0617    -3.7891 H       
  40 H40           -1.5288    -1.0877    -1.0159 H       
  41 H41           -0.9949    -1.8195     0.5163 H       
  42 H42           -2.0314    -0.3725     0.5346 H       
@<TRIPOS>BOND
   1    1    2 1
   2    1    5 1
   3    2    3 2
   4    2   20 1
   5    3    4 1
   6    4    5 ar
   7    4    6 ar
   8    5    9 ar
   9    6    7 ar
  10    6   21 1
  11    7    8 ar
  12    7   22 1
  13    8    9 ar
  14    8   10 1
  15    9   23 1
  16   10   11 2
  17   10   12 am
  18   12   13 1
  19   12   24 1
  20   13   14 1
  21   13   17 1
  22   13   25 1
  23   14   15 1
  24   14   26 1
  25   14   27 1
  26   15   16 1
  27   15   28 1
  28   15   29 1
  29   16   30 1
  30   16   31 1
  31   16   32 1
  32   17   18 1
  33   17   33 1
  34   17   34 1
  35   18   19 1
  36   18   35 1
  37   18   36 1
  38   19   37 1
  39   19   38 1
  40   19   39 1
  41   20   40 1
  42   20   41 1
  43   20   42 1

#	End of record

