#	Name: ASD01900957
#	Creating user name:	WinNT
#	Creation time:	15. 06. 2019 19:52

#	Modifying user name:	WinNT
#	Modification time:	15. 06. 2019 19:52

#	Program:	/corina/corina34_cracker 3.40 0067  02.08.2006

@<TRIPOS>MOLECULE
ASD01900957
  54   58    0    0    0
SMALL
NO_CHARGES


@<TRIPOS>ATOM
   1 C1             0.1371     0.8571    -0.2640 C.ar    
   2 C2             0.3183    -0.5086    -0.3026 C.ar    
   3 C3             1.5942    -1.0469    -0.4121 C.ar    
   4 C4             2.7026    -0.2196    -0.4754 C.ar    
   5 C5             2.5361     1.1530    -0.4314 C.ar    
   6 C6             1.2439     1.7009    -0.3358 C.ar    
   7 N7             3.6199     2.0232    -0.4726 N.pl3   
   8 C8             3.4299     3.3634    -1.0389 C.3     
   9 N9             2.1728     3.9416    -0.5628 N.am    
  10 C10            1.1014     3.1660    -0.3041 C.2     
  11 C11            4.5958     4.2614    -0.6145 C.3     
  12 C12            3.4014     3.2679    -2.5669 C.3     
  13 C13            3.2722     4.6737    -3.1578 C.3     
  14 N14            4.4077     5.4963    -2.7218 N.3     
  15 C15            4.4310     5.6391    -1.2605 C.3     
  16 C16            2.0816     5.3246    -0.3721 C.ar    
  17 C17            1.4331     6.1152    -1.3120 C.ar    
  18 C18            1.3446     7.4801    -1.1213 C.ar    
  19 C19            1.9012     8.0603     0.0050 C.ar    
  20 C20            2.5483     7.2749     0.9429 C.ar    
  21 C21            2.6344     5.9087     0.7602 C.ar    
  22 C22            4.3891     6.8100    -3.3789 C.3     
  23 C23            5.5038     7.6623    -2.8295 C.ar    
  24 O24            0.0255     3.6720    -0.0476 O.2     
  25 Cl25           1.7881     9.7763     0.2416 Cl      
  26 F26            1.7548    -2.3876    -0.4565 F       
  27 C27            6.7817     7.5435    -3.3437 C.ar    
  28 C28            7.8058     8.3238    -2.8411 C.ar    
  29 C29            7.5526     9.2257    -1.8222 C.ar    
  30 C30            6.2710     9.3452    -1.3068 C.ar    
  31 C31            5.2465     8.5660    -1.8158 C.ar    
  32 F32            8.5532     9.9885    -1.3301 F       
  33 F33            6.0215    10.2245    -0.3119 F       
  34 H34           -0.8571     1.2710    -0.1831 H       
  35 H35           -0.5376    -1.1649    -0.2471 H       
  36 H36            3.6923    -0.6438    -0.5584 H       
  37 H37            4.4862     1.7491    -0.1332 H       
  38 H38            4.5987     4.3659     0.4704 H       
  39 H39            5.5357     3.8163    -0.9409 H       
  40 H40            4.3244     2.8080    -2.9201 H       
  41 H41            2.5500     2.6626    -2.8780 H       
  42 H42            3.2659     4.6110    -4.2460 H       
  43 H43            2.3423     5.1275    -2.8151 H       
  44 H44            3.4964     6.0883    -0.9245 H       
  45 H45            5.2654     6.2780    -0.9713 H       
  46 H46            0.9988     5.6630    -2.1913 H       
  47 H47            0.8407     8.0954    -1.8521 H       
  48 H48            2.9825     7.7303     1.8207 H       
  49 H49            3.1353     5.2956     1.4948 H       
  50 H50            4.5256     6.6811    -4.4526 H       
  51 H51            3.4324     7.2971    -3.1902 H       
  52 H52            6.9799     6.8399    -4.1388 H       
  53 H53            8.8037     8.2295    -3.2432 H       
  54 H54            4.2470     8.6611    -1.4180 H       
@<TRIPOS>BOND
   1    1    2 ar
   2    1    6 ar
   3    1   34 1
   4    2    3 ar
   5    2   35 1
   6    3    4 ar
   7    3   26 1
   8    4    5 ar
   9    4   36 1
  10    5    7 1
  11    5    6 ar
  12    6   10 1
  13    7    8 1
  14    7   37 1
  15    8    9 1
  16    8   12 1
  17    8   11 1
  18    9   10 am
  19    9   16 1
  20   10   24 2
  21   11   15 1
  22   11   38 1
  23   11   39 1
  24   12   13 1
  25   12   40 1
  26   12   41 1
  27   13   14 1
  28   13   42 1
  29   13   43 1
  30   14   15 1
  31   14   22 1
  32   15   44 1
  33   15   45 1
  34   16   17 ar
  35   16   21 ar
  36   17   18 ar
  37   17   46 1
  38   18   19 ar
  39   18   47 1
  40   19   20 ar
  41   19   25 1
  42   20   21 ar
  43   20   48 1
  44   21   49 1
  45   22   23 1
  46   22   50 1
  47   22   51 1
  48   23   27 ar
  49   23   31 ar
  50   27   28 ar
  51   27   52 1
  52   28   29 ar
  53   28   53 1
  54   29   30 ar
  55   29   32 1
  56   30   31 ar
  57   30   33 1
  58   31   54 1

#	End of record

