#	Name: ASD00111008
#	Creating user name:	WinNT
#	Creation time:	15. 06. 2019 18:30

#	Modifying user name:	WinNT
#	Modification time:	15. 06. 2019 18:30

#	Program:	/corina/corina34_cracker 3.40 0067  02.08.2006

@<TRIPOS>MOLECULE
ASD00111008
  37   38    0    0    0
SMALL
NO_CHARGES


@<TRIPOS>ATOM
   1 C1            -0.0168     1.3835     0.0180 C.ar    
   2 C2             0.0020    -0.0041     0.0012 C.ar    
   3 C3            -1.1912    -0.7134    -0.0018 C.ar    
   4 C4            -2.3917    -0.0293     0.0120 C.ar    
   5 C5            -2.4081     1.3445     0.0295 C.ar    
   6 C6            -1.2240     2.0586     0.0381 C.ar    
   7 C7            -3.6960    -0.7995     0.0073 C.3     
   8 C8            -4.3642    -0.6222     1.3744 C.3     
   9 N9            -5.1416     0.6056     1.4150 N.3     
  10 C10           -4.3937     1.8522     1.4070 C.3     
  11 C11           -3.7311     2.0822     0.0455 C.3     
  12 Br12           1.6078     2.3512     0.0214 Br      
  13 O13            1.1879    -0.6681    -0.0128 O.3     
  14 C14           -3.4899     3.5784    -0.1644 C.3     
  15 C15            1.1353    -2.0924     0.0905 C.3     
  16 C16            0.9165    -2.6967    -1.2979 C.3     
  17 C17            2.4528    -2.6107     0.6706 C.3     
  18 H18           -1.1814    -1.7933    -0.0152 H       
  19 H19           -1.2417     3.1384     0.0513 H       
  20 H20           -4.3492    -0.4111    -0.7741 H       
  21 H21           -3.4978    -1.8565    -0.1705 H       
  22 H22           -5.0226    -1.4699     1.5642 H       
  23 H23           -3.5960    -0.5858     2.1469 H       
  24 H24           -5.8537     0.6065     0.7001 H       
  25 H25           -5.0720     2.6785     1.6198 H       
  26 H26           -3.6242     1.8134     2.1780 H       
  27 H27           -4.3751     1.6987    -0.7460 H       
  28 H28           -2.8374     3.9553     0.6232 H       
  29 H29           -3.0184     3.7379    -1.1341 H       
  30 H30           -4.4420     4.1080    -0.1319 H       
  31 H31            0.3123    -2.3790     0.7453 H       
  32 H32            0.8764    -3.7831    -1.2191 H       
  33 H33           -0.0221    -2.3274    -1.7111 H       
  34 H34            1.7395    -2.4101    -1.9527 H       
  35 H35            2.6086    -2.1801     1.6597 H       
  36 H36            2.4126    -3.6971     0.7494 H       
  37 H37            3.2757    -2.3241     0.0158 H       
@<TRIPOS>BOND
   1    1    2 ar
   2    1   12 1
   3    1    6 ar
   4    2    3 ar
   5    2   13 1
   6    3    4 ar
   7    3   18 1
   8    4    5 ar
   9    4    7 1
  10    5    6 ar
  11    5   11 1
  12    6   19 1
  13    7    8 1
  14    7   20 1
  15    7   21 1
  16    8    9 1
  17    8   22 1
  18    8   23 1
  19    9   10 1
  20    9   24 1
  21   10   11 1
  22   10   25 1
  23   10   26 1
  24   11   14 1
  25   11   27 1
  26   13   15 1
  27   14   28 1
  28   14   29 1
  29   14   30 1
  30   15   16 1
  31   15   17 1
  32   15   31 1
  33   16   32 1
  34   16   33 1
  35   16   34 1
  36   17   35 1
  37   17   36 1
  38   17   37 1

#	End of record

