#	Name: ASD00061056
#	Creating user name:	WinNT
#	Creation time:	15. 06. 2019 18:29

#	Modifying user name:	WinNT
#	Modification time:	15. 06. 2019 18:29

#	Program:	/corina/corina34_cracker 3.40 0067  02.08.2006

@<TRIPOS>MOLECULE
ASD00061056
  43   45    0    0    0
SMALL
NO_CHARGES


@<TRIPOS>ATOM
   1 C1            -0.0184     1.5028     0.0103 C.ar    
   2 C2             0.0021    -0.0041     0.0020 C.3     
   3 C3            -0.7002    -0.5305     1.2552 C.3     
   4 C4            -0.5729    -2.0312     1.3094 C.2     
   5 O5             0.0211    -2.6215     0.4321 O.2     
   6 C6            -1.1685    -2.7793     2.4253 C.ar    
   7 C7            -1.8578    -2.0885     3.4424 C.ar    
   8 C8            -2.4155    -2.7582     4.4810 C.ar    
   9 C9            -2.3103    -4.1608     4.5546 C.ar    
  10 C10           -1.6192    -4.8690     3.5376 C.ar    
  11 C11           -1.0533    -4.1628     2.4677 C.ar    
  12 C12           -0.7241    -0.5171    -1.2431 C.3     
  13 C13            1.1693     2.2102     0.0028 C.ar    
  14 C14            1.1505     3.5924     0.0104 C.ar    
  15 C15           -0.0559     4.2672     0.0251 C.ar    
  16 C16           -1.2435     3.5598     0.0318 C.ar    
  17 C17           -1.2248     2.1776     0.0197 C.ar    
  18 C18           -1.5159    -6.2707     3.6156 C.ar    
  19 C19           -2.0767    -6.9340     4.6609 C.ar    
  20 C20           -2.7600    -6.2424     5.6670 C.ar    
  21 C21           -2.8798    -4.8712     5.6217 C.ar    
  22 O22           -3.3114    -6.9309     6.6995 O.3     
  23 C23            0.0370    -0.1013    -2.4756 C.2     
  24 O24            1.0557     0.5396    -2.3690 O.2     
  25 O25           -0.4168    -0.4430    -3.6917 O.3     
  26 H26            1.0345    -0.3534    -0.0097 H       
  27 H27           -0.2382    -0.0945     2.1409 H       
  28 H28           -1.7547    -0.2563     1.2231 H       
  29 H29           -1.9424    -1.0129     3.3939 H       
  30 H30           -2.9406    -2.2154     5.2531 H       
  31 H31           -0.5284    -4.6896     1.6845 H       
  32 H32           -0.7871    -1.6046    -1.2047 H       
  33 H33           -1.7288    -0.0959    -1.2772 H       
  34 H34            2.1118     1.6830    -0.0087 H       
  35 H35            2.0784     4.1450     0.0052 H       
  36 H36           -0.0705     5.3471     0.0318 H       
  37 H37           -2.1860     4.0870     0.0436 H       
  38 H38           -2.1526     1.6249     0.0249 H       
  39 H39           -0.9921    -6.8182     2.8460 H       
  40 H40           -1.9941    -8.0094     4.7154 H       
  41 H41           -3.4091    -4.3460     6.4030 H       
  42 H42           -2.7186    -7.0497     7.4542 H       
  43 H43            0.1054    -0.1536    -4.4524 H       
@<TRIPOS>BOND
   1    1    2 1
   2    1   13 ar
   3    1   17 ar
   4    2    3 1
   5    2   12 1
   6    2   26 1
   7    3    4 1
   8    3   27 1
   9    3   28 1
  10    4    5 2
  11    4    6 1
  12    6    7 ar
  13    6   11 ar
  14    7    8 ar
  15    7   29 1
  16    8    9 ar
  17    8   30 1
  18    9   10 ar
  19    9   21 ar
  20   10   11 ar
  21   10   18 ar
  22   11   31 1
  23   12   23 1
  24   12   32 1
  25   12   33 1
  26   13   14 ar
  27   13   34 1
  28   14   15 ar
  29   14   35 1
  30   15   16 ar
  31   15   36 1
  32   16   17 ar
  33   16   37 1
  34   17   38 1
  35   18   19 ar
  36   18   39 1
  37   19   20 ar
  38   19   40 1
  39   20   21 ar
  40   20   22 1
  41   21   41 1
  42   22   42 1
  43   23   24 2
  44   23   25 1
  45   25   43 1

#	End of record

