#	Name: ASD01908140
#	Creating user name:	WinNT
#	Creation time:	15. 06. 2019 19:54

#	Modifying user name:	WinNT
#	Modification time:	15. 06. 2019 19:54

#	Program:	/corina/corina34_cracker 3.40 0067  02.08.2006

@<TRIPOS>MOLECULE
ASD01908140
  34   35    0    0    0
SMALL
NO_CHARGES


@<TRIPOS>ATOM
   1 C1            -0.0184     1.5028     0.0103 C.2     
   2 C2             0.0021    -0.0041     0.0020 C.3     
   3 C3             1.4513    -0.4944    -0.0145 C.3     
   4 O4             1.0239     2.1236     0.0037 O.2     
   5 N5            -2.7936     3.8278     0.0375 N.pl3   
   6 N6            -3.4656     2.6006     0.0339 N.2     
   7 C7            -2.5885     1.6362     0.0237 C.2     
   8 C8            -1.2984     2.2188     0.0203 C.2     
   9 C9            -1.4732     3.5922     0.0291 C.2     
  10 C10           -3.4263     5.1491     0.0430 C.3     
  11 C11           -4.3802     5.2541    -1.1189 C.ar    
  12 C12           -5.7011     4.8760    -0.9638 C.ar    
  13 C13           -6.5775     4.9713    -2.0274 C.ar    
  14 C14           -6.1313     5.4470    -3.2518 C.ar    
  15 C15           -4.8055     5.8257    -3.4049 C.ar    
  16 C16           -3.9344     5.7338    -2.3366 C.ar    
  17 O17           -6.9915     5.5413    -4.2998 O.3     
  18 C18           -6.4627     6.0395    -5.5303 C.3     
  19 F19            2.1153    -0.0253     1.1241 F       
  20 F20            1.4703    -1.8932    -0.0221 F       
  21 F21            2.0935    -0.0130    -1.1603 F       
  22 H22           -0.4983    -0.3791     0.8948 H       
  23 H23           -0.5153    -0.3696    -0.8850 H       
  24 H24           -2.8076     0.5787     0.0191 H       
  25 H25           -0.6906     4.3366     0.0293 H       
  26 H26           -3.9734     5.2860     0.9758 H       
  27 H27           -2.6600     5.9192    -0.0452 H       
  28 H28           -6.0479     4.5055    -0.0104 H       
  29 H29           -7.6091     4.6755    -1.9058 H       
  30 H30           -4.4558     6.1962    -4.3571 H       
  31 H31           -2.9033     6.0330    -2.4539 H       
  32 H32           -6.0752     7.0468    -5.3779 H       
  33 H33           -5.6575     5.3880    -5.8700 H       
  34 H34           -7.2520     6.0637    -6.2816 H       
@<TRIPOS>BOND
   1    1    2 1
   2    1    4 2
   3    1    8 1
   4    2    3 1
   5    2   22 1
   6    2   23 1
   7    3   19 1
   8    3   20 1
   9    3   21 1
  10    5    6 1
  11    5    9 1
  12    5   10 1
  13    6    7 2
  14    7    8 1
  15    7   24 1
  16    8    9 2
  17    9   25 1
  18   10   11 1
  19   10   26 1
  20   10   27 1
  21   11   12 ar
  22   11   16 ar
  23   12   13 ar
  24   12   28 1
  25   13   14 ar
  26   13   29 1
  27   14   15 ar
  28   14   17 1
  29   15   16 ar
  30   15   30 1
  31   16   31 1
  32   17   18 1
  33   18   32 1
  34   18   33 1
  35   18   34 1

#	End of record

