#	Name: ASD05143038
#	Creating user name:	WinNT
#	Creation time:	15. 06. 2019 20:57

#	Modifying user name:	WinNT
#	Modification time:	15. 06. 2019 20:57

#	Program:	/corina/corina34_cracker 3.40 0067  02.08.2006

@<TRIPOS>MOLECULE
ASD05143038
 145  148    0    0    0
SMALL
NO_CHARGES


@<TRIPOS>ATOM
   1 C1            -2.1045     5.4029     7.5366 C.2     
   2 C2            -1.6188     4.6656     8.7579 C.3     
   3 N3            -1.2168     5.9384     6.6753 N.am    
   4 O4            -3.2941     5.5100     7.3261 O.2     
   5 C5            -1.6890     6.6551     5.4881 C.3     
   6 C6            -2.5225     5.7104     4.6200 C.3     
   7 C7            -2.5366     7.8266     5.9125 C.2     
   8 C8            -1.6306     4.5874     4.0868 C.3     
   9 C9            -2.4642     3.6427     3.2187 C.3     
  10 N10           -1.6102     2.5674     2.7082 N.pl3   
  11 C11           -2.1429     1.5920     1.8988 C.2     
  12 N12           -1.3414     0.5829     1.4197 N.pl3   
  13 N13           -3.4077     1.6240     1.5857 N.2     
  14 O14           -3.0292     7.8488     7.0206 O.2     
  15 N15           -2.7474     8.8496     5.0607 N.am    
  16 C16           -3.5714     9.9884     5.4733 C.3     
  17 C17           -2.6685    11.1797     5.7994 C.3     
  18 C18           -1.5123    10.7162     6.6876 C.3     
  19 C19           -0.3713    10.2458     5.8230 C.2     
  20 O20           -0.5741     9.5147     4.8768 O.2     
  21 N21            0.8958    10.6585     6.1243 N.am    
  22 C22            1.9591    10.1463     5.2300 C.3     
  23 C23            2.1092    11.1057     4.0476 C.3     
  24 C24            2.7725    10.3741     2.8790 C.3     
  25 C25            3.7309    11.3250     2.1591 C.3     
  26 N26            3.6792    11.0464     0.7098 N.am    
  27 C27            5.1335    11.1073     2.6655 C.2     
  28 N28            5.5211    11.6569     3.8335 N.am    
  29 O29            5.9134    10.4375     2.0220 O.2     
  30 C30            2.8530    11.8338    -0.0316 C.2     
  31 O31            2.2091    12.7161     0.4956 O.2     
  32 C32            2.7487    11.5959    -1.5161 C.3     
  33 N33            1.5340    12.2781    -2.0184 N.am    
  34 C34            3.9844    12.1653    -2.2158 C.3     
  35 C35            0.4809    11.4582    -2.3106 C.2     
  36 O36            0.5725    10.2580    -2.1623 O.2     
  37 C37           -0.7970    12.0735    -2.8203 C.3     
  38 N38           -1.9237    11.1808    -2.4835 N.am    
  39 C39           -1.0083    13.4373    -2.1597 C.3     
  40 C40           -3.0283    11.7695    -1.9478 C.2     
  41 O41           -3.0578    12.9675    -1.7617 O.2     
  42 C42           -4.2140    10.9109    -1.5900 C.3     
  43 C43            3.9362    11.8184    -3.6816 C.2     
  44 C44            3.2378    12.5645    -4.7311 C.ar    
  45 C45            3.4756    11.8658    -5.9286 C.ar    
  46 N46            4.2608    10.7789    -5.6156 N.pl3   
  47 C47            4.5298    10.7703    -4.2740 C.2     
  48 C48            2.4610    13.7247    -4.7439 C.ar    
  49 C49            1.9351    14.1759    -5.9214 C.ar    
  50 C50            2.1665    13.4896    -7.1059 C.ar    
  51 C51            2.9306    12.3435    -7.1161 C.ar    
  52 N52           -4.7997    11.4135    -0.3263 N.am    
  53 C53           -3.7608     9.4613    -1.4049 C.3     
  54 C54           -4.9593     8.5926    -1.1219 C.ar    
  55 C55           -5.9883     8.5152    -2.0414 C.ar    
  56 C56           -7.0894     7.7175    -1.7823 C.ar    
  57 C57           -7.1586     6.9968    -0.5998 C.ar    
  58 C58           -6.1264     7.0765     0.3189 C.ar    
  59 C59           -5.0257     7.8696     0.0546 C.ar    
  60 C60           -4.5098    10.3611     4.3544 C.2     
  61 N61           -3.9930    10.8474     3.1926 N.am    
  62 O62           -5.7081    10.2294     4.4869 O.2     
  63 C63           -4.9608    11.1956     2.1332 C.3     
  64 C64           -5.1825    12.7094     2.1187 C.3     
  65 C65           -4.4062    10.7538     0.8035 C.2     
  66 C66           -5.8456    13.1402     3.4285 C.3     
  67 N67           -6.0585    14.5937     3.4146 N.3     
  68 O68           -3.6248     9.8286     0.7374 O.2     
  69 C69           -1.0183    13.2712    -0.6388 C.3     
  70 C70           -1.3764    14.6060     0.0177 C.3     
  71 N71           -1.3860    14.4470     1.4740 N.pl3   
  72 C72           -1.6832    15.5199     2.2807 C.2     
  73 N73           -1.6923    15.3706     3.6474 N.pl3   
  74 N74           -1.9565    16.6785     1.7498 N.2     
  75 F75           -8.2325     6.2179    -0.3445 F       
  76 F76           -8.0958     7.6416    -2.6803 F       
  77 H77           -1.0250     5.3387     9.3764 H       
  78 H78           -2.4745     4.3067     9.3298 H       
  79 H79           -1.0057     3.8183     8.4509 H       
  80 H80           -0.2653     5.8492     6.8416 H       
  81 H81           -0.8333     7.0141     4.9162 H       
  82 H82           -3.3272     5.2825     5.2179 H       
  83 H83           -2.9471     6.2653     3.7834 H       
  84 H84           -0.8260     5.0153     3.4889 H       
  85 H85           -1.2060     4.0324     4.9234 H       
  86 H86           -3.2688     3.2147     3.8166 H       
  87 H87           -2.8888     4.1976     2.3821 H       
  88 H88           -0.6689     2.5435     2.9412 H       
  89 H89           -0.4001     0.5590     1.6528 H       
  90 H90           -1.7173    -0.1053     0.8487 H       
  91 H91           -3.7835     0.9359     1.0146 H       
  92 H92           -2.3535     8.8318     4.1745 H       
  93 H93           -4.1491     9.7176     6.3571 H       
  94 H94           -2.2711    11.5981     4.8747 H       
  95 H95           -3.2466    11.9409     6.3234 H       
  96 H96           -1.1779    11.5455     7.3108 H       
  97 H97           -1.8483     9.8968     7.3230 H       
  98 H98            1.0857    11.2466     6.8720 H       
  99 H99            2.9005    10.0893     5.7764 H       
 100 H100           1.6847     9.1565     4.8652 H       
 101 H101           1.1256    11.4623     3.7419 H       
 102 H102           2.7273    11.9533     4.3436 H       
 103 H103           3.3279     9.5154     3.2562 H       
 104 H104           2.0068    10.0337     2.1819 H       
 105 H105           3.4297    12.3561     2.3439 H       
 106 H106           4.2065    10.3388     0.3072 H       
 107 H107           4.8974    12.1925     4.3481 H       
 108 H108           6.4239    11.5167     4.1594 H       
 109 H109           2.6747    10.5260    -1.7110 H       
 110 H110           1.4892    13.2403    -2.1324 H       
 111 H111           4.0009    13.2489    -2.0993 H       
 112 H112           4.8831    11.7383    -1.7708 H       
 113 H113          -0.7379    12.1948    -3.9019 H       
 114 H114          -1.8791    10.2238    -2.6357 H       
 115 H115          -0.1994    14.1092    -2.4465 H       
 116 H116          -1.9607    13.8553    -2.4859 H       
 117 H117          -4.9579    10.9652    -2.3848 H       
 118 H118           4.5790    10.1197    -6.2520 H       
 119 H119           5.1251    10.0261    -3.7658 H       
 120 H120           2.2762    14.2633    -3.8262 H       
 121 H121           1.3343    15.0733    -5.9308 H       
 122 H122           1.7437    13.8585    -8.0287 H       
 123 H123           3.1051    11.8170    -8.0428 H       
 124 H124          -5.4193    12.1594    -0.3022 H       
 125 H125          -3.2681     9.1158    -2.3137 H       
 126 H126          -3.0639     9.4025    -0.5689 H       
 127 H127          -5.9334     9.0773    -2.9619 H       
 128 H128          -6.1792     6.5157     1.2404 H       
 129 H129          -4.2207     7.9314     0.7719 H       
 130 H130          -3.0377    10.9597     3.0673 H       
 131 H131          -5.9075    10.6896     2.3226 H       
 132 H132          -4.2232    13.2161     2.0133 H       
 133 H133          -5.8273    12.9742     1.2807 H       
 134 H134          -6.8049    12.6335     3.5339 H       
 135 H135          -5.2008    12.8755     4.2665 H       
 136 H136          -6.6002    14.8721     2.6101 H       
 137 H137          -6.4957    14.9033     4.2697 H       
 138 H138          -1.7570    12.5196    -0.3602 H       
 139 H139          -0.0317    12.9535    -0.3015 H       
 140 H140          -0.6377    15.3576    -0.2609 H       
 141 H141          -2.3630    14.9238    -0.3196 H       
 142 H142          -1.1826    13.5848     1.8690 H       
 143 H143          -1.4889    14.5084     4.0425 H       
 144 H144          -1.9020    16.1275     4.2166 H       
 145 H145          -2.1663    17.4354     2.3190 H       
@<TRIPOS>BOND
   1    1    2 1
   2    1    3 am
   3    1    4 2
   4    2   77 1
   5    2   78 1
   6    2   79 1
   7    3    5 1
   8    3   80 1
   9    5    6 1
  10    5    7 1
  11    5   81 1
  12    6    8 1
  13    6   82 1
  14    6   83 1
  15    7   14 2
  16    7   15 am
  17    8    9 1
  18    8   84 1
  19    8   85 1
  20    9   10 1
  21    9   86 1
  22    9   87 1
  23   10   11 1
  24   10   88 1
  25   11   12 1
  26   11   13 2
  27   12   89 1
  28   12   90 1
  29   13   91 1
  30   15   16 1
  31   15   92 1
  32   16   17 1
  33   16   60 1
  34   16   93 1
  35   17   18 1
  36   17   94 1
  37   17   95 1
  38   18   19 1
  39   18   96 1
  40   18   97 1
  41   19   20 2
  42   19   21 am
  43   21   22 1
  44   21   98 1
  45   22   23 1
  46   22   99 1
  47   22  100 1
  48   23   24 1
  49   23  101 1
  50   23  102 1
  51   24   25 1
  52   24  103 1
  53   24  104 1
  54   25   26 1
  55   25   27 1
  56   25  105 1
  57   26   30 am
  58   26  106 1
  59   27   28 am
  60   27   29 2
  61   28  107 1
  62   28  108 1
  63   30   31 2
  64   30   32 1
  65   32   33 1
  66   32   34 1
  67   32  109 1
  68   33   35 am
  69   33  110 1
  70   34   43 1
  71   34  111 1
  72   34  112 1
  73   35   36 2
  74   35   37 1
  75   37   38 1
  76   37   39 1
  77   37  113 1
  78   38   40 am
  79   38  114 1
  80   39   69 1
  81   39  115 1
  82   39  116 1
  83   40   41 2
  84   40   42 1
  85   42   52 1
  86   42   53 1
  87   42  117 1
  88   43   44 1
  89   43   47 2
  90   44   45 ar
  91   44   48 ar
  92   45   46 1
  93   45   51 ar
  94   46   47 1
  95   46  118 1
  96   47  119 1
  97   48   49 ar
  98   48  120 1
  99   49   50 ar
 100   49  121 1
 101   50   51 ar
 102   50  122 1
 103   51  123 1
 104   52   65 am
 105   52  124 1
 106   53   54 1
 107   53  125 1
 108   53  126 1
 109   54   55 ar
 110   54   59 ar
 111   55   56 ar
 112   55  127 1
 113   56   57 ar
 114   56   76 1
 115   57   58 ar
 116   57   75 1
 117   58   59 ar
 118   58  128 1
 119   59  129 1
 120   60   61 am
 121   60   62 2
 122   61   63 1
 123   61  130 1
 124   63   64 1
 125   63   65 1
 126   63  131 1
 127   64   66 1
 128   64  132 1
 129   64  133 1
 130   65   68 2
 131   66   67 1
 132   66  134 1
 133   66  135 1
 134   67  136 1
 135   67  137 1
 136   69   70 1
 137   69  138 1
 138   69  139 1
 139   70   71 1
 140   70  140 1
 141   70  141 1
 142   71   72 1
 143   71  142 1
 144   72   73 1
 145   72   74 2
 146   73  143 1
 147   73  144 1
 148   74  145 1

#	End of record

