#	Name: ASD01816644
#	Creating user name:	WinNT
#	Creation time:	15. 06. 2019 19:35

#	Modifying user name:	WinNT
#	Modification time:	15. 06. 2019 19:35

#	Program:	/corina/corina34_cracker 3.40 0067  02.08.2006

@<TRIPOS>MOLECULE
ASD01816644
  43   47    0    0    0
SMALL
NO_CHARGES


@<TRIPOS>ATOM
   1 C1            -0.0167     1.3813     0.0096 C.ar    
   2 C2             0.0021    -0.0041     0.0020 C.ar    
   3 C3             1.1983    -0.6909    -0.0131 C.ar    
   4 C4             2.4015     0.0060    -0.0204 C.ar    
   5 C5             2.3790     1.4106    -0.0127 C.ar    
   6 C6             1.1663     2.0916     0.0022 C.ar    
   7 N7             3.6053    -0.6771    -0.0347 N.pl3   
   8 C8             4.7970    -0.0585    -0.0419 C.2     
   9 C9             4.9000     1.3103    -0.0359 C.2     
  10 C10            3.6670     2.1302    -0.0207 C.2     
  11 C11            5.9971     2.2730    -0.0409 C.2     
  12 N12            5.4245     3.4961    -0.0301 N.am    
  13 N13            4.0322     3.3798    -0.0180 N.2     
  14 O14            7.1912     2.0231    -0.0522 O.2     
  15 C15            6.1236     4.7036    -0.0300 C.ar    
  16 C16            3.5779    -2.1419    -0.0418 C.3     
  17 C17            3.5557    -2.6370    -1.4650 C.ar    
  18 C18            4.7428    -2.8862    -2.1281 C.ar    
  19 C19            4.7237    -3.3407    -3.4331 C.ar    
  20 C20            3.5150    -3.5464    -4.0763 C.ar    
  21 C21            2.3267    -3.2964    -3.4111 C.ar    
  22 C22            2.3482    -2.8470    -2.1044 C.ar    
  23 F23            3.4951    -3.9903    -5.3522 F       
  24 C24            5.4237     5.9044    -0.0182 C.ar    
  25 N25            7.4475     4.6949    -0.0358 N.ar    
  26 C26            8.1466     5.8132    -0.0360 C.ar    
  27 C27            7.5164     7.0425    -0.0301 C.ar    
  28 C28            6.1295     7.0950    -0.0183 C.ar    
  29 H29           -0.9602     1.9068     0.0170 H       
  30 H30           -0.9288    -0.5516     0.0083 H       
  31 H31            1.2004    -1.7709    -0.0189 H       
  32 H32            1.1506     3.1715     0.0084 H       
  33 H33            5.6983    -0.6535    -0.0522 H       
  34 H34            4.4655    -2.5243     0.4622 H       
  35 H35            2.6859    -2.4911     0.4783 H       
  36 H36            5.6855    -2.7254    -1.6263 H       
  37 H37            5.6512    -3.5351    -3.9511 H       
  38 H38            1.3832    -3.4565    -3.9119 H       
  39 H39            1.4214    -2.6519    -1.5854 H       
  40 H40            4.3437     5.9084    -0.0094 H       
  41 H41            9.2256     5.7673    -0.0404 H       
  42 H42            8.0969     7.9533    -0.0303 H       
  43 H43            5.6128     8.0433    -0.0135 H       
@<TRIPOS>BOND
   1    1    2 ar
   2    1    6 ar
   3    1   29 1
   4    2    3 ar
   5    2   30 1
   6    3    4 ar
   7    3   31 1
   8    4    5 ar
   9    4    7 1
  10    5    6 ar
  11    5   10 1
  12    6   32 1
  13    7    8 1
  14    7   16 1
  15    8    9 2
  16    8   33 1
  17    9   10 1
  18    9   11 1
  19   10   13 2
  20   11   12 am
  21   11   14 2
  22   12   13 1
  23   12   15 1
  24   15   24 ar
  25   15   25 ar
  26   16   17 1
  27   16   34 1
  28   16   35 1
  29   17   18 ar
  30   17   22 ar
  31   18   19 ar
  32   18   36 1
  33   19   20 ar
  34   19   37 1
  35   20   21 ar
  36   20   23 1
  37   21   22 ar
  38   21   38 1
  39   22   39 1
  40   24   28 ar
  41   24   40 1
  42   25   26 ar
  43   26   27 ar
  44   26   41 1
  45   27   28 ar
  46   27   42 1
  47   28   43 1

#	End of record

