#	Name: ASD09200014
#	Creating user name:	WinNT
#	Creation time:	15. 06. 2019 21:21

#	Modifying user name:	WinNT
#	Modification time:	15. 06. 2019 21:21

#	Program:	/corina/corina34_cracker 3.40 0067  02.08.2006

@<TRIPOS>MOLECULE
ASD09200014
  41   43    0    0    0
SMALL
NO_CHARGES


@<TRIPOS>ATOM
   1 C1            -0.0473     1.3495    -0.0072 C.ar    
   2 C2             0.0361    -0.0563     0.0373 C.ar    
   3 N3             1.2329    -0.6294     0.0374 N.ar    
   4 N4             2.3000     0.0889    -0.0026 N.ar    
   5 C5             2.2453     1.4140    -0.0449 C.ar    
   6 N6             1.0806     2.0510    -0.0476 N.ar    
   7 C7            -1.1937    -0.8821     0.0838 C.ar    
   8 C8            -2.1873    -0.6056     1.0222 C.ar    
   9 C9            -3.3305    -1.3774     1.0615 C.ar    
  10 C10           -3.4930    -2.4250     0.1725 C.ar    
  11 C11           -2.5112    -2.7056    -0.7617 C.ar    
  12 C12           -1.3643    -1.9353    -0.8147 C.ar    
  13 N13            3.4207     2.1432    -0.0869 N.3     
  14 C14            4.5910     1.2563    -0.0762 C.3     
  15 C15            5.8673     2.0948     0.0235 C.3     
  16 C16            5.9388     3.0506    -1.1706 C.3     
  17 C17            4.6854     3.9299    -1.1863 C.3     
  18 C18            3.4434     3.0382    -1.2509 C.3     
  19 N19           -1.2760     1.9852    -0.0145 N.pl3   
  20 Cl20          -2.7231    -4.0223    -1.8730 Cl      
  21 Cl21          -0.1363    -2.2825    -1.9917 Cl      
  22 C22            7.1816     3.9340    -1.0447 C.3     
  23 N23            6.0102     2.2753    -2.4163 N.3     
  24 H24           -2.0622     0.2112     1.7175 H       
  25 H25           -4.1001    -1.1634     1.7882 H       
  26 H26           -4.3893    -3.0264     0.2080 H       
  27 H27            4.5298     0.5847     0.7802 H       
  28 H28            4.6117     0.6712    -0.9956 H       
  29 H29            5.8536     2.6697     0.9495 H       
  30 H30            6.7364     1.4370     0.0157 H       
  31 H31            4.6531     4.5337    -0.2794 H       
  32 H32            4.7101     4.5833    -2.0584 H       
  33 H33            3.4695     2.4448    -2.1648 H       
  34 H34            2.5487     3.6609    -1.2478 H       
  35 H35           -2.0910     1.4644    -0.0890 H       
  36 H36           -1.3225     2.9515     0.0548 H       
  37 H37            8.0730     3.3068    -1.0280 H       
  38 H38            7.2317     4.6140    -1.8952 H       
  39 H39            7.1256     4.5105    -0.1214 H       
  40 H40            6.0582     2.8846    -3.2192 H       
  41 H41            6.7908     1.6362    -2.4003 H       
@<TRIPOS>BOND
   1    1    2 ar
   2    1    6 ar
   3    1   19 1
   4    2    3 ar
   5    2    7 1
   6    3    4 ar
   7    4    5 ar
   8    5    6 ar
   9    5   13 1
  10    7    8 ar
  11    7   12 ar
  12    8    9 ar
  13    8   24 1
  14    9   10 ar
  15    9   25 1
  16   10   11 ar
  17   10   26 1
  18   11   12 ar
  19   11   20 1
  20   12   21 1
  21   13   14 1
  22   13   18 1
  23   14   15 1
  24   14   27 1
  25   14   28 1
  26   15   16 1
  27   15   29 1
  28   15   30 1
  29   16   17 1
  30   16   22 1
  31   16   23 1
  32   17   18 1
  33   17   31 1
  34   17   32 1
  35   18   33 1
  36   18   34 1
  37   19   35 1
  38   19   36 1
  39   22   37 1
  40   22   38 1
  41   22   39 1
  42   23   40 1
  43   23   41 1

#	End of record

