#	Name: ASD03430182
#	Creating user name:	WinNT
#	Creation time:	15. 06. 2019 20:40

#	Modifying user name:	WinNT
#	Modification time:	15. 06. 2019 20:40

#	Program:	/corina/corina34_cracker 3.40 0067  02.08.2006

@<TRIPOS>MOLECULE
ASD03430182
  57   63    0    0    0
SMALL
NO_CHARGES


@<TRIPOS>ATOM
   1 C1            -0.0166     1.3734     0.0096 C.ar    
   2 C2             0.0021    -0.0041     0.0020 C.ar    
   3 C3             1.2047    -0.6792    -0.0032 C.ar    
   4 C4             2.4071     0.0229     0.0082 C.ar    
   5 C5             2.3795     1.4121     0.0050 C.ar    
   6 C6             1.1702     2.0967     0.0021 C.ar    
   7 O7             3.4737    -0.8263     0.0364 O.3     
   8 C8             1.5610    -2.1407    -0.0313 C.3     
   9 C9             3.0518    -2.1329    -0.3990 C.3     
  10 C10            0.4415    -3.8680     1.0077 C.ar    
  11 C11            1.3128    -2.8173     1.2838 C.ar    
  12 C12            0.7475    -2.9072    -1.0344 C.2     
  13 N13            0.1319    -3.8945    -0.3543 N.am    
  14 O14            0.6609    -2.6816    -2.2229 O.2     
  15 C15            1.7539    -2.5933     2.5690 C.ar    
  16 C16            1.3342    -3.4155     3.5996 C.ar    
  17 C17            0.4709    -4.4635     3.3363 C.ar    
  18 C18            0.0258    -4.6918     2.0510 C.ar    
  19 C19           -0.7588    -4.8806    -0.9713 C.3     
  20 C20           -1.1508     2.3790     0.0370 C.3     
  21 C21           -0.4153     3.6813     0.4327 C.3     
  22 O22            0.9282     3.4370    -0.0165 O.3     
  23 C23           -2.1741    -4.3636    -0.9472 C.ar    
  24 C24           -2.6507    -3.6114    -2.0063 C.ar    
  25 C25           -3.9454    -3.1355    -1.9908 C.ar    
  26 C26           -4.7752    -3.4143    -0.9034 C.ar    
  27 C27           -4.2880    -4.1738     0.1618 C.ar    
  28 C28           -2.9930    -4.6480     0.1312 C.ar    
  29 C29           -6.1633    -2.9073    -0.8797 C.2     
  30 N30           -6.9619    -3.1782     0.1716 N.am    
  31 O31           -6.5847    -2.2459    -1.8086 O.2     
  32 C32           -8.2664    -2.7018     0.1938 C.2     
  33 S33           -9.3851    -2.9687     1.4588 S.3     
  34 C34          -10.6046    -2.0399     0.5906 C.2     
  35 C35          -10.0661    -1.6196    -0.5558 C.2     
  36 N36           -8.8112    -1.9851    -0.7392 N.2     
  37 H37           -0.9262    -0.5560     0.0005 H       
  38 H38            3.3071     1.9654     0.0053 H       
  39 H39            3.1857    -2.2442    -1.4750 H       
  40 H40            3.5879    -2.9129     0.1416 H       
  41 H41            2.4281    -1.7745     2.7728 H       
  42 H42            1.6803    -3.2396     4.6074 H       
  43 H43            0.1443    -5.1061     4.1405 H       
  44 H44           -0.6483    -5.5120     1.8529 H       
  45 H45           -0.4520    -5.0517    -2.0032 H       
  46 H46           -0.7045    -5.8169    -0.4160 H       
  47 H47           -1.6102     2.4748    -0.9468 H       
  48 H48           -1.8936     2.1079     0.7873 H       
  49 H49           -0.8451     4.5397    -0.0837 H       
  50 H50           -0.4410     3.8264     1.5127 H       
  51 H51           -2.0075    -3.3961    -2.8467 H       
  52 H52           -4.3161    -2.5482    -2.8179 H       
  53 H53           -4.9249    -4.3931     1.0060 H       
  54 H54           -2.6148    -5.2357     0.9546 H       
  55 H55           -6.6257    -3.7060     0.9127 H       
  56 H56          -11.6122    -1.8452     0.9271 H       
  57 H57          -10.6120    -1.0255    -1.2738 H       
@<TRIPOS>BOND
   1    1    2 ar
   2    1    6 ar
   3    1   20 1
   4    2    3 ar
   5    2   37 1
   6    3    4 ar
   7    3    8 1
   8    4    5 ar
   9    4    7 1
  10    5    6 ar
  11    5   38 1
  12    6   22 1
  13    7    9 1
  14    8    9 1
  15    8   11 1
  16    8   12 1
  17    9   39 1
  18    9   40 1
  19   10   11 ar
  20   10   13 1
  21   10   18 ar
  22   11   15 ar
  23   12   13 am
  24   12   14 2
  25   13   19 1
  26   15   16 ar
  27   15   41 1
  28   16   17 ar
  29   16   42 1
  30   17   18 ar
  31   17   43 1
  32   18   44 1
  33   19   23 1
  34   19   45 1
  35   19   46 1
  36   20   21 1
  37   20   47 1
  38   20   48 1
  39   21   22 1
  40   21   49 1
  41   21   50 1
  42   23   24 ar
  43   23   28 ar
  44   24   25 ar
  45   24   51 1
  46   25   26 ar
  47   25   52 1
  48   26   27 ar
  49   26   29 1
  50   27   28 ar
  51   27   53 1
  52   28   54 1
  53   29   30 am
  54   29   31 2
  55   30   32 1
  56   30   55 1
  57   32   33 1
  58   32   36 2
  59   33   34 1
  60   34   35 2
  61   34   56 1
  62   35   36 1
  63   35   57 1

#	End of record

