#	Name: ASD01209080
#	Creating user name:	WinNT
#	Creation time:	15. 06. 2019 19:10

#	Modifying user name:	WinNT
#	Modification time:	15. 06. 2019 19:10

#	Program:	/corina/corina34_cracker 3.40 0067  02.08.2006

@<TRIPOS>MOLECULE
ASD01209080
  63   65    0    0    0
SMALL
NO_CHARGES


@<TRIPOS>ATOM
   1 C1            -0.0187     1.5258     0.0104 C.3     
   2 C2             0.0021    -0.0041     0.0020 C.3     
   3 C3             0.7421    -0.5109     1.2415 C.3     
   4 C4             2.1775     0.0187     1.2307 C.3     
   5 C5             2.1567     1.5485     1.2391 C.3     
   6 C6             1.4167     2.0553    -0.0004 C.3     
   7 C7             2.9174    -0.4882     2.4702 C.3     
   8 C8             4.3854    -0.0630     2.3972 C.3     
   9 N9             5.0304    -0.7276     1.2620 N.am    
  10 C10            5.0858    -0.4547     3.6727 C.2     
  11 O11            5.8361    -1.4009     3.6836 O.2     
  12 C12            4.8499     0.3344     4.9348 C.3     
  13 C13            3.6694    -0.2676     5.6995 C.3     
  14 C14            6.1038     0.2834     5.8100 C.3     
  15 C15            5.6015    -0.0775     0.2289 C.2     
  16 C16            6.1327    -1.1580    -0.6920 C.3     
  17 N17            5.7645    -2.4089    -0.0065 N.am    
  18 C18            5.1302    -2.0548     1.1258 C.2     
  19 O19            5.6747     1.1220     0.0690 O.2     
  20 O20            4.6903    -2.8516     1.9312 O.2     
  21 C21            5.4578    -1.0767    -2.0627 C.3     
  22 C22            6.0991    -2.0944    -3.0081 C.3     
  23 C23            5.3438    -2.1011    -4.3387 C.3     
  24 C24            5.9851    -3.1189    -5.2840 C.3     
  25 C25            7.4464    -2.7373    -5.5290 C.3     
  26 C26            8.2017    -2.7306    -4.1985 C.3     
  27 C27            7.5604    -1.7128    -3.2531 C.3     
  28 H28           -0.5459     1.8868    -0.8726 H       
  29 H29           -0.5289     1.8773     0.9072 H       
  30 H30           -1.0205    -0.3814     0.0098 H       
  31 H31            0.5123    -0.3556    -0.8948 H       
  32 H32            0.2319    -0.1594     2.1383 H       
  33 H33            0.7568    -1.6008     1.2356 H       
  34 H34            2.6876    -0.3328     0.3339 H       
  35 H35            1.6465     1.9000     2.1359 H       
  36 H36            3.1793     1.9258     1.2314 H       
  37 H37            1.9269     1.7038    -0.8972 H       
  38 H38            1.4019     3.1452     0.0056 H       
  39 H39            2.4606    -0.0646     3.3646 H       
  40 H40            2.8557    -1.5756     2.5109 H       
  41 H41            4.4447     1.0175     2.2672 H       
  42 H42            4.6271     1.3703     4.6793 H       
  43 H43            3.8922    -1.3035     5.9550 H       
  44 H44            3.4988     0.3031     6.6123 H       
  45 H45            2.7761    -0.2313     5.0760 H       
  46 H46            6.9449     0.7122     5.2652 H       
  47 H47            5.9332     0.8541     6.7229 H       
  48 H48            6.3267    -0.7526     6.0655 H       
  49 H49            7.2153    -1.0793    -0.7911 H       
  50 H50            5.9467    -3.3117    -0.3107 H       
  51 H51            4.3954    -1.2969    -1.9583 H       
  52 H52            5.5826    -0.0734    -2.4701 H       
  53 H53            6.0531    -3.0866    -2.5592 H       
  54 H54            4.3028    -2.3730    -4.1641 H       
  55 H55            5.3899    -1.1089    -4.7876 H       
  56 H56            5.9391    -4.1111    -4.8351 H       
  57 H57            5.4470    -3.1236    -6.2320 H       
  58 H58            7.9033    -3.4624    -6.2025 H       
  59 H59            7.4924    -1.7451    -5.9779 H       
  60 H60            8.1556    -3.7228    -3.7495 H       
  61 H61            9.2427    -2.4587    -4.3730 H       
  62 H62            7.6064    -0.7206    -3.7020 H       
  63 H63            8.0985    -1.7081    -2.3052 H       
@<TRIPOS>BOND
   1    1    2 1
   2    1    6 1
   3    1   28 1
   4    1   29 1
   5    2    3 1
   6    2   30 1
   7    2   31 1
   8    3    4 1
   9    3   32 1
  10    3   33 1
  11    4    5 1
  12    4    7 1
  13    4   34 1
  14    5    6 1
  15    5   35 1
  16    5   36 1
  17    6   37 1
  18    6   38 1
  19    7    8 1
  20    7   39 1
  21    7   40 1
  22    8    9 1
  23    8   10 1
  24    8   41 1
  25    9   15 am
  26    9   18 am
  27   10   11 2
  28   10   12 1
  29   12   13 1
  30   12   14 1
  31   12   42 1
  32   13   43 1
  33   13   44 1
  34   13   45 1
  35   14   46 1
  36   14   47 1
  37   14   48 1
  38   15   16 1
  39   15   19 2
  40   16   17 1
  41   16   21 1
  42   16   49 1
  43   17   18 am
  44   17   50 1
  45   18   20 2
  46   21   22 1
  47   21   51 1
  48   21   52 1
  49   22   23 1
  50   22   27 1
  51   22   53 1
  52   23   24 1
  53   23   54 1
  54   23   55 1
  55   24   25 1
  56   24   56 1
  57   24   57 1
  58   25   26 1
  59   25   58 1
  60   25   59 1
  61   26   27 1
  62   26   60 1
  63   26   61 1
  64   27   62 1
  65   27   63 1

#	End of record

