#	Name: ASD01916853
#	Creating user name:	WinNT
#	Creation time:	15. 06. 2019 20:08

#	Modifying user name:	WinNT
#	Modification time:	15. 06. 2019 20:08

#	Program:	/corina/corina34_cracker 3.40 0067  02.08.2006

@<TRIPOS>MOLECULE
ASD01916853
  63   67    0    0    0
SMALL
NO_CHARGES


@<TRIPOS>ATOM
   1 C1             0.0031     1.3286     0.1705 C.ar    
   2 C2             0.0412    -0.0302     0.4386 C.ar    
   3 C3             1.2573    -0.6773     0.5866 C.ar    
   4 C4             2.4362     0.0296     0.4670 C.ar    
   5 C5             2.4025     1.3962     0.1970 C.ar    
   6 C6             1.1772     2.0431     0.0494 C.ar    
   7 C7             3.6679     2.1607     0.0680 C.2     
   8 N8             4.8990     1.6519     0.1890 N.2     
   9 N9             3.7607     3.4475    -0.1894 N.2     
  10 N10            5.1294     3.7594    -0.2252 N.pl3   
  11 C11            5.7915     2.6040     0.0168 C.2     
  12 C12            7.2607     2.4402     0.0783 C.ar    
  13 C13            5.7232     5.0743    -0.4791 C.3     
  14 C14            5.8509     5.8272     0.8201 C.2     
  15 O15            5.4822     5.3158     1.8561 O.2     
  16 N16            6.3749     7.0689     0.8306 N.am    
  17 C17            6.5085     7.8212     2.0874 C.3     
  18 C18            7.9490     8.3320     2.1981 C.3     
  19 N19            8.2930     9.0844     0.9842 N.3     
  20 C20            8.2561     8.2230    -0.2051 C.3     
  21 C21            6.8338     7.7052    -0.4134 C.3     
  22 C22            9.5286     9.6991     1.1142 C.ar    
  23 C23           10.0488    10.4664     0.0753 C.ar    
  24 N24           10.2332     9.5690     2.2364 N.ar    
  25 C25           11.2912    11.0616     0.2548 C.ar    
  26 N26           11.9352    10.8790     1.4040 N.ar    
  27 C27           11.4081    10.1502     2.3670 C.ar    
  28 F28           -1.1108    -0.7261     0.5564 F       
  29 C29            7.8309     1.1777    -0.0831 C.ar    
  30 O30           11.8394    11.8175    -0.7278 O.3     
  31 C31           13.1199    12.3945    -0.4643 C.3     
  32 C32            9.2057     1.0306    -0.0246 C.ar    
  33 C33           10.0149     2.1396     0.1950 C.ar    
  34 C34            9.4493     3.3931     0.3557 C.ar    
  35 C35            8.0799     3.5493     0.2921 C.ar    
  36 O36            9.7651    -0.1986    -0.1814 O.3     
  37 C37            8.8739    -1.2934    -0.4032 C.3     
  38 F38           11.3568     1.9937     0.2522 F       
  39 H39           -0.9469     1.8283     0.0517 H       
  40 H40            1.2826    -1.7365     0.7962 H       
  41 H41            3.3838    -0.4755     0.5829 H       
  42 H42            1.1466     3.1021    -0.1603 H       
  43 H43            6.7102     4.9474    -0.9240 H       
  44 H44            5.0858     5.6349    -1.1628 H       
  45 H45            5.8197     8.6660     2.0835 H       
  46 H46            6.2860     7.1676     2.9308 H       
  47 H47            8.0381     8.9836     3.0674 H       
  48 H48            8.6277     7.4860     2.3062 H       
  49 H49            8.5678     8.7954    -1.0787 H       
  50 H50            8.9304     7.3784    -0.0635 H       
  51 H51            6.8244     6.9768    -1.2242 H       
  52 H52            6.1733     8.5373    -0.6573 H       
  53 H53            9.5009    10.5952    -0.8464 H       
  54 H54           11.9571    10.0219     3.2882 H       
  55 H55            7.2011     0.3169    -0.2529 H       
  56 H56           13.4428    12.9730    -1.3299 H       
  57 H57           13.0517    13.0486     0.4050 H       
  58 H58           13.8419    11.6021    -0.2670 H       
  59 H59           10.0819     4.2516     0.5268 H       
  60 H60            7.6415     4.5283     0.4178 H       
  61 H61            9.4484    -2.2134    -0.5114 H       
  62 H62            8.1949    -1.3866     0.4443 H       
  63 H63            8.2987    -1.1154    -1.3118 H       
@<TRIPOS>BOND
   1    1    2 ar
   2    1    6 ar
   3    1   39 1
   4    2    3 ar
   5    2   28 1
   6    3    4 ar
   7    3   40 1
   8    4    5 ar
   9    4   41 1
  10    5    6 ar
  11    5    7 1
  12    6   42 1
  13    7    8 1
  14    7    9 2
  15    8   11 2
  16    9   10 1
  17   10   11 1
  18   10   13 1
  19   11   12 1
  20   12   29 ar
  21   12   35 ar
  22   13   14 1
  23   13   43 1
  24   13   44 1
  25   14   15 2
  26   14   16 am
  27   16   17 1
  28   16   21 1
  29   17   18 1
  30   17   45 1
  31   17   46 1
  32   18   19 1
  33   18   47 1
  34   18   48 1
  35   19   20 1
  36   19   22 1
  37   20   21 1
  38   20   49 1
  39   20   50 1
  40   21   51 1
  41   21   52 1
  42   22   23 ar
  43   22   24 ar
  44   23   25 ar
  45   23   53 1
  46   24   27 ar
  47   25   26 ar
  48   25   30 1
  49   26   27 ar
  50   27   54 1
  51   29   32 ar
  52   29   55 1
  53   30   31 1
  54   31   56 1
  55   31   57 1
  56   31   58 1
  57   32   33 ar
  58   32   36 1
  59   33   34 ar
  60   33   38 1
  61   34   35 ar
  62   34   59 1
  63   35   60 1
  64   36   37 1
  65   37   61 1
  66   37   62 1
  67   37   63 1

#	End of record

