#	Name: ASD05170021
#	Creating user name:	WinNT
#	Creation time:	15. 06. 2019 20:57

#	Modifying user name:	WinNT
#	Modification time:	15. 06. 2019 20:57

#	Program:	/corina/corina34_cracker 3.40 0067  02.08.2006

@<TRIPOS>MOLECULE
ASD05170021
  46   49    0    0    0
SMALL
NO_CHARGES


@<TRIPOS>ATOM
   1 F1            -0.3393     0.6543    -0.1868 F       
   2 C2            -0.6023     2.0189    -0.3472 C.3     
   3 F3             0.6054     2.7219    -0.4140 F       
   4 O4            -1.3398     2.2232    -1.5541 O.3     
   5 C5            -0.7494     1.8260    -2.7131 C.ar    
   6 C6             0.5102     1.2472    -2.6860 C.ar    
   7 C7             1.1117     0.8430    -3.8628 C.ar    
   8 C8             0.4552     1.0164    -5.0726 C.ar    
   9 N9             1.0645     0.6068    -6.2659 N.pl3   
  10 C10            2.3955    -0.0047    -6.2365 C.3     
  11 C11            2.8201    -0.3516    -7.6402 C.2     
  12 C12            3.6136     0.4407    -8.4808 C.2     
  13 C13            3.7293    -0.2758    -9.6379 C.2     
  14 C14            4.4355     0.0067   -10.8968 C.2     
  15 O15            5.2169     0.9332   -11.0001 O.2     
  16 N16            4.1682    -0.8221   -11.9351 N.am    
  17 C17            3.0793    -1.7915   -11.8752 C.3     
  18 C18            2.9729    -2.4695   -10.5100 C.3     
  19 N19            3.0301    -1.4489    -9.4567 N.pl3   
  20 N20            2.5168    -1.4516    -8.2890 N.2     
  21 C21            4.9531    -0.7462   -13.0898 C.ar    
  22 C22            6.2880    -1.1275   -13.0499 C.ar    
  23 C23            7.0617    -1.0523   -14.1918 C.ar    
  24 C24            6.5095    -0.5976   -15.3746 C.ar    
  25 C25            5.1784    -0.2163   -15.4189 C.ar    
  26 F26            4.6413     0.2274   -16.5765 F       
  27 C27            4.3977    -0.2949   -14.2800 C.ar    
  28 C28           -0.8085     1.5966    -5.1000 C.ar    
  29 F29           -1.4492     1.7661    -6.2772 F       
  30 C30           -1.4104     1.9953    -3.9211 C.ar    
  31 H31           -1.1857     2.3786     0.5003 H       
  32 H32            1.0219     1.1123    -1.7445 H       
  33 H33            2.0930     0.3925    -3.8406 H       
  34 H34            0.6052     0.7282    -7.1116 H       
  35 H35            3.1084     0.6973    -5.8042 H       
  36 H36            2.3656    -0.9110    -5.6315 H       
  37 H37            4.0404     1.4082    -8.2615 H       
  38 H38            2.1405    -1.2807   -12.0892 H       
  39 H39            3.2445    -2.5546   -12.6358 H       
  40 H40            2.0276    -3.0082   -10.4439 H       
  41 H41            3.8002    -3.1682   -10.3852 H       
  42 H42            6.7211    -1.4823   -12.1263 H       
  43 H43            8.0997    -1.3489   -14.1603 H       
  44 H44            7.1170    -0.5392   -16.2656 H       
  45 H45            3.3588    -0.0020   -14.3152 H       
  46 H46           -2.3932     2.4425    -3.9409 H       
@<TRIPOS>BOND
   1    1    2 1
   2    2    3 1
   3    2    4 1
   4    2   31 1
   5    4    5 1
   6    5   30 ar
   7    5    6 ar
   8    6    7 ar
   9    6   32 1
  10    7    8 ar
  11    7   33 1
  12    8    9 1
  13    8   28 ar
  14    9   10 1
  15    9   34 1
  16   10   11 1
  17   10   35 1
  18   10   36 1
  19   11   20 2
  20   11   12 1
  21   12   13 2
  22   12   37 1
  23   13   19 1
  24   13   14 1
  25   14   15 2
  26   14   16 am
  27   16   17 1
  28   16   21 1
  29   17   18 1
  30   17   38 1
  31   17   39 1
  32   18   19 1
  33   18   40 1
  34   18   41 1
  35   19   20 1
  36   21   27 ar
  37   21   22 ar
  38   22   23 ar
  39   22   42 1
  40   23   24 ar
  41   23   43 1
  42   24   25 ar
  43   24   44 1
  44   25   26 1
  45   25   27 ar
  46   27   45 1
  47   28   29 1
  48   28   30 ar
  49   30   46 1

#	End of record

