#	Name: ASD04880209
#	Creating user name:	WinNT
#	Creation time:	15. 06. 2019 20:53

#	Modifying user name:	WinNT
#	Modification time:	15. 06. 2019 20:53

#	Program:	/corina/corina34_cracker 3.40 0067  02.08.2006

@<TRIPOS>MOLECULE
ASD04880209
  46   49    0    0    0
SMALL
NO_CHARGES


@<TRIPOS>ATOM
   1 C1            -0.0105     1.5405     0.0946 C.3     
   2 C2             0.0062     0.0004     0.0300 C.3     
   3 N3             1.4403    -0.3294     0.0242 N.am    
   4 N4             2.1749     0.8535     0.0781 N.2     
   5 C5             1.4528     1.9200     0.1188 C.2     
   6 C6             1.9734     3.2978     0.1789 C.ar    
   7 C7             1.9587    -1.5725    -0.0244 C.2     
   8 O8             1.2247    -2.5401     0.0359 O.2     
   9 C9             3.4193    -1.7597    -0.1510 C.ar    
  10 C10            4.2510    -0.6592    -0.3639 C.ar    
  11 C11            5.6139    -0.8394    -0.4809 C.ar    
  12 C12            6.1580    -2.1076    -0.3883 C.ar    
  13 C13            5.3389    -3.2055    -0.1769 C.ar    
  14 C14            3.9732    -3.0373    -0.0523 C.ar    
  15 F15            5.8772    -4.4414    -0.0874 F       
  16 C16            3.3560     3.5363     0.1965 C.ar    
  17 C17            1.0982     4.3844     0.2133 C.ar    
  18 N18            1.5632     5.6164     0.2662 N.ar    
  19 C19            2.8639     5.8681     0.2888 C.ar    
  20 C20            3.7946     4.8326     0.2522 C.ar    
  21 N21            3.3054     7.1833     0.3447 N.3     
  22 C22            2.1722     8.1187     0.3702 C.3     
  23 C23            2.6978     9.5491     0.5118 C.3     
  24 N24            3.6001     9.8497    -0.6086 N.3     
  25 C25            4.7333     8.9144    -0.6341 C.3     
  26 C26            4.2076     7.4840    -0.7757 C.3     
  27 H27           -0.4985     1.9549    -0.7876 H       
  28 H28           -0.5086     1.8796     1.0029 H       
  29 H29           -0.4818    -0.4256     0.9066 H       
  30 H30           -0.4717    -0.3504    -0.8847 H       
  31 H31            3.8283     0.3320    -0.4374 H       
  32 H32            6.2576     0.0120    -0.6457 H       
  33 H33            7.2254    -2.2429    -0.4813 H       
  34 H34            3.3351    -3.8928     0.1127 H       
  35 H35            4.0583     2.7164     0.1670 H       
  36 H36            0.0318     4.2144     0.1962 H       
  37 H37            4.8524     5.0496     0.2715 H       
  38 H38            1.6060     8.0294    -0.5570 H       
  39 H39            1.5255     7.8835     1.2155 H       
  40 H40            1.8605    10.2469     0.5017 H       
  41 H41            3.2408     9.6455     1.4519 H       
  42 H42            3.1026     9.8391    -1.4864 H       
  43 H43            5.3799     9.1496    -1.4795 H       
  44 H44            5.2994     9.0037     0.2931 H       
  45 H45            5.0449     6.7862    -0.7657 H       
  46 H46            3.6646     7.3875    -1.7158 H       
@<TRIPOS>BOND
   1    1    2 1
   2    1    5 1
   3    1   27 1
   4    1   28 1
   5    2    3 1
   6    2   29 1
   7    2   30 1
   8    3    4 1
   9    3    7 am
  10    4    5 2
  11    5    6 1
  12    6   16 ar
  13    6   17 ar
  14    7    8 2
  15    7    9 1
  16    9   10 ar
  17    9   14 ar
  18   10   11 ar
  19   10   31 1
  20   11   12 ar
  21   11   32 1
  22   12   13 ar
  23   12   33 1
  24   13   14 ar
  25   13   15 1
  26   14   34 1
  27   16   20 ar
  28   16   35 1
  29   17   18 ar
  30   17   36 1
  31   18   19 ar
  32   19   20 ar
  33   19   21 1
  34   20   37 1
  35   21   22 1
  36   21   26 1
  37   22   23 1
  38   22   38 1
  39   22   39 1
  40   23   24 1
  41   23   40 1
  42   23   41 1
  43   24   25 1
  44   24   42 1
  45   25   26 1
  46   25   43 1
  47   25   44 1
  48   26   45 1
  49   26   46 1

#	End of record

