#	Name: ASD01948074
#	Creating user name:	WinNT
#	Creation time:	15. 06. 2019 20:13

#	Modifying user name:	WinNT
#	Modification time:	15. 06. 2019 20:13

#	Program:	/corina/corina34_cracker 3.40 0067  02.08.2006

@<TRIPOS>MOLECULE
ASD01948074
  18   18    0    0    0
SMALL
NO_CHARGES


@<TRIPOS>ATOM
   1 O1            -0.0174     1.4293     0.0099 O.3     
   2 C2             0.0021    -0.0041     0.0020 C.3     
   3 C3             1.3462     0.0598    -0.7338 C.3     
   4 C4             1.4159     1.4068    -0.0039 C.3     
   5 C5             2.3764    -0.9706    -0.2672 C.3     
   6 S6             3.9018    -0.7735    -1.2213 S.3     
   7 C7             4.9086    -2.0812    -0.4782 C.1     
   8 N8             5.5405    -2.9020    -0.0117 N.1     
   9 C9             1.2336     0.1662    -2.2560 C.3     
  10 H10            0.0742    -0.4414     0.9978 H       
  11 H11           -0.7972    -0.4444    -0.5941 H       
  12 H12            1.8554     2.2026    -0.6052 H       
  13 H13            1.8572     1.3379     0.9904 H       
  14 H14            2.5878    -0.8193     0.7914 H       
  15 H15            1.9803    -1.9748    -0.4187 H       
  16 H16            0.6866     1.0720    -2.5174 H       
  17 H17            2.2317     0.2058    -2.6922 H       
  18 H18            0.7023    -0.7035    -2.6427 H       
@<TRIPOS>BOND
   1    1    2 1
   2    1    4 1
   3    2    3 1
   4    2   10 1
   5    2   11 1
   6    3    4 1
   7    3    5 1
   8    3    9 1
   9    4   12 1
  10    4   13 1
  11    5    6 1
  12    5   14 1
  13    5   15 1
  14    6    7 1
  15    7    8 3
  16    9   16 1
  17    9   17 1
  18    9   18 1

#	End of record

