#	Name: ASD05430126
#	Creating user name:	WinNT
#	Creation time:	15. 06. 2019 20:59

#	Modifying user name:	WinNT
#	Modification time:	15. 06. 2019 20:59

#	Program:	/corina/corina34_cracker 3.40 0067  02.08.2006

@<TRIPOS>MOLECULE
ASD05430126
  69   74    0    0    0
SMALL
NO_CHARGES


@<TRIPOS>ATOM
   1 F1            13.1130     0.5133    -1.7071 F       
   2 C2             0.0148     1.5243    -0.0067 C.ar    
   3 C3            -0.0244     0.3470    -0.7530 C.ar    
   4 C4             1.1403    -0.1653    -1.3100 C.ar    
   5 C5             2.3401     0.4871    -1.1273 C.ar    
   6 C6             2.3871     1.6684    -0.3799 C.ar    
   7 C7             1.2146     2.1843     0.1803 C.ar    
   8 C8             4.8381     0.1442    -0.0538 C.3     
   9 C9             4.8135     1.6636    -0.1112 C.2     
  10 C10            3.6681     2.3666    -0.1832 C.2     
  11 C11            5.8537    -0.2857     1.0097 C.3     
  12 C12            7.2655     0.1598     0.6153 C.3     
  13 N13            7.2656     1.5940     0.3454 N.pl3   
  14 C14            6.1443     2.3111    -0.0825 C.2     
  15 C15            9.6276     2.0173    -0.1147 C.ar    
  16 C16           10.0673     0.7586     0.2509 C.ar    
  17 C17           11.2372     0.2526    -0.2832 C.ar    
  18 C18           11.9690     1.0068    -1.1847 C.ar    
  19 C19           11.5277     2.2672    -1.5501 C.ar    
  20 C20           10.3547     2.7690    -1.0188 C.ar    
  21 N21           -1.2419    -0.3211    -0.9413 N.pl3   
  22 C22           -1.7567    -0.7561    -2.1351 C.2     
  23 C23           -2.9375    -1.3424    -1.8602 C.2     
  24 N24           -3.1428    -1.2702    -0.5367 N.2     
  25 C25           -2.1319    -0.6652     0.0254 C.2     
  26 C26           -3.8676    -1.9706    -2.8658 C.3     
  27 N27            6.4750     3.5070    -0.4325 N.2     
  28 C28            8.3515     2.5677     0.4680 C.3     
  29 O29            7.8794     3.6890    -0.3081 O.3     
  30 C30            8.5561     2.9669     1.9308 C.3     
  31 O31            9.6202     3.9165     2.0210 O.3     
  32 C32           -1.0142     3.2353     1.2849 C.3     
  33 O33           -1.1281     2.0259     0.5323 O.3     
  34 C34            5.4788     0.3449     2.3538 C.3     
  35 C35            4.1064    -0.1758     2.7888 C.3     
  36 O36            4.1421    -1.6022     2.8677 O.3     
  37 C37            4.4395    -2.2475     1.6278 C.3     
  38 C38            5.8260    -1.8111     1.1474 C.3     
  39 H39            1.1055    -1.0773    -1.8873 H       
  40 H40            3.2443     0.0861    -1.5609 H       
  41 H41            1.2464     3.0964     0.7578 H       
  42 H42            3.8490    -0.2284     0.2126 H       
  43 H43            5.1335    -0.2543    -1.0244 H       
  44 H44            3.6887     3.4429    -0.0966 H       
  45 H45            7.9558    -0.0565     1.4307 H       
  46 H46            7.5796    -0.3783    -0.2791 H       
  47 H47            9.4965     0.1707     0.9544 H       
  48 H48           11.5806    -0.7306     0.0029 H       
  49 H49           12.0977     2.8564    -2.2532 H       
  50 H50           10.0103     3.7522    -1.3036 H       
  51 H51           -1.3027    -0.6488    -3.1091 H       
  52 H52           -2.0244    -0.4657     1.0813 H       
  53 H53           -3.6152    -3.0242    -2.9855 H       
  54 H54           -4.8958    -1.8807    -2.5154 H       
  55 H55           -3.7644    -1.4612    -3.8239 H       
  56 H56            7.6391     3.4110     2.3179 H       
  57 H57            8.8074     2.0829     2.5169 H       
  58 H58            9.8058     4.2148     2.9219 H       
  59 H59           -1.9966     3.5252     1.6577 H       
  60 H60           -0.3385     3.0778     2.1256 H       
  61 H61           -0.6205     4.0255     0.6455 H       
  62 H62            6.2241     0.0765     3.1025 H       
  63 H63            5.4405     1.4292     2.2492 H       
  64 H64            3.8545     0.2361     3.7661 H       
  65 H65            3.3545     0.1292     2.0610 H       
  66 H66            4.4269    -3.3283     1.7682 H       
  67 H67            3.6927    -1.9685     0.8844 H       
  68 H68            6.0370    -2.2680     0.1805 H       
  69 H69            6.5779    -2.1252     1.8714 H       
@<TRIPOS>BOND
   1    1   18 1
   2    2    3 ar
   3    2    7 ar
   4    2   33 1
   5    3    4 ar
   6    3   21 1
   7    4    5 ar
   8    4   39 1
   9    5    6 ar
  10    5   40 1
  11    6    7 ar
  12    6   10 1
  13    7   41 1
  14    8    9 1
  15    8   11 1
  16    8   42 1
  17    8   43 1
  18    9   10 2
  19    9   14 1
  20   10   44 1
  21   11   12 1
  22   11   34 1
  23   11   38 1
  24   12   13 1
  25   12   45 1
  26   12   46 1
  27   13   14 1
  28   13   28 1
  29   14   27 2
  30   15   16 ar
  31   15   28 1
  32   15   20 ar
  33   16   17 ar
  34   16   47 1
  35   17   18 ar
  36   17   48 1
  37   18   19 ar
  38   19   20 ar
  39   19   49 1
  40   20   50 1
  41   21   22 1
  42   21   25 1
  43   22   23 2
  44   22   51 1
  45   23   24 1
  46   23   26 1
  47   24   25 2
  48   25   52 1
  49   26   53 1
  50   26   54 1
  51   26   55 1
  52   27   29 1
  53   28   29 1
  54   28   30 1
  55   30   31 1
  56   30   56 1
  57   30   57 1
  58   31   58 1
  59   32   33 1
  60   32   59 1
  61   32   60 1
  62   32   61 1
  63   34   35 1
  64   34   62 1
  65   34   63 1
  66   35   36 1
  67   35   64 1
  68   35   65 1
  69   36   37 1
  70   37   38 1
  71   37   66 1
  72   37   67 1
  73   38   68 1
  74   38   69 1

#	End of record

