#	Name: ASD01411283
#	Creating user name:	WinNT
#	Creation time:	15. 06. 2019 19:19

#	Modifying user name:	WinNT
#	Modification time:	15. 06. 2019 19:19

#	Program:	/corina/corina34_cracker 3.40 0067  02.08.2006

@<TRIPOS>MOLECULE
ASD01411283
  74   78    0    0    0
SMALL
NO_CHARGES


@<TRIPOS>ATOM
   1 C1            -0.0171     1.4061     0.0098 C.ar    
   2 C2             0.0021    -0.0041     0.0020 C.ar    
   3 C3            -1.2061    -0.7150     0.0341 C.ar    
   4 C4            -2.3969    -0.0485     0.0345 C.ar    
   5 C5            -2.4183     1.3544     0.0089 C.ar    
   6 C6            -1.2201     2.0771     0.0180 C.ar    
   7 N7             1.2969     1.8364    -0.0005 N.pl3   
   8 C8             2.1226     0.7355    -0.0490 C.2     
   9 C9             1.3620    -0.3940    -0.0434 C.2     
  10 C10            1.7314     3.2339     0.0313 C.3     
  11 C11            0.9368     4.0503    -0.9486 C.2     
  12 N12            0.9920     5.4154    -0.8693 N.am    
  13 O13            0.2584     3.5087    -1.7956 O.2     
  14 C14            0.1675     6.1216    -1.8818 C.3     
  15 C15           -2.3344     6.1191    -1.8679 C.3     
  16 C16           -3.6831     2.1030    -0.0585 C.2     
  17 O17           -4.7538     1.5320    -0.1367 O.2     
  18 N18           -3.6038     3.4703    -0.0290 N.am    
  19 C19           -3.5355     6.4076    -0.9587 C.3     
  20 N20           -4.6474     5.5200    -1.3800 N.am    
  21 S21           -5.0304     4.2901    -0.3212 S.o2    
  22 C22            3.5999     0.7737    -0.0991 C.ar    
  23 C23            4.2489     1.6609    -0.9592 C.ar    
  24 C24            1.8774    -1.8097    -0.0788 C.3     
  25 C25            1.4104    -2.5539     1.1738 C.3     
  26 C26            1.9336    -3.9912     1.1379 C.3     
  27 C27            1.3945    -4.6992    -0.1067 C.3     
  28 C28            1.8615    -3.9550    -1.3593 C.3     
  29 C29            1.3383    -2.5177    -1.3234 C.3     
  30 C30            5.6273     1.6920    -1.0016 C.ar    
  31 C31            6.3669     0.8452    -0.1932 C.ar    
  32 C32            5.7285    -0.0374     0.6618 C.ar    
  33 C33            4.3507    -0.0732     0.7175 C.ar    
  34 O34           -5.8746     3.3936    -1.0302 O.2     
  35 O35           -5.3991     4.9101     0.9032 O.2     
  36 C36           -5.3634     5.7143    -2.6433 C.3     
  37 C37           -1.0793     6.6707    -1.1856 C.3     
  38 Cl38           8.1013     0.8901    -0.2521 Cl      
  39 C39            1.7973     6.1207     0.1309 C.3     
  40 H40           -1.1942    -1.7946     0.0583 H       
  41 H41           -3.3243    -0.6016     0.0542 H       
  42 H42           -1.2385     3.1568     0.0303 H       
  43 H43            1.5870     3.6339     1.0349 H       
  44 H44            2.7889     3.2888    -0.2273 H       
  45 H45            0.7393     6.9430    -2.3135 H       
  46 H46           -0.1266     5.4251    -2.6670 H       
  47 H47           -2.2329     5.0437    -2.0139 H       
  48 H48           -2.4749     6.6104    -2.8307 H       
  49 H49           -2.7710     3.9340     0.1508 H       
  50 H50           -3.2702     6.2028     0.0785 H       
  51 H51           -3.8357     7.4501    -1.0642 H       
  52 H52            3.6731     2.3215    -1.5904 H       
  53 H53            2.9669    -1.7991    -0.1101 H       
  54 H54            1.7944    -2.0495     2.0605 H       
  55 H55            0.3209    -2.5645     1.2051 H       
  56 H56            3.0231    -3.9806     1.1066 H       
  57 H57            1.6009    -4.5214     2.0303 H       
  58 H58            1.7672    -5.7232    -0.1323 H       
  59 H59            0.3050    -4.7098    -0.0754 H       
  60 H60            2.9510    -3.9444    -1.3906 H       
  61 H61            1.4774    -4.4594    -2.2460 H       
  62 H62            0.2488    -2.5283    -1.2921 H       
  63 H63            1.6710    -1.9875    -2.2157 H       
  64 H64            6.1306     2.3778    -1.6670 H       
  65 H65            6.3106    -0.6957     1.2897 H       
  66 H66            3.8539    -0.7618     1.3849 H       
  67 H67           -4.8694     5.1467    -3.4319 H       
  68 H68           -6.3912     5.3677    -2.5354 H       
  69 H69           -5.3623     6.7730    -2.9024 H       
  70 H70           -1.0730     6.3684    -0.1384 H       
  71 H71           -1.0805     7.7589    -1.2487 H       
  72 H72            2.3120     5.3949     0.7606 H       
  73 H73            2.5312     6.7505    -0.3719 H       
  74 H74            1.1479     6.7414     0.7483 H       
@<TRIPOS>BOND
   1    1    2 ar
   2    1    7 1
   3    1    6 ar
   4    2    3 ar
   5    2    9 1
   6    3    4 ar
   7    3   40 1
   8    4    5 ar
   9    4   41 1
  10    5    6 ar
  11    5   16 1
  12    6   42 1
  13    7    8 1
  14    7   10 1
  15    8    9 2
  16    8   22 1
  17    9   24 1
  18   10   11 1
  19   10   43 1
  20   10   44 1
  21   11   12 am
  22   11   13 2
  23   12   14 1
  24   12   39 1
  25   14   37 1
  26   14   45 1
  27   14   46 1
  28   15   19 1
  29   15   37 1
  30   15   47 1
  31   15   48 1
  32   16   17 2
  33   16   18 am
  34   18   21 am
  35   18   49 1
  36   19   20 1
  37   19   50 1
  38   19   51 1
  39   20   21 am
  40   20   36 1
  41   21   34 2
  42   21   35 2
  43   22   23 ar
  44   22   33 ar
  45   23   30 ar
  46   23   52 1
  47   24   25 1
  48   24   29 1
  49   24   53 1
  50   25   26 1
  51   25   54 1
  52   25   55 1
  53   26   27 1
  54   26   56 1
  55   26   57 1
  56   27   28 1
  57   27   58 1
  58   27   59 1
  59   28   29 1
  60   28   60 1
  61   28   61 1
  62   29   62 1
  63   29   63 1
  64   30   31 ar
  65   30   64 1
  66   31   32 ar
  67   31   38 1
  68   32   33 ar
  69   32   65 1
  70   33   66 1
  71   36   67 1
  72   36   68 1
  73   36   69 1
  74   37   70 1
  75   37   71 1
  76   39   72 1
  77   39   73 1
  78   39   74 1

#	End of record

