#	Name: ASD03331235
#	Creating user name:	WinNT
#	Creation time:	15. 06. 2019 20:38

#	Modifying user name:	WinNT
#	Modification time:	15. 06. 2019 20:38

#	Program:	/corina/corina34_cracker 3.40 0067  02.08.2006

@<TRIPOS>MOLECULE
ASD03331235
  48   51    0    0    0
SMALL
NO_CHARGES


@<TRIPOS>ATOM
   1 N1            -0.0486     1.4517     0.2843 N.am    
   2 C2            -0.0347     0.0102     0.5761 C.3     
   3 C3             0.7216    -0.7066    -0.5474 C.3     
   4 N4             2.0464    -0.0932    -0.7106 N.3     
   5 C5             1.9356     1.3117    -1.1252 C.3     
   6 C6             1.2290     2.1113    -0.0254 C.3     
   7 C7            -1.2021     2.1486     0.2949 C.2     
   8 O8            -2.2600     1.5708     0.4548 O.2     
   9 N9            -1.1831     3.4859     0.1284 N.am    
  10 C10           -2.3872     4.1975     0.0328 C.ar    
  11 C11           -3.5646     3.5324    -0.2769 C.ar    
  12 C12           -4.7507     4.2354    -0.3708 C.ar    
  13 C13           -4.7656     5.6029    -0.1566 C.ar    
  14 C14           -3.5922     6.2704     0.1527 C.ar    
  15 C15           -2.4042     5.5704     0.2539 C.ar    
  16 C16            2.8679    -0.8585    -1.6579 C.3     
  17 C17            4.1136    -0.0772    -1.9878 C.ar    
  18 C18            5.2633    -0.2409    -1.2188 C.ar    
  19 N19            6.3654     0.4211    -1.4759 N.ar    
  20 C20            6.4350     1.2865    -2.4920 C.ar    
  21 C21            5.3011     1.5009    -3.3146 C.ar    
  22 C22            4.1179     0.7882    -3.0449 C.ar    
  23 C23            5.3793     2.4119    -4.3805 C.ar    
  24 C24            7.6194     1.9942    -2.7628 C.ar    
  25 C25            7.6600     2.8691    -3.8042 C.ar    
  26 C26            6.5434     3.0789    -4.6114 C.ar    
  27 F27           -1.2603     6.2201     0.5615 F       
  28 F28           -5.9265     6.2876    -0.2500 F       
  29 H29            0.4685    -0.1661     1.5268 H       
  30 H30           -1.0575    -0.3633     0.6253 H       
  31 H31            0.8375    -1.7602    -0.2933 H       
  32 H32            0.1617    -0.6161    -1.4782 H       
  33 H33            2.9319     1.7219    -1.2902 H       
  34 H34            1.3588     1.3742    -2.0480 H       
  35 H35            1.0417     3.1269    -0.3739 H       
  36 H36            1.8538     2.1370     0.8674 H       
  37 H37           -0.3363     3.9559     0.0747 H       
  38 H38           -3.5543     2.4656    -0.4449 H       
  39 H39           -5.6671     3.7173    -0.6119 H       
  40 H40           -3.6059     7.3375     0.3191 H       
  41 H41            3.1454    -1.8126    -1.2098 H       
  42 H42            2.2989    -1.0373    -2.5702 H       
  43 H43            5.2464    -0.9313    -0.3885 H       
  44 H44            3.2356     0.9272    -3.6520 H       
  45 H45            4.5210     2.5822    -5.0136 H       
  46 H46            8.4934     1.8441    -2.1465 H       
  47 H47            8.5720     3.4105    -4.0079 H       
  48 H48            6.6029     3.7786    -5.4319 H       
@<TRIPOS>BOND
   1    1    2 1
   2    1    6 1
   3    1    7 am
   4    2    3 1
   5    2   29 1
   6    2   30 1
   7    3    4 1
   8    3   31 1
   9    3   32 1
  10    4    5 1
  11    4   16 1
  12    5    6 1
  13    5   33 1
  14    5   34 1
  15    6   35 1
  16    6   36 1
  17    7    8 2
  18    7    9 am
  19    9   10 1
  20    9   37 1
  21   10   11 ar
  22   10   15 ar
  23   11   12 ar
  24   11   38 1
  25   12   13 ar
  26   12   39 1
  27   13   14 ar
  28   13   28 1
  29   14   15 ar
  30   14   40 1
  31   15   27 1
  32   16   17 1
  33   16   41 1
  34   16   42 1
  35   17   18 ar
  36   17   22 ar
  37   18   19 ar
  38   18   43 1
  39   19   20 ar
  40   20   21 ar
  41   20   24 ar
  42   21   22 ar
  43   21   23 ar
  44   22   44 1
  45   23   26 ar
  46   23   45 1
  47   24   25 ar
  48   24   46 1
  49   25   26 ar
  50   25   47 1
  51   26   48 1

#	End of record

