#	Name: ASD07300464
#	Creating user name:	WinNT
#	Creation time:	15. 06. 2019 21:09

#	Modifying user name:	WinNT
#	Modification time:	15. 06. 2019 21:09

#	Program:	/corina/corina34_cracker 3.40 0067  02.08.2006

@<TRIPOS>MOLECULE
ASD07300464
  12   12    0    0    0
SMALL
NO_CHARGES


@<TRIPOS>ATOM
   1 C1            -0.0158     1.3139     0.0093 C.ar    
   2 N2             0.0021    -0.0041     0.0020 N.ar    
   3 C3             1.1488    -0.6665    -0.0125 C.ar    
   4 C4             2.3397     0.0467    -0.0200 C.ar    
   5 C5             2.2787     1.4301    -0.0120 C.ar    
   6 N6             1.0950     2.0228     0.0025 N.ar    
   7 N7             3.6432    -0.6545    -0.0357 N.pl3   
   8 O8             4.6792    -0.0141    -0.0421 O.2     
   9 O9             3.6797    -1.8719    -0.0422 O.2     
  10 Cl10           1.1624    -2.4024    -0.0213 Cl      
  11 H11           -0.9664     1.8265     0.0165 H       
  12 H12            3.1848     2.0178    -0.0171 H       
@<TRIPOS>BOND
   1    1    2 ar
   2    1    6 ar
   3    1   11 1
   4    2    3 ar
   5    3    4 ar
   6    3   10 1
   7    4    5 ar
   8    4    7 1
   9    5    6 ar
  10    5   12 1
  11    7    8 2
  12    7    9 2

#	End of record

