#	Name: ASD02030019
#	Creating user name:	WinNT
#	Creation time:	15. 06. 2019 20:14

#	Modifying user name:	WinNT
#	Modification time:	15. 06. 2019 20:14

#	Program:	/corina/corina34_cracker 3.40 0067  02.08.2006

@<TRIPOS>MOLECULE
ASD02030019
  49   50    0    0    0
SMALL
NO_CHARGES


@<TRIPOS>ATOM
   1 C1            -0.7633     2.3589    -0.1308 C.ar    
   2 C2            -0.6309     0.9814    -0.1721 C.ar    
   3 C3            -1.7570     0.1781    -0.1479 C.ar    
   4 C4            -3.0131     0.7507    -0.0825 C.ar    
   5 C5            -3.1453     2.1264    -0.0417 C.ar    
   6 C6            -2.0212     2.9303    -0.0595 C.ar    
   7 Cl7            0.6487     3.3684    -0.1611 Cl      
   8 Cl8            0.9471     0.2627    -0.2548 Cl      
   9 C9            -4.2394    -0.1248    -0.0562 C.3     
  10 C10           -4.5966    -0.4588     1.3935 C.3     
  11 N11           -5.7920    -1.3123     1.4192 N.3     
  12 C12           -6.1654    -1.6539     2.7982 C.3     
  13 C13           -7.4116    -2.5414     2.7841 C.3     
  14 C14           -7.8005    -2.8973     4.2205 C.3     
  15 O15           -8.8924    -3.8190     4.2038 O.3     
  16 O16           -8.4885    -1.8405     2.1588 O.3     
  17 C17           -9.3636    -4.2399     5.4083 C.ar    
  18 C18          -10.4265    -5.1386     5.4670 C.ar    
  19 C19          -10.9028    -5.5643     6.6984 C.ar    
  20 C20          -10.3227    -5.0966     7.8626 C.ar    
  21 C21           -9.2682    -4.2045     7.8034 C.ar    
  22 C22           -8.7841    -3.7805     6.5794 C.ar    
  23 N23          -11.0125    -5.6103     4.2867 N.am    
  24 S24          -12.6434    -5.8915     4.2269 S.o2    
  25 C25          -13.3939    -4.2879     4.6217 C.3     
  26 O26          -12.8899    -6.2371     2.8708 O.2     
  27 O27          -12.8770    -6.8228     5.2744 O.2     
  28 H28           -1.6544    -0.8966    -0.1805 H       
  29 H29           -4.1274     2.5729     0.0090 H       
  30 H30           -2.1252     4.0048    -0.0276 H       
  31 H31           -5.0717     0.4015    -0.5235 H       
  32 H32           -4.0396    -1.0465    -0.6028 H       
  33 H33           -3.7643    -0.9852     1.8608 H       
  34 H34           -4.7964     0.4628     1.9401 H       
  35 H35           -6.5604    -0.8729     0.9348 H       
  36 H36           -5.3439    -2.1886     3.2752 H       
  37 H37           -6.3760    -0.7406     3.3545 H       
  38 H38           -7.2009    -3.4548     2.2278 H       
  39 H39           -6.9485    -3.3525     4.7254 H       
  40 H40           -8.0967    -1.9926     4.7514 H       
  41 H41           -8.7306    -1.0156     2.6016 H       
  42 H42          -11.7269    -6.2606     6.7474 H       
  43 H43          -10.6943    -5.4287     8.8207 H       
  44 H44           -8.8182    -3.8414     8.7156 H       
  45 H45           -7.9600    -3.0838     6.5368 H       
  46 H46          -10.4634    -5.7725     3.5037 H       
  47 H47          -13.0811    -3.5489     3.8840 H       
  48 H48          -14.4798    -4.3810     4.6048 H       
  49 H49          -13.0719    -3.9703     5.6134 H       
@<TRIPOS>BOND
   1    1    2 ar
   2    1    7 1
   3    1    6 ar
   4    2    3 ar
   5    2    8 1
   6    3    4 ar
   7    3   28 1
   8    4    5 ar
   9    4    9 1
  10    5    6 ar
  11    5   29 1
  12    6   30 1
  13    9   10 1
  14    9   31 1
  15    9   32 1
  16   10   11 1
  17   10   33 1
  18   10   34 1
  19   11   12 1
  20   11   35 1
  21   12   13 1
  22   12   36 1
  23   12   37 1
  24   13   14 1
  25   13   16 1
  26   13   38 1
  27   14   15 1
  28   14   39 1
  29   14   40 1
  30   15   17 1
  31   16   41 1
  32   17   18 ar
  33   17   22 ar
  34   18   19 ar
  35   18   23 1
  36   19   20 ar
  37   19   42 1
  38   20   21 ar
  39   20   43 1
  40   21   22 ar
  41   21   44 1
  42   22   45 1
  43   23   24 am
  44   23   46 1
  45   24   25 1
  46   24   26 2
  47   24   27 2
  48   25   47 1
  49   25   48 1
  50   25   49 1

#	End of record

