#	Name: ASD01410196
#	Creating user name:	WinNT
#	Creation time:	15. 06. 2019 19:16

#	Modifying user name:	WinNT
#	Modification time:	15. 06. 2019 19:16

#	Program:	/corina/corina34_cracker 3.40 0067  02.08.2006

@<TRIPOS>MOLECULE
ASD01410196
  38   41    0    0    0
SMALL
NO_CHARGES


@<TRIPOS>ATOM
   1 C1            -0.0673     1.3167    -0.0249 C.ar    
   2 C2             0.0559    -0.0676     0.1595 C.ar    
   3 C3            -1.1180    -0.8409     0.3406 C.ar    
   4 C4            -2.3406    -0.2556     0.3356 C.ar    
   5 C5            -2.4656     1.1302     0.1506 C.ar    
   6 C6            -1.3259     1.9106    -0.0235 C.ar    
   7 S7             1.5303     2.0285    -0.2234 S.3     
   8 C8             2.3035     0.4624    -0.0543 C.2     
   9 C9             1.3925    -0.4960     0.1356 C.2     
  10 C10           -3.7985     1.7576     0.1458 C.2     
  11 O11           -3.9047     2.9576    -0.0145 O.2     
  12 O12           -4.9003     1.0008     0.3191 O.3     
  13 C13            5.7762    -0.6145    -0.6393 C.2     
  14 O14            5.9221     0.4079     0.2172 O.3     
  15 C15            4.7310     0.9292     0.5433 C.2     
  16 C16            3.7631     0.2347    -0.1146 C.2     
  17 C17            4.4695    -0.7879    -0.8968 C.2     
  18 C18            1.2128    -2.4998     1.6445 C.3     
  19 C19            1.1310    -4.0228     1.4130 C.3     
  20 C20            1.0455    -4.2321    -0.1091 C.3     
  21 C21            1.0783    -2.8290    -0.7493 C.3     
  22 C22            1.7749    -1.9429     0.3130 C.3     
  23 H23           -1.0375    -1.9084     0.4837 H       
  24 H24           -3.2248    -0.8598     0.4747 H       
  25 H25           -1.4191     2.9772    -0.1657 H       
  26 H26           -5.7526     1.4573     0.3083 H       
  27 H27            6.5806    -1.2008    -1.0582 H       
  28 H28            4.5673     1.7593     1.2146 H       
  29 H29            4.0280    -1.5288    -1.5469 H       
  30 H30            0.2221    -2.0902     1.8414 H       
  31 H31            1.8902    -2.2750     2.4683 H       
  32 H32            2.0235    -4.5089     1.8071 H       
  33 H33            0.2412    -4.4267     1.8960 H       
  34 H34            1.8964    -4.8197    -0.4536 H       
  35 H35            0.1142    -4.7375    -0.3647 H       
  36 H36            1.6575    -2.8444    -1.6726 H       
  37 H37            0.0658    -2.4724    -0.9390 H       
  38 H38            2.8572    -2.0633     0.2669 H       
@<TRIPOS>BOND
   1    1    2 ar
   2    1    7 1
   3    1    6 ar
   4    2    3 ar
   5    2    9 1
   6    3    4 ar
   7    3   23 1
   8    4    5 ar
   9    4   24 1
  10    5    6 ar
  11    5   10 1
  12    6   25 1
  13    7    8 1
  14    8    9 2
  15    8   16 1
  16    9   22 1
  17   10   11 2
  18   10   12 1
  19   12   26 1
  20   13   14 1
  21   13   17 2
  22   13   27 1
  23   14   15 1
  24   15   16 2
  25   15   28 1
  26   16   17 1
  27   17   29 1
  28   18   19 1
  29   18   22 1
  30   18   30 1
  31   18   31 1
  32   19   20 1
  33   19   32 1
  34   19   33 1
  35   20   21 1
  36   20   34 1
  37   20   35 1
  38   21   22 1
  39   21   36 1
  40   21   37 1
  41   22   38 1

#	End of record

