#	Name: ASD08150221
#	Creating user name:	WinNT
#	Creation time:	15. 06. 2019 21:15

#	Modifying user name:	WinNT
#	Modification time:	15. 06. 2019 21:15

#	Program:	/corina/corina34_cracker 3.40 0067  02.08.2006

@<TRIPOS>MOLECULE
ASD08150221
  55   59    0    0    0
SMALL
NO_CHARGES


@<TRIPOS>ATOM
   1 N1             0.6927     1.0087    -0.0232 N.2     
   2 C2             0.4883    -0.2556     0.1902 C.2     
   3 N3             1.4886    -1.1423     0.4435 N.am    
   4 C4             2.7778    -0.7325     0.4852 C.2     
   5 C5             3.0428     0.6938     0.2476 C.ar    
   6 C6             4.3343     1.2169     0.2692 C.ar    
   7 C7             4.5258     2.5618     0.0402 C.ar    
   8 C8             3.4445     3.3965    -0.2110 C.ar    
   9 C9             2.1609     2.8998    -0.2366 C.ar    
  10 C10            1.9407     1.5399    -0.0076 C.ar    
  11 O11            3.6829    -1.5146     0.7111 O.2     
  12 C12            1.1815    -2.4910     0.6635 C.ar    
  13 C13            0.9705    -2.9549     1.9555 C.ar    
  14 C14            0.5749    -5.1553     1.0982 C.ar    
  15 C15            1.0817    -3.3658    -0.4100 C.ar    
  16 C16            0.6679    -4.2852     2.1691 C.ar    
  17 C17            0.7787    -4.6954    -0.1897 C.ar    
  18 C18            1.0723    -2.0075     3.1231 C.3     
  19 C19           -0.9290    -0.7668     0.1560 C.3     
  20 C20           -1.8988     0.4115     0.2650 C.3     
  21 C21           -3.3326    -0.1148     0.3559 C.3     
  22 N22           -1.1620    -1.4760    -1.1045 N.pl3   
  23 N23           -1.8289    -3.1157    -3.6179 N.2     
  24 C24           -2.3770    -4.0347    -4.3587 C.2     
  25 N25           -3.2018    -4.8125    -3.6017 N.pl3   
  26 C26           -3.1521    -4.3351    -2.3164 C.ar    
  27 N27           -3.7254    -4.6744    -1.1665 N.ar    
  28 C28           -3.4692    -4.0010    -0.0647 C.ar    
  29 N29           -2.6448    -2.9698    -0.0397 N.ar    
  30 C30           -2.0249    -2.5574    -1.1407 C.ar    
  31 C31           -2.2659    -3.2449    -2.3422 C.ar    
  32 C32            5.5127     0.3180     0.5414 C.3     
  33 H33            5.5253     2.9706     0.0566 H       
  34 H34            3.6129     4.4485    -0.3880 H       
  35 H35            1.3279     3.5587    -0.4327 H       
  36 H36            0.3384    -6.1954     1.2679 H       
  37 H37            1.2405    -3.0071    -1.4162 H       
  38 H38            0.5041    -4.6465     3.1736 H       
  39 H39            0.7057    -5.3774    -1.0239 H       
  40 H40            0.0954    -1.5649     3.3180 H       
  41 H41            1.4066    -2.5530     4.0055 H       
  42 H42            1.7883    -1.2194     2.8902 H       
  43 H43           -1.0897    -1.4482     0.9914 H       
  44 H44           -1.6673     0.9912     1.1586 H       
  45 H45           -1.7999     1.0462    -0.6156 H       
  46 H46           -3.5641    -0.6945    -0.5377 H       
  47 H47           -3.4315    -0.7495     1.2365 H       
  48 H48           -4.0235     0.7246     0.4335 H       
  49 H49           -0.7115    -1.1877    -1.9137 H       
  50 H50           -2.2042    -4.1621    -5.4171 H       
  51 H51           -3.7277    -5.5651    -3.9145 H       
  52 H52           -3.9518    -4.3030     0.8531 H       
  53 H53            5.8172    -0.1722    -0.3833 H       
  54 H54            6.3412     0.9119     0.9276 H       
  55 H55            5.2323    -0.4360     1.2770 H       
@<TRIPOS>BOND
   1    1    2 2
   2    1   10 1
   3    2    3 1
   4    2   19 1
   5    3    4 am
   6    3   12 1
   7    4    5 1
   8    4   11 2
   9    5    6 ar
  10    5   10 ar
  11    6    7 ar
  12    6   32 1
  13    7    8 ar
  14    7   33 1
  15    8    9 ar
  16    8   34 1
  17    9   10 ar
  18    9   35 1
  19   12   13 ar
  20   12   15 ar
  21   13   16 ar
  22   13   18 1
  23   14   16 ar
  24   14   17 ar
  25   14   36 1
  26   15   17 ar
  27   15   37 1
  28   16   38 1
  29   17   39 1
  30   18   40 1
  31   18   41 1
  32   18   42 1
  33   19   20 1
  34   19   22 1
  35   19   43 1
  36   20   21 1
  37   20   44 1
  38   20   45 1
  39   21   46 1
  40   21   47 1
  41   21   48 1
  42   22   30 1
  43   22   49 1
  44   23   24 2
  45   23   31 1
  46   24   25 1
  47   24   50 1
  48   25   26 1
  49   25   51 1
  50   26   27 ar
  51   26   31 ar
  52   27   28 ar
  53   28   29 ar
  54   28   52 1
  55   29   30 ar
  56   30   31 ar
  57   32   53 1
  58   32   54 1
  59   32   55 1

#	End of record

