#	Name: ASD06710041
#	Creating user name:	WinNT
#	Creation time:	15. 06. 2019 21:08

#	Modifying user name:	WinNT
#	Modification time:	15. 06. 2019 21:08

#	Program:	/corina/corina34_cracker 3.40 0067  02.08.2006

@<TRIPOS>MOLECULE
ASD06710041
  39   40    0    0    0
SMALL
NO_CHARGES


@<TRIPOS>ATOM
   1 C1            -0.0212     1.5202     0.1328 C.3     
   2 C2            -1.4307    -0.5277    -0.1159 C.3     
   3 C3             2.8494    -0.4650    -2.4328 C.ar    
   4 C4             2.2110    -1.0999    -3.4883 C.ar    
   5 C5             0.8543    -1.3787    -3.4086 C.ar    
   6 C6             0.1425    -1.0235    -2.2792 C.ar    
   7 C7             0.7811    -0.3908    -1.2287 C.ar    
   8 C8             2.1332    -0.1119    -1.3056 C.ar    
   9 C9             0.8857    -1.9651     1.2813 C.ar    
  10 C10            0.6572    -0.6028     1.2200 C.ar    
  11 C11            0.0021    -0.0041     0.0020 C.3     
  12 C12            1.4860    -2.5164     2.3966 C.ar    
  13 C13            1.8597    -1.7020     3.4558 C.ar    
  14 C14            1.6289    -0.3355     3.3920 C.ar    
  15 C15            1.0282     0.2109     2.2744 C.ar    
  16 O16            2.9133    -1.4479    -4.5985 O.3     
  17 O17            2.4500    -2.2420     4.5543 O.3     
  18 C18            2.1909    -2.0986    -5.6457 C.3     
  19 C19            2.8080    -1.3435     5.6062 C.3     
  20 H20            0.9995     1.8932     0.2168 H       
  21 H21           -0.4950     1.9532    -0.7481 H       
  22 H22           -0.5846     1.7999     1.0230 H       
  23 H23           -1.9941    -0.2480     0.7743 H       
  24 H24           -1.9045    -0.0947    -0.9968 H       
  25 H25           -1.4141    -1.6136    -0.2090 H       
  26 H26            3.9064    -0.2509    -2.4906 H       
  27 H27            0.3550    -1.8725    -4.2291 H       
  28 H28           -0.9137    -1.2400    -2.2169 H       
  29 H29            2.6298     0.3821    -0.4835 H       
  30 H30            0.5906    -2.5993     0.4584 H       
  31 H31            1.6640    -3.5806     2.4442 H       
  32 H32            1.9186     0.3005     4.2153 H       
  33 H33            0.8487     1.2747     2.2241 H       
  34 H34            2.8680    -2.3209    -6.4704 H       
  35 H35            1.7610    -3.0264    -5.2683 H       
  36 H36            1.3926    -1.4448    -5.9971 H       
  37 H37            1.9143    -0.8384     5.9725 H       
  38 H38            3.2689    -1.9026     6.4205 H       
  39 H39            3.5140    -0.6042     5.2280 H       
@<TRIPOS>BOND
   1    1   11 1
   2    1   20 1
   3    1   21 1
   4    1   22 1
   5    2   11 1
   6    2   23 1
   7    2   24 1
   8    2   25 1
   9    3    4 ar
  10    3    8 ar
  11    3   26 1
  12    4    5 ar
  13    4   16 1
  14    5    6 ar
  15    5   27 1
  16    6    7 ar
  17    6   28 1
  18    7    8 ar
  19    7   11 1
  20    8   29 1
  21    9   10 ar
  22    9   12 ar
  23    9   30 1
  24   10   11 1
  25   10   15 ar
  26   12   13 ar
  27   12   31 1
  28   13   14 ar
  29   13   17 1
  30   14   15 ar
  31   14   32 1
  32   15   33 1
  33   16   18 1
  34   17   19 1
  35   18   34 1
  36   18   35 1
  37   18   36 1
  38   19   37 1
  39   19   38 1
  40   19   39 1

#	End of record

