#	Name: ASD02030230
#	Creating user name:	WinNT
#	Creation time:	15. 06. 2019 20:14

#	Modifying user name:	WinNT
#	Modification time:	15. 06. 2019 20:14

#	Program:	/corina/corina34_cracker 3.40 0067  02.08.2006

@<TRIPOS>MOLECULE
ASD02030230
  52   56    0    0    0
SMALL
NO_CHARGES


@<TRIPOS>ATOM
   1 N1            -1.8356     2.4133    -1.2808 N.am    
   2 C2            -1.0107     1.2189    -1.0512 C.3     
   3 C3            -0.4571     1.2729     0.3781 C.3     
   4 N4            -1.5656     1.5563     1.3006 N.am    
   5 C5            -2.3905     2.7507     1.0710 C.3     
   6 C6            -2.9405     2.6997    -0.3551 C.3     
   7 C7            -1.5798     3.2345    -2.3185 C.2     
   8 C8            -0.4158     2.9794    -3.1934 C.2     
   9 N9             0.3546     3.8938    -3.7423 N.2     
  10 N10            0.0460     1.7710    -3.5641 N.2     
  11 C11            1.0844     1.9712    -4.3349 C.2     
  12 N12            1.2654     3.3039    -4.4372 N.pl3   
  13 C13            2.2735     3.9396    -5.1746 C.ar    
  14 O14           -2.3063     4.1848    -2.5350 O.2     
  15 C15           -1.8213     0.7352     2.3383 C.2     
  16 C16           -1.1090    -0.5434     2.4556 C.2     
  17 O17           -2.6425     1.0534     3.1779 O.2     
  18 C18            2.3497     5.3254    -5.1973 C.ar    
  19 C19            3.3453     5.9494    -5.9257 C.ar    
  20 C20            4.2646     5.1934    -6.6317 C.ar    
  21 C21            4.1900     3.8128    -6.6106 C.ar    
  22 C22            3.2015     3.1840    -5.8793 C.ar    
  23 C23           -3.5492     2.7743     2.0698 C.3     
  24 C24           -1.7012    -1.7422     2.5123 C.2     
  25 C25           -0.8330    -2.8417     2.6236 C.ar    
  26 C26            0.5143    -2.4616     2.6543 C.ar    
  27 S27            0.6361    -0.7101     2.5333 S.3     
  28 C28           -1.1503    -4.2187     2.7039 C.ar    
  29 C29           -0.1646    -5.1488     2.8090 C.ar    
  30 C30            1.1710    -4.7664     2.8395 C.ar    
  31 C31            1.5110    -3.4374     2.7621 C.ar    
  32 Cl32          -3.4264    -1.9267     2.4529 Cl      
  33 Cl33           3.4421     7.6825    -5.9553 Cl      
  34 H34           -1.6208     0.3239    -1.1736 H       
  35 H35           -0.1852     1.2021    -1.7628 H       
  36 H36           -0.0059     0.3138     0.6321 H       
  37 H37            0.2906     2.0627     0.4512 H       
  38 H38           -1.7804     3.6457     1.1934 H       
  39 H39           -3.3915     3.6593    -0.6078 H       
  40 H40           -3.6881     1.9101    -0.4308 H       
  41 H41            1.6889     1.2076    -4.8019 H       
  42 H42            1.6318     5.9154    -4.6469 H       
  43 H43            5.0415     5.6826    -7.2004 H       
  44 H44            4.9084     3.2254    -7.1631 H       
  45 H45            3.1444     2.1057    -5.8632 H       
  46 H46           -3.1587     2.9296     3.0756 H       
  47 H47           -4.2315     3.5855     1.8157 H       
  48 H48           -4.0828     1.8247     2.0298 H       
  49 H49           -2.1834    -4.5328     2.6819 H       
  50 H50           -0.4222    -6.1959     2.8697 H       
  51 H51            1.9440    -5.5160     2.9237 H       
  52 H52            2.5504    -3.1452     2.7859 H       
@<TRIPOS>BOND
   1    1    2 1
   2    1    7 am
   3    1    6 1
   4    2    3 1
   5    2   34 1
   6    2   35 1
   7    3    4 1
   8    3   36 1
   9    3   37 1
  10    4    5 1
  11    4   15 am
  12    5    6 1
  13    5   23 1
  14    5   38 1
  15    6   39 1
  16    6   40 1
  17    7    8 1
  18    7   14 2
  19    8    9 2
  20    8   10 1
  21    9   12 1
  22   10   11 2
  23   11   12 1
  24   11   41 1
  25   12   13 1
  26   13   18 ar
  27   13   22 ar
  28   15   16 1
  29   15   17 2
  30   16   24 2
  31   16   27 1
  32   18   19 ar
  33   18   42 1
  34   19   20 ar
  35   19   33 1
  36   20   21 ar
  37   20   43 1
  38   21   22 ar
  39   21   44 1
  40   22   45 1
  41   23   46 1
  42   23   47 1
  43   23   48 1
  44   24   25 1
  45   24   32 1
  46   25   26 ar
  47   25   28 ar
  48   26   27 1
  49   26   31 ar
  50   28   29 ar
  51   28   49 1
  52   29   30 ar
  53   29   50 1
  54   30   31 ar
  55   30   51 1
  56   31   52 1

#	End of record

