#	Name: ASD01900066
#	Creating user name:	WinNT
#	Creation time:	15. 06. 2019 19:51

#	Modifying user name:	WinNT
#	Modification time:	15. 06. 2019 19:51

#	Program:	/corina/corina34_cracker 3.40 0067  02.08.2006

@<TRIPOS>MOLECULE
ASD01900066
  34   35    0    0    0
SMALL
NO_CHARGES


@<TRIPOS>ATOM
   1 C1             0.0630     1.2508    -0.5813 C.ar    
   2 C2             0.0024    -0.0046     0.0090 C.ar    
   3 C3             1.1364    -0.5474     0.5986 C.ar    
   4 C4             2.3223     0.1629     0.5966 C.ar    
   5 C5             2.3799     1.4140     0.0080 C.ar    
   6 C6             1.2514     1.9569    -0.5807 C.ar    
   7 Cl7            1.3280     3.5265    -1.3185 Cl      
   8 Cl8            3.7405    -0.5149     1.3335 Cl      
   9 N9            -1.1993    -0.7213     0.0101 N.am    
  10 C10           -1.1830    -2.0645    -0.0990 C.2     
  11 C11           -2.4658    -2.8460     0.0226 C.3     
  12 O12           -0.1359    -2.6444    -0.2951 O.2     
  13 C13           -3.4410    -2.3985    -1.0680 C.3     
  14 C14           -2.8190    -2.6501    -2.4430 C.3     
  15 C15           -2.5240    -4.1427    -2.6039 C.3     
  16 C16           -1.5487    -4.5903    -1.5133 C.3     
  17 C17           -2.1708    -4.3387    -0.1382 C.3     
  18 C18           -1.2102    -4.7796     0.9360 C.2     
  19 O19           -0.1283    -5.2513     0.6301 O.co2   
  20 O20           -1.5149    -4.6645     2.1109 O.co2   
  21 H21           -0.8164     1.6732    -1.0445 H       
  22 H22            1.0918    -1.5235     1.0587 H       
  23 H23            3.3072     1.9676     0.0081 H       
  24 H24           -2.0442    -0.2514     0.0894 H       
  25 H25           -2.9089    -2.6668     1.0022 H       
  26 H26           -4.3688    -2.9637    -0.9800 H       
  27 H27           -3.6512    -1.3351    -0.9533 H       
  28 H28           -3.5138    -2.3312    -3.2199 H       
  29 H29           -1.8912    -2.0848    -2.5310 H       
  30 H30           -3.4518    -4.7080    -2.5159 H       
  31 H31           -2.0808    -4.3220    -3.5834 H       
  32 H32           -1.3386    -5.6537    -1.6279 H       
  33 H33           -0.6209    -4.0251    -1.6012 H       
  34 H34           -3.0986    -4.9040    -0.0503 H       
@<TRIPOS>BOND
   1    1    2 ar
   2    1    6 ar
   3    1   21 1
   4    2    3 ar
   5    2    9 1
   6    3    4 ar
   7    3   22 1
   8    4    5 ar
   9    4    8 1
  10    5    6 ar
  11    5   23 1
  12    6    7 1
  13    9   10 am
  14    9   24 1
  15   10   12 2
  16   10   11 1
  17   11   13 1
  18   11   17 1
  19   11   25 1
  20   13   14 1
  21   13   26 1
  22   13   27 1
  23   14   15 1
  24   14   28 1
  25   14   29 1
  26   15   16 1
  27   15   30 1
  28   15   31 1
  29   16   17 1
  30   16   32 1
  31   16   33 1
  32   17   18 1
  33   17   34 1
  34   18   19 ar
  35   18   20 ar

#	End of record

