#	Name: ASD08150131
#	Creating user name:	WinNT
#	Creation time:	15. 06. 2019 21:15

#	Modifying user name:	WinNT
#	Modification time:	15. 06. 2019 21:15

#	Program:	/corina/corina34_cracker 3.40 0067  02.08.2006

@<TRIPOS>MOLECULE
ASD08150131
  50   54    0    0    0
SMALL
NO_CHARGES


@<TRIPOS>ATOM
   1 O1            -0.0161     1.3326     0.0094 O.3     
   2 C2             0.0021    -0.0041     0.0020 C.2     
   3 N3             1.2335    -0.5302    -0.0132 N.am    
   4 C4             2.2214     0.5579    -0.0179 C.3     
   5 C5             1.3476     1.8421    -0.0009 C.3     
   6 O6             2.9632     1.9788     1.7274 O.3     
   7 C7             2.9499     0.5870     1.3432 C.3     
   8 C8             1.6596     2.4848     1.3679 C.3     
   9 O9            -1.0072    -0.6804     0.0086 O.2     
  10 C10            3.0831    -3.5955     0.0536 C.ar    
  11 N11            2.1428    -4.5226    -0.0391 N.ar    
  12 C12            0.8568    -4.1831    -0.1278 C.ar    
  13 C13            0.5111    -2.8323    -0.1217 C.ar    
  14 C14            1.5301    -1.8889    -0.0227 C.ar    
  15 N15            2.7905    -2.3037     0.0623 N.ar    
  16 C16           -2.0854    -7.1143    -0.4191 C.ar    
  17 N17           -0.8148    -7.4833    -0.3327 N.ar    
  18 C18            0.1473    -6.5834    -0.2391 C.ar    
  19 C19           -0.1907    -5.2267    -0.2318 C.ar    
  20 C20           -1.5415    -4.8795    -0.3247 C.ar    
  21 N21           -2.4453    -5.8385    -0.4155 N.ar    
  22 C22            1.5885    -7.0127    -0.1408 C.3     
  23 F23            1.6720    -8.4020    -0.2828 F       
  24 F24            2.3292    -6.3951    -1.1543 F       
  25 F25            2.1023    -6.6396     1.1058 F       
  26 O26            6.6076    -5.2625     1.3407 O.3     
  27 C27            6.0071    -5.8386     0.1775 C.3     
  28 C28            4.5266    -5.4518     0.1295 C.3     
  29 N29            4.4072    -3.9867     0.1498 N.3     
  30 C30            5.0348    -3.4296     1.3569 C.3     
  31 C31            6.5102    -3.8366     1.3926 C.3     
  32 N32           -3.0617    -8.0872    -0.5215 N.pl3   
  33 H33            2.8982     0.5124    -0.8711 H       
  34 H34            1.5454     2.5036    -0.8443 H       
  35 H35            2.4036    -0.0040     2.0783 H       
  36 H36            3.9683     0.2134     1.2362 H       
  37 H37            1.6855     3.5709     1.2797 H       
  38 H38            0.9181     2.1813     2.1070 H       
  39 H39           -0.5220    -2.5254    -0.1924 H       
  40 H40           -1.8419    -3.8421    -0.3226 H       
  41 H41            6.5100    -5.4652    -0.7146 H       
  42 H42            6.0986    -6.9239     0.2203 H       
  43 H43            4.0782    -5.8409    -0.7847 H       
  44 H44            4.0127    -5.8709     0.9946 H       
  45 H45            4.9575    -2.3425     1.3387 H       
  46 H46            4.5290    -3.8164     2.2416 H       
  47 H47            6.9656    -3.4741     2.3142 H       
  48 H48            7.0277    -3.4050     0.5359 H       
  49 H49           -2.8132    -9.0248    -0.5294 H       
  50 H50           -3.9955    -7.8324    -0.5855 H       
@<TRIPOS>BOND
   1    1    2 1
   2    1    5 1
   3    2    3 am
   4    2    9 2
   5    3    4 1
   6    3   14 1
   7    4    5 1
   8    4    7 1
   9    4   33 1
  10    5    8 1
  11    5   34 1
  12    6    7 1
  13    6    8 1
  14    7   35 1
  15    7   36 1
  16    8   37 1
  17    8   38 1
  18   10   11 ar
  19   10   15 ar
  20   10   29 1
  21   11   12 ar
  22   12   13 ar
  23   12   19 1
  24   13   14 ar
  25   13   39 1
  26   14   15 ar
  27   16   17 ar
  28   16   21 ar
  29   16   32 1
  30   17   18 ar
  31   18   19 ar
  32   18   22 1
  33   19   20 ar
  34   20   21 ar
  35   20   40 1
  36   22   23 1
  37   22   24 1
  38   22   25 1
  39   26   27 1
  40   26   31 1
  41   27   28 1
  42   27   41 1
  43   27   42 1
  44   28   29 1
  45   28   43 1
  46   28   44 1
  47   29   30 1
  48   30   31 1
  49   30   45 1
  50   30   46 1
  51   31   47 1
  52   31   48 1
  53   32   49 1
  54   32   50 1

#	End of record

