#	Name: ASD00110038
#	Creating user name:	WinNT
#	Creation time:	15. 06. 2019 18:30

#	Modifying user name:	WinNT
#	Modification time:	15. 06. 2019 18:30

#	Program:	/corina/corina34_cracker 3.40 0067  02.08.2006

@<TRIPOS>MOLECULE
ASD00110038
  58   60    0    0    0
SMALL
NO_CHARGES


@<TRIPOS>ATOM
   1 C1            -0.0187     1.5270     0.0104 C.3     
   2 C2            -1.4347    -0.5286    -0.0486 C.3     
   3 C3            -1.4185    -2.0352    -0.0770 C.2     
   4 N4            -1.2400    -2.7289     1.0647 N.am    
   5 O5            -1.5661    -2.6236    -1.1272 O.2     
   6 C6            -1.2243    -4.1935     1.0371 C.3     
   7 C7             0.1841    -4.6820     0.6927 C.3     
   8 O8             1.0851    -4.3139     1.7390 O.3     
   9 C9            -1.6300    -4.7339     2.4098 C.3     
  10 O10           -0.7089    -4.2661     3.3971 O.3     
  11 C11            1.4162     2.0578    -0.0004 C.3     
  12 N12           -2.0992    -0.0236    -1.2568 N.3     
  13 C13           -2.1732     1.4430    -1.2485 C.3     
  14 C14           -0.7585     2.0264    -1.2337 C.3     
  15 C15            0.0021    -0.0041     0.0020 C.3     
  16 C16           -3.0173    -4.2527     2.7491 C.ar    
  17 C17           -5.5622    -3.3703     3.3720 C.ar    
  18 C18           -4.4782    -2.5294     3.5417 C.ar    
  19 C19           -3.2057    -2.9707     3.2305 C.ar    
  20 C20           -4.1019    -5.0915     2.5735 C.ar    
  21 C21           -5.3744    -4.6502     2.8848 C.ar    
  22 C22            1.3941     3.5877     0.0080 C.3     
  23 C23            2.8290     4.1185    -0.0028 C.3     
  24 C24            3.5694     3.6123     1.2367 C.3     
  25 C25            3.5916     2.0825     1.2283 C.3     
  26 C26            2.1567     1.5517     1.2391 C.3     
  27 H27           -0.5307     1.8794     0.9058 H       
  28 H28           -1.9769    -0.1878     0.8335 H       
  29 H29           -1.1220    -2.2583     1.9047 H       
  30 H30           -1.9269    -4.5503     0.2840 H       
  31 H31            0.1763    -5.7666     0.5848 H       
  32 H32            0.5081    -4.2262    -0.2429 H       
  33 H33            1.9987    -4.5922     1.5873 H       
  34 H34           -1.6183    -5.8236     2.3893 H       
  35 H35           -0.6667    -3.3029     3.4707 H       
  36 H36            1.9267     1.7068    -0.8972 H       
  37 H37           -1.6379    -0.3576    -2.0897 H       
  38 H38           -2.6979     1.7852    -2.1405 H       
  39 H39           -2.7120     1.7744    -0.3608 H       
  40 H40           -0.8139     3.1148    -1.2117 H       
  41 H41           -0.2236     1.7066    -2.1280 H       
  42 H42            0.5489    -0.3558    -0.8728 H       
  43 H43            0.4901    -0.3664     0.9068 H       
  44 H44           -6.5564    -3.0255     3.6151 H       
  45 H45           -4.6249    -1.5294     3.9223 H       
  46 H46           -2.3587    -2.3140     3.3638 H       
  47 H47           -3.9552    -6.0915     2.1929 H       
  48 H48           -6.2213    -5.3072     2.7522 H       
  49 H49            0.8666     3.9483    -0.8750 H       
  50 H50            0.8836     3.9387     0.9048 H       
  51 H51            3.3395     3.7675    -0.8996 H       
  52 H52            2.8132     5.2084     0.0032 H       
  53 H53            4.5917     3.9906     1.2290 H       
  54 H54            3.0589     3.9634     2.1335 H       
  55 H55            4.1021     1.7315     0.3315 H       
  56 H56            4.1191     1.7219     2.1113 H       
  57 H57            1.6461     1.9027     2.1359 H       
  58 H58            2.1724     0.4618     1.2331 H       
@<TRIPOS>BOND
   1    1   15 1
   2    1   11 1
   3    1   14 1
   4    1   27 1
   5    2    3 1
   6    2   12 1
   7    2   15 1
   8    2   28 1
   9    3    4 am
  10    3    5 2
  11    4    6 1
  12    4   29 1
  13    6    7 1
  14    6    9 1
  15    6   30 1
  16    7    8 1
  17    7   31 1
  18    7   32 1
  19    8   33 1
  20    9   10 1
  21    9   16 1
  22    9   34 1
  23   10   35 1
  24   11   22 1
  25   11   26 1
  26   11   36 1
  27   12   13 1
  28   12   37 1
  29   13   14 1
  30   13   38 1
  31   13   39 1
  32   14   40 1
  33   14   41 1
  34   15   42 1
  35   15   43 1
  36   16   20 ar
  37   16   19 ar
  38   17   18 ar
  39   17   21 ar
  40   17   44 1
  41   18   19 ar
  42   18   45 1
  43   19   46 1
  44   20   21 ar
  45   20   47 1
  46   21   48 1
  47   22   23 1
  48   22   49 1
  49   22   50 1
  50   23   24 1
  51   23   51 1
  52   23   52 1
  53   24   25 1
  54   24   53 1
  55   24   54 1
  56   25   26 1
  57   25   55 1
  58   25   56 1
  59   26   57 1
  60   26   58 1

#	End of record

