#	Name: ASD03731640
#	Creating user name:	WinNT
#	Creation time:	15. 06. 2019 20:46

#	Modifying user name:	WinNT
#	Modification time:	15. 06. 2019 20:46

#	Program:	/corina/corina34_cracker 3.40 0067  02.08.2006

@<TRIPOS>MOLECULE
ASD03731640
  33   34    0    0    0
SMALL
NO_CHARGES


@<TRIPOS>ATOM
   1 C1            -0.4031     1.1036    -1.9606 C.2     
   2 C2            -0.2819    -0.2744    -1.4502 C.ar    
   3 C3             0.9017    -0.9949    -1.6485 C.ar    
   4 C4             1.0105    -2.2846    -1.1683 C.ar    
   5 C5            -0.0518    -2.8666    -0.4898 C.ar    
   6 C6            -1.2312    -2.1533    -0.2909 C.ar    
   7 C7            -1.3468    -0.8633    -0.7616 C.ar    
   8 O8             0.5260     1.6158    -2.5548 O.2     
   9 N9            -1.5457     1.7935    -1.7734 N.am    
  10 S10           -1.6818     3.3412    -2.3467 S.o2    
  11 O11           -2.9839     3.7487    -1.9497 O.2     
  12 O12           -0.5248     4.0012    -1.8517 O.2     
  13 C13           -1.5919     3.1655    -4.1499 C.3     
  14 F14           -2.2619    -2.7251     0.3693 F       
  15 F15            1.9357    -0.4294    -2.3090 F       
  16 O16            0.0593    -4.1350    -0.0193 O.3     
  17 C17            1.2617    -4.7566    -0.1387 C.ar    
  18 C18            2.2131    -4.6273     0.8629 C.ar    
  19 C19            3.4359    -5.2606     0.7394 C.ar    
  20 C20            3.7113    -6.0226    -0.3822 C.ar    
  21 C21            2.7641    -6.1525    -1.3824 C.ar    
  22 C22            1.5375    -5.5262    -1.2597 C.ar    
  23 Cl23           3.1129    -7.1087    -2.7886 Cl      
  24 Cl24           4.6267    -5.0991     1.9923 Cl      
  25 H25            1.9230    -2.8417    -1.3209 H       
  26 H26           -2.2602    -0.3095    -0.6025 H       
  27 H27           -2.2882     1.3835    -1.3029 H       
  28 H28           -2.4083     2.5307    -4.4943 H       
  29 H29           -1.6742     4.1477    -4.6152 H       
  30 H30           -0.6391     2.7125    -4.4238 H       
  31 H31            1.9987    -4.0320     1.7382 H       
  32 H32            4.6671    -6.5163    -0.4773 H       
  33 H33            0.7965    -5.6320    -2.0382 H       
@<TRIPOS>BOND
   1    1    2 1
   2    1    8 2
   3    1    9 am
   4    2    3 ar
   5    2    7 ar
   6    3    4 ar
   7    3   15 1
   8    4    5 ar
   9    4   25 1
  10    5    6 ar
  11    5   16 1
  12    6    7 ar
  13    6   14 1
  14    7   26 1
  15    9   10 am
  16    9   27 1
  17   10   11 2
  18   10   12 2
  19   10   13 1
  20   13   28 1
  21   13   29 1
  22   13   30 1
  23   16   17 1
  24   17   18 ar
  25   17   22 ar
  26   18   19 ar
  27   18   31 1
  28   19   20 ar
  29   19   24 1
  30   20   21 ar
  31   20   32 1
  32   21   22 ar
  33   21   23 1
  34   22   33 1

#	End of record

