#	Name: ASD01148800
#	Creating user name:	WinNT
#	Creation time:	15. 06. 2019 19:03

#	Modifying user name:	WinNT
#	Modification time:	15. 06. 2019 19:03

#	Program:	/corina/corina34_cracker 3.40 0067  02.08.2006

@<TRIPOS>MOLECULE
ASD01148800
  67   70    0    0    0
SMALL
NO_CHARGES


@<TRIPOS>ATOM
   1 N1             0.4726     3.2270    -0.7352 N.pl3   
   2 C2            -0.0013     1.9825    -0.9788 C.2     
   3 C3             0.9870     1.0652    -0.6966 C.2     
   4 C4             2.1534     1.8413    -0.2439 C.2     
   5 C5             1.7700     3.1671    -0.2910 C.2     
   6 C6             0.8951    -0.3965    -0.8219 C.2     
   7 O7             1.2003    -0.9374    -1.8669 O.2     
   8 O8             0.4725    -1.1373     0.2221 O.3     
   9 C9            -0.2563     4.4095    -0.9165 C.ar    
  10 C10           -1.3266     4.7020    -0.0816 C.ar    
  11 C11           -2.0433     5.8686    -0.2629 C.ar    
  12 C12           -1.6960     6.7450    -1.2746 C.ar    
  13 C13           -0.6306     6.4566    -2.1076 C.ar    
  14 C14            0.0936     5.2943    -1.9278 C.ar    
  15 S15           -2.6132     8.2320    -1.5030 S.o2    
  16 O16           -2.4215     8.6176    -2.8572 O.2     
  17 O17           -3.8951     8.0042    -0.9337 O.2     
  18 N18           -1.8914     9.4002    -0.5775 N.am    
  19 C19           -1.3848     1.6541    -1.4777 C.3     
  20 C20            3.4692     1.3088     0.1763 C.ar    
  21 C21            4.3001     0.6880    -0.7536 C.ar    
  22 C22            5.5369     0.1895    -0.3500 C.ar    
  23 C23            5.9357     0.3150     0.9827 C.ar    
  24 C24            5.1069     0.9309     1.8991 C.ar    
  25 C25            3.8824     1.4327     1.5039 C.ar    
  26 C26            6.4252    -0.4713    -1.3302 C.2     
  27 N27            7.7501    -0.2248    -1.3123 N.am    
  28 O28            5.9604    -1.2368    -2.1521 O.2     
  29 C29            8.6171    -0.8054    -2.3406 C.3     
  30 C30            8.3232     0.6237    -0.2646 C.3     
  31 C31            2.6125     4.3234     0.0739 C.ar    
  32 C32            2.1437     5.2732     0.9842 C.ar    
  33 C33            2.9357     6.3507     1.3212 C.ar    
  34 C34            4.1933     6.4924     0.7587 C.ar    
  35 C35            4.6639     5.5541    -0.1446 C.ar    
  36 C36            3.8840     4.4689    -0.4855 C.ar    
  37 Cl37           5.1836     7.8522     1.1872 Cl      
  38 C38            0.4066    -2.5746     0.0268 C.3     
  39 C39           -0.0908    -3.2415     1.3109 C.3     
  40 H40           -1.5986     4.0177     0.7085 H       
  41 H41           -2.8761     6.0965     0.3859 H       
  42 H42           -0.3620     7.1428    -2.8971 H       
  43 H43            0.9286     5.0719    -2.5757 H       
  44 H44           -1.9271    10.3292    -0.8544 H       
  45 H45           -1.4329     9.1556     0.2415 H       
  46 H46           -1.3836     1.6373    -2.5676 H       
  47 H47           -1.6849     0.6768    -1.0996 H       
  48 H48           -2.0867     2.4106    -1.1268 H       
  49 H49            3.9868     0.5933    -1.7828 H       
  50 H50            6.8941    -0.0709     1.2971 H       
  51 H51            5.4195     1.0249     2.9286 H       
  52 H52            3.2408     1.9177     2.2247 H       
  53 H53            8.6860    -0.1213    -3.1864 H       
  54 H54            9.6113    -0.9719    -1.9260 H       
  55 H55            8.1990    -1.7551    -2.6746 H       
  56 H56            8.6296     0.0037     0.5779 H       
  57 H57            9.1898     1.1536    -0.6598 H       
  58 H58            7.5766     1.3451     0.0676 H       
  59 H59            1.1629     5.1642     1.4230 H       
  60 H60            2.5743     7.0859     2.0250 H       
  61 H61            5.6455     5.6701    -0.5798 H       
  62 H62            4.2539     3.7355    -1.1867 H       
  63 H63           -0.2804    -2.7993    -0.7890 H       
  64 H64            1.3986    -2.9537    -0.2187 H       
  65 H65            0.5962    -3.0167     2.1267 H       
  66 H66           -1.0828    -2.8623     1.5564 H       
  67 H67           -0.1402    -4.3204     1.1643 H       
@<TRIPOS>BOND
   1    1    2 1
   2    1    5 1
   3    1    9 1
   4    2    3 2
   5    2   19 1
   6    3    4 1
   7    3    6 1
   8    4    5 2
   9    4   20 1
  10    5   31 1
  11    6    7 2
  12    6    8 1
  13    8   38 1
  14    9   10 ar
  15    9   14 ar
  16   10   11 ar
  17   10   40 1
  18   11   12 ar
  19   11   41 1
  20   12   13 ar
  21   12   15 1
  22   13   14 ar
  23   13   42 1
  24   14   43 1
  25   15   16 2
  26   15   17 2
  27   15   18 am
  28   18   44 1
  29   18   45 1
  30   19   46 1
  31   19   47 1
  32   19   48 1
  33   20   21 ar
  34   20   25 ar
  35   21   22 ar
  36   21   49 1
  37   22   23 ar
  38   22   26 1
  39   23   24 ar
  40   23   50 1
  41   24   25 ar
  42   24   51 1
  43   25   52 1
  44   26   27 am
  45   26   28 2
  46   27   29 1
  47   27   30 1
  48   29   53 1
  49   29   54 1
  50   29   55 1
  51   30   56 1
  52   30   57 1
  53   30   58 1
  54   31   32 ar
  55   31   36 ar
  56   32   33 ar
  57   32   59 1
  58   33   34 ar
  59   33   60 1
  60   34   35 ar
  61   34   37 1
  62   35   36 ar
  63   35   61 1
  64   36   62 1
  65   38   39 1
  66   38   63 1
  67   38   64 1
  68   39   65 1
  69   39   66 1
  70   39   67 1

#	End of record

