#	Name: ASD04591078
#	Creating user name:	WinNT
#	Creation time:	15. 06. 2019 20:52

#	Modifying user name:	WinNT
#	Modification time:	15. 06. 2019 20:52

#	Program:	/corina/corina34_cracker 3.40 0067  02.08.2006

@<TRIPOS>MOLECULE
ASD04591078
  73   79    0    0    0
SMALL
NO_CHARGES


@<TRIPOS>ATOM
   1 N1            -2.3782    -2.7058     0.0195 N.ar    
   2 C2            -1.2116    -2.0737     0.0036 C.ar    
   3 N3            -0.0572    -2.7201    -0.0183 N.ar    
   4 C4            -0.0258    -4.0494    -0.0249 C.ar    
   5 C5            -1.2485    -4.7504    -0.0081 C.ar    
   6 C6            -2.4369    -4.0273     0.0144 C.ar    
   7 N7             0.9981    -4.9637    -0.0460 N.pl3   
   8 C8             0.4951    -6.2533    -0.0436 C.ar    
   9 C9            -0.9091    -6.1790    -0.0202 C.ar    
  10 C10            1.0916    -7.5074    -0.0596 C.ar    
  11 N11            0.3554    -8.5999    -0.0533 N.ar    
  12 C12           -0.9653    -8.5647    -0.0314 C.ar    
  13 C13           -1.6434    -7.3643    -0.0131 C.ar    
  14 N14           -1.2019    -0.6887     0.0098 N.pl3   
  15 C15           -2.4016     0.0177    -0.0802 C.ar    
  16 N16           -3.5391    -0.6295    -0.2720 N.ar    
  17 N17           -4.6655    -0.0208    -0.3610 N.ar    
  18 C18           -4.7646     1.2952    -0.2669 C.ar    
  19 C19           -3.6184     2.0654    -0.0641 C.ar    
  20 C20           -2.4049     1.4084     0.0375 C.ar    
  21 N21           -6.0101     1.9108    -0.3704 N.3     
  22 C22            2.4227    -4.6225    -0.0683 C.3     
  23 C23           -6.2862     2.7414     0.8087 C.3     
  24 C24            2.7460    -3.7909    -1.3219 C.3     
  25 C25            3.2825    -2.4331    -0.8238 C.3     
  26 C26            3.8152    -2.7341     0.5992 C.3     
  27 C27            2.7741    -3.7410     1.1480 C.3     
  28 C28           -7.0718     0.9183    -0.5811 C.3     
  29 C29           -8.3995     1.6358    -0.8349 C.3     
  30 C30           -8.7341     2.5207     0.3691 C.3     
  31 C31           -7.5905     3.5133     0.5964 C.3     
  32 N32           -9.9780     3.2567     0.1067 N.3     
  33 C33          -11.0759     2.3364    -0.2161 C.3     
  34 C34          -12.3829     3.1229    -0.3396 C.3     
  35 C35          -12.2361     4.1778    -1.4397 C.3     
  36 C36          -11.0559     5.0935    -1.1036 C.3     
  37 C37           -9.7873     4.2499    -0.9579 C.3     
  38 O38          -10.8773     6.0463    -2.1535 O.3     
  39 H39           -3.3897    -4.5355     0.0273 H       
  40 H40            2.1685    -7.5878    -0.0777 H       
  41 H41           -1.5221    -9.4901    -0.0272 H       
  42 H42           -2.7231    -7.3426     0.0047 H       
  43 H43           -0.3610    -0.2099     0.0768 H       
  44 H44           -3.6773     3.1409     0.0151 H       
  45 H45           -1.4872     1.9557     0.1945 H       
  46 H46            3.0242    -5.5315    -0.0578 H       
  47 H47           -6.3803     2.1041     1.6879 H       
  48 H48           -5.4675     3.4456     0.9566 H       
  49 H49            3.5050    -4.2958    -1.9194 H       
  50 H50            1.8429    -3.6412    -1.9137 H       
  51 H51            4.0896    -2.0826    -1.4670 H       
  52 H52            2.4793    -1.6974    -0.7827 H       
  53 H53            4.8049    -3.1884     0.5530 H       
  54 H54            3.8327    -1.8280     1.2048 H       
  55 H55            1.8888    -3.2165     1.5075 H       
  56 H56            3.2102    -4.3451     1.9436 H       
  57 H57           -6.8235     0.2983    -1.4426 H       
  58 H58           -7.1622     0.2896     0.3046 H       
  59 H59           -8.3141     2.2541    -1.7285 H       
  60 H60           -9.1902     0.8989    -0.9757 H       
  61 H61           -8.8579     1.8984     1.2554 H       
  62 H62           -7.8033     4.1178     1.4782 H       
  63 H63           -7.4924     4.1611    -0.2746 H       
  64 H64          -10.8634     1.8346    -1.1600 H       
  65 H65          -11.1723     1.5940     0.5762 H       
  66 H66          -13.1948     2.4417    -0.5945 H       
  67 H67          -12.6032     3.6138     0.6083 H       
  68 H68          -12.0545     3.6851    -2.3949 H       
  69 H69          -13.1498     4.7690    -1.5017 H       
  70 H70          -11.2553     5.6155    -0.1677 H       
  71 H71           -8.9478     4.8973    -0.7046 H       
  72 H72           -9.5809     3.7391    -1.8984 H       
  73 H73          -11.6452     6.6145    -2.3038 H       
@<TRIPOS>BOND
   1    1    2 ar
   2    1    6 ar
   3    2    3 ar
   4    2   14 1
   5    3    4 ar
   6    4    5 ar
   7    4    7 1
   8    5    6 ar
   9    5    9 1
  10    6   39 1
  11    7    8 1
  12    7   22 1
  13    8    9 ar
  14    8   10 ar
  15    9   13 ar
  16   10   11 ar
  17   10   40 1
  18   11   12 ar
  19   12   13 ar
  20   12   41 1
  21   13   42 1
  22   14   15 1
  23   14   43 1
  24   15   16 ar
  25   15   20 ar
  26   16   17 ar
  27   17   18 ar
  28   18   19 ar
  29   18   21 1
  30   19   20 ar
  31   19   44 1
  32   20   45 1
  33   21   28 1
  34   21   23 1
  35   22   24 1
  36   22   27 1
  37   22   46 1
  38   23   31 1
  39   23   47 1
  40   23   48 1
  41   24   25 1
  42   24   49 1
  43   24   50 1
  44   25   26 1
  45   25   51 1
  46   25   52 1
  47   26   27 1
  48   26   53 1
  49   26   54 1
  50   27   55 1
  51   27   56 1
  52   28   29 1
  53   28   57 1
  54   28   58 1
  55   29   30 1
  56   29   59 1
  57   29   60 1
  58   30   31 1
  59   30   32 1
  60   30   61 1
  61   31   62 1
  62   31   63 1
  63   32   33 1
  64   32   37 1
  65   33   34 1
  66   33   64 1
  67   33   65 1
  68   34   35 1
  69   34   66 1
  70   34   67 1
  71   35   36 1
  72   35   68 1
  73   35   69 1
  74   36   37 1
  75   36   38 1
  76   36   70 1
  77   37   71 1
  78   37   72 1
  79   38   73 1

#	End of record

