#	Name: ASD02198133
#	Creating user name:	WinNT
#	Creation time:	15. 06. 2019 20:18

#	Modifying user name:	WinNT
#	Modification time:	15. 06. 2019 20:18

#	Program:	/corina/corina34_cracker 3.40 0067  02.08.2006

@<TRIPOS>MOLECULE
ASD02198133
  49   52    0    0    0
SMALL
NO_CHARGES


@<TRIPOS>ATOM
   1 C1             0.1004     1.8835    -1.1591 C.2     
   2 C2             0.7344     1.0695    -2.0735 C.2     
   3 C3             0.0276     0.2229    -2.9870 C.1     
   4 S4             1.2353     2.7540    -0.2311 S.3     
   5 C5             2.5883     2.0201    -1.0771 C.2     
   6 C6             2.1254     1.1451    -2.0286 C.2     
   7 C7             3.9478     2.2901    -0.8181 C.2     
   8 C8             4.3213     3.3858     0.0974 C.2     
   9 O9             4.8152     1.6180    -1.3508 O.2     
  10 N10            2.9576     0.4103    -2.8601 N.pl3   
  11 N11           -1.2647     1.9843    -1.0183 N.pl3   
  12 N12           -0.5330    -0.4487    -3.7116 N.1     
  13 C13            4.5951     3.3225     1.4392 C.2     
  14 C14           -1.8067     2.7885    -0.0092 C.ar    
  15 C15           -3.0244     3.4263    -0.2077 C.ar    
  16 O16            4.8825     4.5678     1.8287 O.3     
  17 N17            4.8254     5.3742     0.9329 N.2     
  18 C18            4.4986     4.8204    -0.2074 C.2     
  19 C19            4.3327     5.4904    -1.5202 C.ar    
  20 C20           -3.5583     4.2196     0.7884 C.ar    
  21 C21           -2.8786     4.3801     1.9870 C.ar    
  22 C22           -1.6620     3.7439     2.1860 C.ar    
  23 C23           -1.1298     2.9448     1.1935 C.ar    
  24 C24            3.8113     6.7812    -1.5858 C.ar    
  25 C25            3.6595     7.3999    -2.8101 C.ar    
  26 C26            4.0235     6.7412    -3.9707 C.ar    
  27 C27            4.5416     5.4600    -3.9116 C.ar    
  28 C28            4.7031     4.8337    -2.6924 C.ar    
  29 C29            4.5756     2.0895     2.3054 C.3     
  30 O30           -3.4049     5.1619     2.9672 O.3     
  31 C31           -2.6514     5.2826     4.1754 C.3     
  32 H32            3.9205     0.5012    -2.7857 H       
  33 H33            2.5768    -0.1944    -3.5160 H       
  34 H34           -1.8514     1.4979    -1.6184 H       
  35 H35           -3.5534     3.3020    -1.1411 H       
  36 H36           -4.5052     4.7156     0.6342 H       
  37 H37           -1.1333     3.8697     3.1193 H       
  38 H38           -0.1829     2.4493     1.3487 H       
  39 H39            3.5261     7.2962    -0.6803 H       
  40 H40            3.2556     8.4002    -2.8621 H       
  41 H41            3.9024     7.2289    -4.9267 H       
  42 H42            4.8238     4.9502    -4.8209 H       
  43 H43            5.1078     3.8334    -2.6474 H       
  44 H44            5.5800     1.6700     2.3629 H       
  45 H45            4.2346     2.3540     3.3063 H       
  46 H46            3.8983     1.3527     1.8736 H       
  47 H47           -2.5233     4.2974     4.6237 H       
  48 H48           -1.6739     5.7104     3.9528 H       
  49 H49           -3.1823     5.9322     4.8713 H       
@<TRIPOS>BOND
   1    1    2 2
   2    1    4 1
   3    1   11 1
   4    2    3 1
   5    2    6 1
   6    3   12 3
   7    4    5 1
   8    5    6 2
   9    5    7 1
  10    6   10 1
  11    7    8 1
  12    7    9 2
  13    8   13 2
  14    8   18 1
  15   10   32 1
  16   10   33 1
  17   11   14 1
  18   11   34 1
  19   13   16 1
  20   13   29 1
  21   14   15 ar
  22   14   23 ar
  23   15   20 ar
  24   15   35 1
  25   16   17 1
  26   17   18 2
  27   18   19 1
  28   19   24 ar
  29   19   28 ar
  30   20   21 ar
  31   20   36 1
  32   21   22 ar
  33   21   30 1
  34   22   23 ar
  35   22   37 1
  36   23   38 1
  37   24   25 ar
  38   24   39 1
  39   25   26 ar
  40   25   40 1
  41   26   27 ar
  42   26   41 1
  43   27   28 ar
  44   27   42 1
  45   28   43 1
  46   29   44 1
  47   29   45 1
  48   29   46 1
  49   30   31 1
  50   31   47 1
  51   31   48 1
  52   31   49 1

#	End of record

