#	Name: ASD00431088
#	Creating user name:	WinNT
#	Creation time:	15. 06. 2019 18:35

#	Modifying user name:	WinNT
#	Modification time:	15. 06. 2019 18:35

#	Program:	/corina/corina34_cracker 3.40 0067  02.08.2006

@<TRIPOS>MOLECULE
ASD00431088
  60   65    0    0    0
SMALL
NO_CHARGES


@<TRIPOS>ATOM
   1 C1             0.5839     0.9306    -0.3173 C.2     
   2 N2             0.4915    -0.4110    -0.2832 N.am    
   3 C3             1.7099    -0.9807    -0.3098 C.2     
   4 C4             2.7287     0.0886    -0.3679 C.ar    
   5 C5             4.1135     0.1045    -0.4131 C.ar    
   6 C6             4.7856     1.3158    -0.4627 C.ar    
   7 C7             4.0840     2.5068    -0.4673 C.ar    
   8 C8             2.6986     2.5063    -0.4224 C.ar    
   9 C9             2.0133     1.3030    -0.3726 C.ar    
  10 O10           -0.3508     1.7060    -0.3092 O.2     
  11 O11            1.9350    -2.1740    -0.2890 O.2     
  12 C12           -0.7699    -1.1538    -0.2243 C.3     
  13 C13           -0.9049    -2.0778    -1.4531 C.3     
  14 C14           -0.3057    -3.4037    -0.9385 C.3     
  15 C15           -0.5108    -3.3756     0.5613 C.ar    
  16 C16           -0.4669    -4.4001     1.4883 C.ar    
  17 C17           -0.6908    -4.1318     2.8383 C.ar    
  18 C18           -0.9598    -2.8241     3.2466 C.ar    
  19 C19           -1.0016    -1.8106     2.3138 C.ar    
  20 C20           -0.7778    -2.0816     0.9724 C.ar    
  21 S21           -0.3202    -6.9232     3.4887 S.3     
  22 C22           -0.4803    -7.3002     5.1483 C.2     
  23 N23           -0.7469    -6.2296     5.8296 N.2     
  24 C24           -0.8423    -5.1007     5.1593 C.2     
  25 C25           -0.6443    -5.2256     3.8311 C.2     
  26 O26           -0.3482    -8.5407     5.6764 O.3     
  27 C27           -0.4040    -8.6679     7.0289 C.ar    
  28 C28           -1.5913    -8.4165     7.7009 C.ar    
  29 C29           -1.6479    -8.5457     9.0749 C.ar    
  30 C30           -0.5175    -8.9269     9.7828 C.ar    
  31 C31            0.6697    -9.1782     9.1110 C.ar    
  32 C32            0.7249    -9.0546     7.7364 C.ar    
  33 O33           -0.5732    -9.0536    11.1355 O.3     
  34 C34            0.6049    -9.5262    11.7918 C.3     
  35 C35            0.5842    -9.0855    13.2568 C.3     
  36 C36            0.6510   -11.0538    11.7194 C.3     
  37 H37            4.6669    -0.8229    -0.4093 H       
  38 H38            5.8649     1.3292    -0.4976 H       
  39 H39            4.6189     3.4442    -0.5058 H       
  40 H40            2.1556     3.4399    -0.4259 H       
  41 H41           -1.6123    -0.4639    -0.1755 H       
  42 H42           -1.9519    -2.2066    -1.7277 H       
  43 H43           -0.3275    -1.6920    -2.2932 H       
  44 H44           -0.8322    -4.2518    -1.3764 H       
  45 H45            0.7573    -3.4549    -1.1739 H       
  46 H46           -0.2584    -5.4097     1.1665 H       
  47 H47           -1.1348    -2.6075     4.2901 H       
  48 H48           -1.2100    -0.7991     2.6295 H       
  49 H49           -1.0610    -4.1549     5.6326 H       
  50 H50           -2.4713    -8.1195     7.1498 H       
  51 H51           -2.5721    -8.3497     9.5981 H       
  52 H52            1.5498    -9.4746     9.6623 H       
  53 H53            1.6481    -9.2546     7.2129 H       
  54 H54            1.4854    -9.1124    11.3003 H       
  55 H55           -0.2963    -9.4992    13.7483 H       
  56 H56            1.4828    -9.4460    13.7574 H       
  57 H57            0.5513    -7.9972    13.3084 H       
  58 H58            0.6658   -11.3678    10.6757 H       
  59 H59            1.5496   -11.4143    12.2200 H       
  60 H60           -0.2295   -11.4676    12.2109 H       
@<TRIPOS>BOND
   1    1    2 am
   2    1    9 1
   3    1   10 2
   4    2    3 am
   5    2   12 1
   6    3    4 1
   7    3   11 2
   8    4    5 ar
   9    4    9 ar
  10    5    6 ar
  11    5   37 1
  12    6    7 ar
  13    6   38 1
  14    7    8 ar
  15    7   39 1
  16    8    9 ar
  17    8   40 1
  18   12   13 1
  19   12   20 1
  20   12   41 1
  21   13   14 1
  22   13   42 1
  23   13   43 1
  24   14   15 1
  25   14   44 1
  26   14   45 1
  27   15   16 ar
  28   15   20 ar
  29   16   17 ar
  30   16   46 1
  31   17   18 ar
  32   17   25 1
  33   18   19 ar
  34   18   47 1
  35   19   20 ar
  36   19   48 1
  37   21   22 1
  38   21   25 1
  39   22   23 2
  40   22   26 1
  41   23   24 1
  42   24   25 2
  43   24   49 1
  44   26   27 1
  45   27   28 ar
  46   27   32 ar
  47   28   29 ar
  48   28   50 1
  49   29   30 ar
  50   29   51 1
  51   30   31 ar
  52   30   33 1
  53   31   32 ar
  54   31   52 1
  55   32   53 1
  56   33   34 1
  57   34   35 1
  58   34   36 1
  59   34   54 1
  60   35   55 1
  61   35   56 1
  62   35   57 1
  63   36   58 1
  64   36   59 1
  65   36   60 1

#	End of record

