#	Name: ASD03320156
#	Creating user name:	WinNT
#	Creation time:	15. 06. 2019 20:36

#	Modifying user name:	WinNT
#	Modification time:	15. 06. 2019 20:36

#	Program:	/corina/corina34_cracker 3.40 0067  02.08.2006

@<TRIPOS>MOLECULE
ASD03320156
  39   41    0    0    0
SMALL
NO_CHARGES


@<TRIPOS>ATOM
   1 C1            -0.0077     1.3435    -0.1946 C.ar    
   2 C2             0.0217    -0.0349     0.0276 C.ar    
   3 C3            -1.1535    -0.7598     0.0435 C.ar    
   4 C4            -2.3643    -0.1283    -0.1593 C.ar    
   5 C5            -2.4081     1.2496    -0.3827 C.ar    
   6 C6            -1.2272     1.9880    -0.3944 C.ar    
   7 C7             1.2513     2.1182    -0.2119 C.2     
   8 O8             1.2241     3.3180    -0.4055 O.2     
   9 N9             2.4293     1.4942    -0.0131 N.am    
  10 C10            3.6281     2.2090    -0.1264 C.ar    
  11 C11           -3.7061     1.9242    -0.6007 C.2     
  12 C12            3.6889     3.5334     0.2864 C.ar    
  13 C13            4.8716     4.2374     0.1748 C.ar    
  14 C14            5.9986     3.6221    -0.3500 C.ar    
  15 C15            5.9386     2.2991    -0.7631 C.ar    
  16 C16            4.7583     1.5919    -0.6464 C.ar    
  17 O17            7.1627     4.3161    -0.4600 O.3     
  18 C18            8.2835     3.6202    -1.0092 C.3     
  19 F19            7.9772     3.1921    -2.3054 F       
  20 S20           -4.9610     1.4207    -1.7305 S.3     
  21 F21            9.3895     4.4760    -1.0499 F       
  22 F22            8.5811     2.5112    -0.2100 F       
  23 C23           -3.6417    -0.9277    -0.1402 C.3     
  24 C24           -4.1434     3.0325     0.0347 C.2     
  25 N25           -5.3372     3.4345    -0.3416 N.2     
  26 C26           -5.9370     2.7392    -1.2493 C.2     
  27 H27            0.9655    -0.5350     0.1870 H       
  28 H28           -1.1253    -1.8258     0.2151 H       
  29 H29           -1.2556     3.0539    -0.5663 H       
  30 H30            2.4467     0.5500     0.2085 H       
  31 H31            2.8114     4.0129     0.6944 H       
  32 H32            4.9190     5.2675     0.4959 H       
  33 H33            6.8162     1.8209    -1.1722 H       
  34 H34            4.7117     0.5620    -0.9680 H       
  35 H35           -4.0352    -0.9595     0.8758 H       
  36 H36           -4.3733    -0.4594    -0.7987 H       
  37 H37           -3.4405    -1.9423    -0.4839 H       
  38 H38           -3.5626     3.5444     0.7877 H       
  39 H39           -6.9173     2.9578    -1.6461 H       
@<TRIPOS>BOND
   1    1    2 ar
   2    1    7 1
   3    1    6 ar
   4    2    3 ar
   5    2   27 1
   6    3    4 ar
   7    3   28 1
   8    4    5 ar
   9    4   23 1
  10    5    6 ar
  11    5   11 1
  12    6   29 1
  13    7    8 2
  14    7    9 am
  15    9   10 1
  16    9   30 1
  17   10   12 ar
  18   10   16 ar
  19   11   24 2
  20   11   20 1
  21   12   13 ar
  22   12   31 1
  23   13   14 ar
  24   13   32 1
  25   14   15 ar
  26   14   17 1
  27   15   16 ar
  28   15   33 1
  29   16   34 1
  30   17   18 1
  31   18   19 1
  32   18   21 1
  33   18   22 1
  34   20   26 1
  35   23   35 1
  36   23   36 1
  37   23   37 1
  38   24   25 1
  39   24   38 1
  40   25   26 2
  41   26   39 1

#	End of record

