#	Name: ASD01152504
#	Creating user name:	WinNT
#	Creation time:	15. 06. 2019 19:05

#	Modifying user name:	WinNT
#	Modification time:	15. 06. 2019 19:05

#	Program:	/corina/corina34_cracker 3.40 0067  02.08.2006

@<TRIPOS>MOLECULE
ASD01152504
  57   60    0    0    0
SMALL
NO_CHARGES


@<TRIPOS>ATOM
   1 C1             0.1114     1.1571    -0.6959 C.2     
   2 N2             0.0189    -0.1436    -0.6175 N.2     
   3 N3            -1.1205    -0.7661    -0.1080 N.am    
   4 C4            -2.2615    -0.0993     0.1330 C.2     
   5 C5            -2.3924     1.3536    -0.2592 C.3     
   6 C6            -1.0084     1.9736    -0.2035 C.2     
   7 C7            -2.9557     1.4586    -1.6778 C.3     
   8 O8            -0.8358     3.0970     0.2224 O.2     
   9 C9            -1.0734    -2.1389     0.1623 C.ar    
  10 O10           -3.1907    -0.6664     0.6673 O.2     
  11 C11           -3.1985     2.9070    -2.0160 C.ar    
  12 C12           -0.0101    -2.6693     0.8797 C.ar    
  13 C13           -2.0939    -2.9703    -0.2824 C.ar    
  14 C14           -2.0490    -4.3251    -0.0160 C.ar    
  15 C15           -0.9884    -4.8582     0.6946 C.ar    
  16 C16            0.0334    -4.0297     1.1463 C.ar    
  17 C17           -2.1995     3.6583    -2.6064 C.ar    
  18 C18           -2.4150     4.9860    -2.9140 C.ar    
  19 C19           -3.6419     5.5809    -2.6320 C.ar    
  20 C20           -4.6408     4.8134    -2.0462 C.ar    
  21 C21           -4.4242     3.4881    -1.7417 C.ar    
  22 F22           -0.9477    -6.1834     0.9543 F       
  23 O23           -4.0580     6.8616    -2.8318 O.3     
  24 C24           -5.4949     6.9020    -2.8026 C.3     
  25 C25           -5.8523     5.7107    -1.8827 C.3     
  26 C26           -5.9880     8.2191    -2.2001 C.3     
  27 C27           -6.0716     6.6962    -4.2048 C.3     
  28 O28            1.2212     1.7435    -1.2163 O.3     
  29 C29            2.2637     0.8753    -1.6654 C.3     
  30 N30            1.1045    -4.5683     1.8702 N.am    
  31 C31            1.7680    -3.8044     2.7605 C.2     
  32 O32            1.4983    -2.6269     2.8693 O.2     
  33 C33            2.8451    -4.4133     3.6209 C.3     
  34 H34           -3.0529     1.8665     0.4399 H       
  35 H35           -2.2419     1.0353    -2.3844 H       
  36 H36           -3.8952     0.9092    -1.7373 H       
  37 H37            0.7820    -2.0238     1.2294 H       
  38 H38           -2.9234    -2.5568    -0.8368 H       
  39 H39           -2.8435    -4.9693    -0.3628 H       
  40 H40           -1.2451     3.2038    -2.8277 H       
  41 H41           -1.6291     5.5660    -3.3749 H       
  42 H42           -5.2076     2.9046    -1.2811 H       
  43 H43           -6.7571     5.2101    -2.2275 H       
  44 H44           -5.9592     6.0361    -0.8479 H       
  45 H45           -5.6464     9.0509    -2.8162 H       
  46 H46           -7.0774     8.2169    -2.1642 H       
  47 H47           -5.5915     8.3278    -1.1906 H       
  48 H48           -5.7336     5.7380    -4.5996 H       
  49 H49           -7.1604     6.7048    -4.1547 H       
  50 H50           -5.7316     7.4990    -4.8589 H       
  51 H51            3.0888     1.4704    -2.0568 H       
  52 H52            2.6166     0.2693    -0.8309 H       
  53 H53            1.8808     0.2239    -2.4511 H       
  54 H54            1.3688    -5.4911     1.7308 H       
  55 H55            2.9446    -5.4724     3.3831 H       
  56 H56            3.7917    -3.9076     3.4302 H       
  57 H57            2.5780    -4.3003     4.6716 H       
@<TRIPOS>BOND
   1    1    2 2
   2    1   28 1
   3    1    6 1
   4    2    3 1
   5    3    4 am
   6    3    9 1
   7    4    5 1
   8    4   10 2
   9    5    6 1
  10    5    7 1
  11    5   34 1
  12    6    8 2
  13    7   11 1
  14    7   35 1
  15    7   36 1
  16    9   12 ar
  17    9   13 ar
  18   11   17 ar
  19   11   21 ar
  20   12   16 ar
  21   12   37 1
  22   13   14 ar
  23   13   38 1
  24   14   15 ar
  25   14   39 1
  26   15   16 ar
  27   15   22 1
  28   16   30 1
  29   17   18 ar
  30   17   40 1
  31   18   19 ar
  32   18   41 1
  33   19   20 ar
  34   19   23 1
  35   20   21 ar
  36   20   25 1
  37   21   42 1
  38   23   24 1
  39   24   25 1
  40   24   26 1
  41   24   27 1
  42   25   43 1
  43   25   44 1
  44   26   45 1
  45   26   46 1
  46   26   47 1
  47   27   48 1
  48   27   49 1
  49   27   50 1
  50   28   29 1
  51   29   51 1
  52   29   52 1
  53   29   53 1
  54   30   31 am
  55   30   54 1
  56   31   32 2
  57   31   33 1
  58   33   55 1
  59   33   56 1
  60   33   57 1

#	End of record

