#	Name: ASD01918103
#	Creating user name:	WinNT
#	Creation time:	15. 06. 2019 20:10

#	Modifying user name:	WinNT
#	Modification time:	15. 06. 2019 20:10

#	Program:	/corina/corina34_cracker 3.40 0067  02.08.2006

@<TRIPOS>MOLECULE
ASD01918103
  44   47    0    0    0
SMALL
NO_CHARGES


@<TRIPOS>ATOM
   1 N1            -0.2199     1.4554    -0.6940 N.am    
   2 C2            -0.1402     0.0599    -0.7410 C.2     
   3 C3             1.4639     0.0751    -2.6527 C.3     
   4 C4             0.9458     1.5058    -2.8404 C.3     
   5 C5             0.7943     2.1891    -1.4769 C.3     
   6 C6            -0.7581    -0.8651     0.0243 C.2     
   7 C7            -0.3454    -2.1278    -0.4197 C.2     
   8 N8             0.4907    -1.9657    -1.4170 N.2     
   9 N9             0.6404    -0.5988    -1.6455 N.pl3   
  10 C10           -0.7877    -3.4501     0.1522 C.3     
  11 O11           -1.7012    -3.2224     1.2273 O.3     
  12 C12           -1.1696     2.0926     0.0191 C.2     
  13 C13           -1.1406     3.5640     0.1384 C.ar    
  14 O14           -2.0504     1.4557     0.5641 O.2     
  15 C15           -2.1988    -4.3192     1.8568 C.ar    
  16 C16           -3.0907    -4.1714     2.9091 C.ar    
  17 C17           -3.5951    -5.2879     3.5475 C.ar    
  18 C18           -3.2118    -6.5518     3.1384 C.ar    
  19 C19           -2.3227    -6.7017     2.0902 C.ar    
  20 C20           -1.8202    -5.5885     1.4446 C.ar    
  21 C21           -2.2898     5.6779     0.1622 C.ar    
  22 C22           -2.3264     4.2998     0.0494 C.ar    
  23 C23            0.0708     4.2276     0.3464 C.ar    
  24 C24            0.0910     5.6015     0.4569 C.ar    
  25 C25           -1.0854     6.3256     0.3623 C.ar    
  26 F26           -3.5037     3.6669    -0.1466 F       
  27 H27            1.3980    -0.4641    -3.5977 H       
  28 H28            2.5008     0.1032    -2.3179 H       
  29 H29            1.6517     2.0692    -3.4507 H       
  30 H30           -0.0218     1.4776    -3.3414 H       
  31 H31            0.4718     3.2207    -1.6182 H       
  32 H32            1.7481     2.1698    -0.9497 H       
  33 H33           -1.4463    -0.6672     0.8328 H       
  34 H34           -1.2794    -4.0357    -0.6245 H       
  35 H35            0.0809    -3.9945     0.5227 H       
  36 H36           -3.3902    -3.1844     3.2293 H       
  37 H37           -4.2892    -5.1734     4.3670 H       
  38 H38           -3.6072    -7.4234     3.6387 H       
  39 H39           -2.0242    -7.6900     1.7730 H       
  40 H40           -1.1257    -5.7061     0.6258 H       
  41 H41           -3.2040     6.2488     0.0935 H       
  42 H42            0.9898     3.6653     0.4209 H       
  43 H43            1.0274     6.1148     0.6181 H       
  44 H44           -1.0623     7.4018     0.4497 H       
@<TRIPOS>BOND
   1    1    2 1
   2    1    5 1
   3    1   12 am
   4    2    6 2
   5    2    9 1
   6    3    4 1
   7    3    9 1
   8    3   27 1
   9    3   28 1
  10    4    5 1
  11    4   29 1
  12    4   30 1
  13    5   31 1
  14    5   32 1
  15    6    7 1
  16    6   33 1
  17    7    8 2
  18    7   10 1
  19    8    9 1
  20   10   11 1
  21   10   34 1
  22   10   35 1
  23   11   15 1
  24   12   13 1
  25   12   14 2
  26   13   23 ar
  27   13   22 ar
  28   15   16 ar
  29   15   20 ar
  30   16   17 ar
  31   16   36 1
  32   17   18 ar
  33   17   37 1
  34   18   19 ar
  35   18   38 1
  36   19   20 ar
  37   19   39 1
  38   20   40 1
  39   21   22 ar
  40   21   25 ar
  41   21   41 1
  42   22   26 1
  43   23   24 ar
  44   23   42 1
  45   24   25 ar
  46   24   43 1
  47   25   44 1

#	End of record

