#	Name: ASD01814282
#	Creating user name:	WinNT
#	Creation time:	15. 06. 2019 19:32

#	Modifying user name:	WinNT
#	Modification time:	15. 06. 2019 19:32

#	Program:	/corina/corina34_cracker 3.40 0067  02.08.2006

@<TRIPOS>MOLECULE
ASD01814282
  53   58    0    0    0
SMALL
NO_CHARGES


@<TRIPOS>ATOM
   1 C1            -0.0158     1.3858     0.0616 C.ar    
   2 C2             0.0023    -0.0044     0.0127 C.ar    
   3 C3             1.1796    -0.6891    -0.0447 C.ar    
   4 C4             2.3942     0.0135    -0.0548 C.ar    
   5 C5             2.3719     1.4287    -0.0049 C.ar    
   6 C6             1.1466     2.1003     0.0534 C.ar    
   7 C7             3.6280    -0.6680    -0.1141 C.ar    
   8 C8             4.8017     0.0075    -0.1241 C.ar    
   9 C9             4.8355     1.4101    -0.0762 C.ar    
  10 C10            3.6407     2.1510    -0.0159 C.ar    
  11 C11            6.1019     2.1524    -0.0865 C.2     
  12 N12            6.0338     3.5031    -0.0376 N.am    
  13 C13            4.8306     4.1306     0.0186 C.2     
  14 N14            3.6966     3.4924     0.0285 N.2     
  15 C15            3.6400    -2.1740    -0.1669 C.3     
  16 C16            3.4795    -2.6279    -1.5949 C.ar    
  17 C17            4.5959    -2.8214    -2.3872 C.ar    
  18 C18            4.4514    -3.2375    -3.6966 C.ar    
  19 C19            3.1847    -3.4612    -4.2163 C.ar    
  20 C20            2.0661    -3.2664    -3.4192 C.ar    
  21 C21            2.2162    -2.8557    -2.1088 C.ar    
  22 O22            7.1731     1.5748    -0.1367 O.2     
  23 C23            7.2121     4.2590    -0.0444 C.2     
  24 C24            7.3028     5.7165    -0.1404 C.ar    
  25 C25            8.6748     6.0299    -0.1092 C.ar    
  26 N26            9.3507     4.8422    -0.0022 N.pl3   
  27 N27            8.4292     3.7909     0.0395 N.2     
  28 C28            6.3601     6.7436    -0.2467 C.ar    
  29 C29            6.7798     8.0405    -0.3191 C.ar    
  30 C30            8.1343     8.3486    -0.2882 C.ar    
  31 C31            9.0738     7.3625    -0.1841 C.ar    
  32 O32            3.0399    -3.8702    -5.5042 O.3     
  33 C33            1.7062    -4.0809    -5.9719 C.3     
  34 H34           -0.9614     1.9059     0.1021 H       
  35 H35           -0.9302    -0.5491     0.0206 H       
  36 H36            1.1775    -1.7685    -0.0819 H       
  37 H37            1.1205     3.1793     0.0914 H       
  38 H38            5.7295    -0.5434    -0.1693 H       
  39 H39            4.8142     5.2098     0.0566 H       
  40 H40            4.5864    -2.5438     0.2277 H       
  41 H41            2.8185    -2.5652     0.4333 H       
  42 H42            5.5818    -2.6468    -1.9823 H       
  43 H43            5.3238    -3.3882    -4.3152 H       
  44 H44            1.0790    -3.4398    -3.8215 H       
  45 H45            1.3457    -2.7042    -1.4877 H       
  46 H46           10.3149     4.7463     0.0408 H       
  47 H47            5.3056     6.5120    -0.2717 H       
  48 H48            6.0523     8.8344    -0.4016 H       
  49 H49            8.4482     9.3804    -0.3469 H       
  50 H50           10.1235     7.6153    -0.1607 H       
  51 H51            1.2254    -4.8482    -5.3651 H       
  52 H52            1.1429    -3.1509    -5.8948 H       
  53 H53            1.7329    -4.4043    -7.0125 H       
@<TRIPOS>BOND
   1    1    2 ar
   2    1    6 ar
   3    1   34 1
   4    2    3 ar
   5    2   35 1
   6    3    4 ar
   7    3   36 1
   8    4    5 ar
   9    4    7 ar
  10    5    6 ar
  11    5   10 ar
  12    6   37 1
  13    7    8 ar
  14    7   15 1
  15    8    9 ar
  16    8   38 1
  17    9   10 ar
  18    9   11 1
  19   10   14 1
  20   11   12 am
  21   11   22 2
  22   12   13 1
  23   12   23 1
  24   13   14 2
  25   13   39 1
  26   15   16 1
  27   15   40 1
  28   15   41 1
  29   16   17 ar
  30   16   21 ar
  31   17   18 ar
  32   17   42 1
  33   18   19 ar
  34   18   43 1
  35   19   20 ar
  36   19   32 1
  37   20   21 ar
  38   20   44 1
  39   21   45 1
  40   23   24 1
  41   23   27 2
  42   24   25 ar
  43   24   28 ar
  44   25   26 1
  45   25   31 ar
  46   26   27 1
  47   26   46 1
  48   28   29 ar
  49   28   47 1
  50   29   30 ar
  51   29   48 1
  52   30   31 ar
  53   30   49 1
  54   31   50 1
  55   32   33 1
  56   33   51 1
  57   33   52 1
  58   33   53 1

#	End of record

