#	Name: ASD01230670
#	Creating user name:	WinNT
#	Creation time:	15. 06. 2019 19:14

#	Modifying user name:	WinNT
#	Modification time:	15. 06. 2019 19:14

#	Program:	/corina/corina34_cracker 3.40 0067  02.08.2006

@<TRIPOS>MOLECULE
ASD01230670
  46   50    0    0    0
SMALL
NO_CHARGES


@<TRIPOS>ATOM
   1 S1             1.5563     0.5610     2.0267 S.o2    
   2 N2             1.0977    -0.8829     1.3614 N.am    
   3 C3             1.8612    -1.5408     0.5230 C.2     
   4 N4             3.0960    -1.1434     0.0954 N.pl3   
   5 C5             3.7219     0.1274     0.4699 C.3     
   6 C6             3.3724     0.4945     1.9149 C.3     
   7 C7             1.3141    -2.8172     0.0157 C.2     
   8 C8             2.0778    -3.5820    -0.8391 C.2     
   9 C9             3.3515    -3.1253    -1.2049 C.2     
  10 C10            3.8213    -1.9542    -0.7419 C.2     
  11 C11           -0.0366    -3.2680     0.4211 C.ar    
  12 C12           -0.1875    -4.4266     1.1841 C.ar    
  13 C13           -1.4469    -4.8434     1.5598 C.ar    
  14 C14           -2.5644    -4.1117     1.1799 C.ar    
  15 C15           -2.4181    -2.9582     0.4206 C.ar    
  16 C16           -1.1614    -2.5322     0.0461 C.ar    
  17 O17           -3.8041    -4.5258     1.5516 O.3     
  18 O18           -7.1552    -4.4787     5.0751 O.3     
  19 C19           -7.4658    -3.4786     6.0599 C.3     
  20 C20           -6.0736    -2.9087     6.4209 C.3     
  21 C21           -5.2794    -3.2021     5.1626 C.ar    
  22 C22           -6.0060    -4.1343     4.4314 C.ar    
  23 C23           -5.5020    -4.5736     3.2111 C.ar    
  24 C24           -4.2909    -4.0915     2.7435 C.ar    
  25 C25           -3.5727    -3.1666     3.4882 C.ar    
  26 C26           -4.0734    -2.7244     4.6990 C.ar    
  27 O27            1.0323     1.5438     1.1443 O.2     
  28 O28            1.1311     0.4821     3.3803 O.2     
  29 H29            4.8039     0.0372     0.3737 H       
  30 H30            3.3667     0.9133    -0.1966 H       
  31 H31            3.7958     1.4675     2.1638 H       
  32 H32            3.7589    -0.2648     2.5948 H       
  33 H33            1.7008    -4.5192    -1.2210 H       
  34 H34            3.9627    -3.7215    -1.8663 H       
  35 H35            4.8095    -1.6378    -1.0414 H       
  36 H36            0.6811    -4.9963     1.4796 H       
  37 H37           -1.5645    -5.7402     2.1500 H       
  38 H38           -3.2894    -2.3919     0.1266 H       
  39 H39           -1.0480    -1.6324    -0.5403 H       
  40 H40           -8.1023    -2.7026     5.6347 H       
  41 H41           -7.9366    -3.9299     6.9333 H       
  42 H42           -6.1279    -1.8359     6.6060 H       
  43 H43           -5.6500    -3.4297     7.2795 H       
  44 H44           -6.0566    -5.2933     2.6273 H       
  45 H45           -2.6269    -2.7937     3.1237 H       
  46 H46           -3.5182    -2.0044     5.2819 H       
@<TRIPOS>BOND
   1    1    2 am
   2    1    6 1
   3    1   27 2
   4    1   28 2
   5    2    3 2
   6    3    4 1
   7    3    7 1
   8    4    5 1
   9    4   10 1
  10    5    6 1
  11    5   29 1
  12    5   30 1
  13    6   31 1
  14    6   32 1
  15    7    8 2
  16    7   11 1
  17    8    9 1
  18    8   33 1
  19    9   10 2
  20    9   34 1
  21   10   35 1
  22   11   12 ar
  23   11   16 ar
  24   12   13 ar
  25   12   36 1
  26   13   14 ar
  27   13   37 1
  28   14   15 ar
  29   14   17 1
  30   15   16 ar
  31   15   38 1
  32   16   39 1
  33   17   24 1
  34   18   19 1
  35   18   22 1
  36   19   20 1
  37   19   40 1
  38   19   41 1
  39   20   21 1
  40   20   42 1
  41   20   43 1
  42   21   22 ar
  43   21   26 ar
  44   22   23 ar
  45   23   24 ar
  46   23   44 1
  47   24   25 ar
  48   25   26 ar
  49   25   45 1
  50   26   46 1

#	End of record

