#	Name: ASD01816464
#	Creating user name:	WinNT
#	Creation time:	15. 06. 2019 19:35

#	Modifying user name:	WinNT
#	Modification time:	15. 06. 2019 19:35

#	Program:	/corina/corina34_cracker 3.40 0067  02.08.2006

@<TRIPOS>MOLECULE
ASD01816464
  53   58    0    0    0
SMALL
NO_CHARGES


@<TRIPOS>ATOM
   1 C1             0.1060     1.4781     0.3833 C.ar    
   2 C2             0.0859     0.0928     0.3748 C.ar    
   3 C3             1.2567    -0.6267     0.2354 C.ar    
   4 C4             2.4721     0.0396     0.1017 C.ar    
   5 C5             2.4869     1.4438     0.1106 C.ar    
   6 C6             1.3002     2.1564     0.2518 C.ar    
   7 N7             3.6503    -0.6749    -0.0375 N.pl3   
   8 C8             4.8501    -0.0875    -0.1695 C.2     
   9 C9             4.9884     1.2785    -0.1750 C.2     
  10 C10            3.7853     2.1298    -0.0324 C.2     
  11 C11            6.1035     2.2125    -0.2952 C.2     
  12 N12            5.5671     3.4499    -0.2256 N.am    
  13 N13            4.1811     3.3698    -0.0688 N.2     
  14 C14            6.2963     4.6437    -0.3006 C.ar    
  15 O15            7.2833     1.9317    -0.4308 O.2     
  16 C16            3.5843    -2.1384    -0.0404 C.3     
  17 C17            3.4393    -2.6319    -1.4569 C.ar    
  18 C18            4.5594    -2.7793    -2.2543 C.ar    
  19 C19            4.4297    -3.2309    -3.5531 C.ar    
  20 C20            3.1731    -3.5375    -4.0577 C.ar    
  21 C21            2.0504    -3.3889    -3.2545 C.ar    
  22 C22            2.1871    -2.9418    -1.9549 C.ar    
  23 N23            3.0381    -3.9957    -5.3757 N.pl3   
  24 C24            1.8791    -4.3279    -5.9880 C.2     
  25 C25            2.1771    -4.7196    -7.2485 C.2     
  26 C26            3.5633    -4.6241    -7.4131 C.2     
  27 N27            4.0794    -4.1847    -6.2935 N.2     
  28 C28            7.1355     4.8918    -1.3846 C.ar    
  29 C29            7.8357     6.0857    -1.4153 C.ar    
  30 C30            7.6802     6.9877    -0.3753 C.ar    
  31 N31            6.8766     6.7212     0.6381 N.ar    
  32 C32            6.1883     5.5983     0.7013 C.ar    
  33 F33            1.2227    -1.9772     0.2291 F       
  34 F34            8.3601     8.1550    -0.3979 F       
  35 C35            5.2846     5.3431     1.8799 C.3     
  36 H36           -0.8169     2.0290     0.4889 H       
  37 H37           -0.8538    -0.4293     0.4784 H       
  38 H38            1.3139     3.2363     0.2579 H       
  39 H39            5.7296    -0.7055    -0.2737 H       
  40 H40            4.4979    -2.5442     0.3940 H       
  41 H41            2.7264    -2.4646     0.5475 H       
  42 H42            5.5366    -2.5406    -1.8612 H       
  43 H43            5.3048    -3.3451    -4.1756 H       
  44 H44            1.0716    -3.6263    -3.6444 H       
  45 H45            1.3141    -2.8261    -1.3296 H       
  46 H46            0.8929    -4.2882    -5.5496 H       
  47 H47            1.4697    -5.0480    -7.9957 H       
  48 H48            4.1123    -4.8668    -8.3109 H       
  49 H49            7.2376     4.1700    -2.1815 H       
  50 H50            8.4955     6.3111    -2.2400 H       
  51 H51            4.2887     5.7303     1.6647 H       
  52 H52            5.2250     4.2709     2.0666 H       
  53 H53            5.6864     5.8435     2.7609 H       
@<TRIPOS>BOND
   1    1    2 ar
   2    1    6 ar
   3    1   36 1
   4    2    3 ar
   5    2   37 1
   6    3    4 ar
   7    3   33 1
   8    4    5 ar
   9    4    7 1
  10    5    6 ar
  11    5   10 1
  12    6   38 1
  13    7    8 1
  14    7   16 1
  15    8    9 2
  16    8   39 1
  17    9   10 1
  18    9   11 1
  19   10   13 2
  20   11   12 am
  21   11   15 2
  22   12   13 1
  23   12   14 1
  24   14   28 ar
  25   14   32 ar
  26   16   17 1
  27   16   40 1
  28   16   41 1
  29   17   18 ar
  30   17   22 ar
  31   18   19 ar
  32   18   42 1
  33   19   20 ar
  34   19   43 1
  35   20   21 ar
  36   20   23 1
  37   21   22 ar
  38   21   44 1
  39   22   45 1
  40   23   24 1
  41   23   27 1
  42   24   25 2
  43   24   46 1
  44   25   26 1
  45   25   47 1
  46   26   27 2
  47   26   48 1
  48   28   29 ar
  49   28   49 1
  50   29   30 ar
  51   29   50 1
  52   30   31 ar
  53   30   34 1
  54   31   32 ar
  55   32   35 1
  56   35   51 1
  57   35   52 1
  58   35   53 1

#	End of record

