#	Name: ASD01915520
#	Creating user name:	WinNT
#	Creation time:	15. 06. 2019 20:05

#	Modifying user name:	WinNT
#	Modification time:	15. 06. 2019 20:05

#	Program:	/corina/corina34_cracker 3.40 0067  02.08.2006

@<TRIPOS>MOLECULE
ASD01915520
  38   41    0    0    0
SMALL
NO_CHARGES


@<TRIPOS>ATOM
   1 C1            -0.0045     1.4578     0.2026 C.2     
   2 N2             0.0573     0.1016    -0.0275 N.pl3   
   3 C3            -1.1582    -0.6833    -0.2741 C.3     
   4 C4            -2.3314    -0.0441     0.4669 C.3     
   5 N5            -2.4047     1.3987     0.2638 N.am    
   6 C6            -1.2907     2.1700     0.2517 C.2     
   7 C7             1.2797     1.8947     0.3657 C.2     
   8 C8             2.0731     0.7470     0.2336 C.2     
   9 N9             1.2766    -0.2717     0.0077 N.2     
  10 C10            3.5758     0.6920     0.3333 C.3     
  11 O11            4.0846     2.0031     0.5866 O.3     
  12 C12            5.4325     2.1296     0.7051 C.ar    
  13 C13           -3.7130     2.0282     0.0684 C.3     
  14 O14           -1.3509     3.3845     0.2798 O.2     
  15 C15            5.9947     3.3738     0.9512 C.ar    
  16 C16            6.2482     1.0137     0.5857 C.ar    
  17 C17            7.6181     1.1449     0.7064 C.ar    
  18 C18            8.1764     2.3869     0.9461 C.ar    
  19 C19            7.3652     3.4996     1.0711 C.ar    
  20 C20           -4.6019     1.4782    -1.0489 C.3     
  21 C21           -4.9533     1.2018     0.4144 C.3     
  22 H22           -1.3693    -0.7008    -1.3434 H       
  23 H23           -1.0126    -1.7021     0.0851 H       
  24 H24           -3.2586    -0.4968     0.1154 H       
  25 H25           -2.2259    -0.2448     1.5330 H       
  26 H26            1.6114     2.9049     0.5552 H       
  27 H27            3.8617     0.0275     1.1486 H       
  28 H28            3.9885     0.3168    -0.6031 H       
  29 H29           -3.7524     3.1003     0.2611 H       
  30 H30            5.3615     4.2432     1.0486 H       
  31 H31            5.8126     0.0433     0.3988 H       
  32 H32            8.2535     0.2765     0.6139 H       
  33 H33            9.2476     2.4874     1.0401 H       
  34 H34            7.8037     4.4688     1.2580 H       
  35 H35           -5.2263     2.1884    -1.5909 H       
  36 H36           -4.2132     0.6479    -1.6385 H       
  37 H37           -4.7959     0.1898     0.7873 H       
  38 H38           -5.8089     1.7302     0.8349 H       
@<TRIPOS>BOND
   1    1    2 1
   2    1    7 2
   3    1    6 1
   4    2    3 1
   5    2    9 1
   6    3    4 1
   7    3   22 1
   8    3   23 1
   9    4    5 1
  10    4   24 1
  11    4   25 1
  12    5    6 am
  13    5   13 1
  14    6   14 2
  15    7    8 1
  16    7   26 1
  17    8    9 2
  18    8   10 1
  19   10   11 1
  20   10   27 1
  21   10   28 1
  22   11   12 1
  23   12   15 ar
  24   12   16 ar
  25   13   20 1
  26   13   21 1
  27   13   29 1
  28   15   19 ar
  29   15   30 1
  30   16   17 ar
  31   16   31 1
  32   17   18 ar
  33   17   32 1
  34   18   19 ar
  35   18   33 1
  36   19   34 1
  37   20   21 1
  38   20   35 1
  39   20   36 1
  40   21   37 1
  41   21   38 1

#	End of record

