#	Name: ASD00842241
#	Creating user name:	WinNT
#	Creation time:	15. 06. 2019 18:43

#	Modifying user name:	WinNT
#	Modification time:	15. 06. 2019 18:43

#	Program:	/corina/corina34_cracker 3.40 0067  02.08.2006

@<TRIPOS>MOLECULE
ASD00842241
  91   96    0    0    0
SMALL
NO_CHARGES


@<TRIPOS>ATOM
   1 F1             6.1115    -1.6435    -1.9521 F       
   2 C2             1.0280     1.5631    -0.3294 C.ar    
   3 C3             1.3307     0.2358    -0.5948 C.ar    
   4 C4             1.2550    -0.7071     0.4203 C.ar    
   5 C5             0.8786    -0.3220     1.6922 C.ar    
   6 C6             0.5769     1.0019     1.9542 C.ar    
   7 C7             0.6520     1.9433     0.9446 C.ar    
   8 C8             1.5827    -2.1501     0.1353 C.3     
   9 C9             1.3078    -3.0069     1.3527 C.2     
  10 C10            0.7804    -2.6533    -1.0664 C.3     
  11 C11           -0.6888    -2.4256    -0.8204 C.2     
  12 N12           -1.5988    -2.8846    -1.7023 N.am    
  13 O13           -1.0524    -1.8295     0.1712 O.2     
  14 C14           -3.0281    -2.5776    -1.5409 C.3     
  15 C15           -3.5575    -2.0145    -2.8641 C.3     
  16 N16           -3.2421    -2.9501    -3.9518 N.3     
  17 C17           -1.7907    -3.0982    -4.1232 C.3     
  18 C18           -1.1882    -3.7006    -2.8550 C.3     
  19 C19           -3.8805    -2.5324    -5.2072 C.3     
  20 C20           -3.4308    -3.4566    -6.3422 C.3     
  21 C21           -4.1456    -3.0547    -7.6343 C.3     
  22 N22           -5.5981    -3.1555    -7.4434 N.3     
  23 C23           -6.0599    -2.2421    -6.3904 C.3     
  24 C24           -5.4022    -2.6197    -5.0611 C.3     
  25 C25           -6.3129    -2.9110    -8.7032 C.3     
  26 O26            0.2346    -3.1640     1.8956 O.2     
  27 N27            2.4759    -3.5609     1.7188 N.am    
  28 C28            3.0652    -2.3187    -0.1061 C.ar    
  29 C29            3.5272    -3.1775     0.8834 C.ar    
  30 C30            3.9231    -1.8053    -1.0527 C.ar    
  31 C31            5.2662    -2.1447    -1.0250 C.ar    
  32 C32            5.7395    -3.0010    -0.0423 C.ar    
  33 C33            4.8782    -3.5160     0.9074 C.ar    
  34 F34            7.0487    -3.3332    -0.0134 F       
  35 C35            2.3914    -6.2205     2.4214 C.ar    
  36 C36            3.4612    -6.9621     1.9551 C.ar    
  37 C37            1.1208    -6.7657     2.4302 C.ar    
  38 C38            0.9172    -8.0533     1.9730 C.ar    
  39 C39            1.9889    -8.7994     1.5046 C.ar    
  40 C40            3.2627    -8.2499     1.4963 C.ar    
  41 O41            1.7912   -10.0664     1.0546 O.3     
  42 H42            4.4527    -6.5340     1.9491 H       
  43 C43            2.9403   -10.7755     0.5871 C.3     
  44 C44           -7.7908    -3.2659    -8.5282 C.3     
  45 O45            1.7004    -0.1407    -1.8472 O.3     
  46 C46            2.1920     0.2815    -4.1754 C.3     
  47 C47            1.6480     0.8588    -2.8671 C.3     
  48 S48            2.6490    -4.5806     3.0120 S.o2    
  49 O49            4.0130    -4.5046     3.4032 O.2     
  50 O50            1.5708    -4.2976     3.8933 O.2     
  51 H51            1.0905     2.2997    -1.1168 H       
  52 H52            0.8195    -1.0555     2.4828 H       
  53 H53            0.2820     1.3009     2.9493 H       
  54 H54            0.4159     2.9766     1.1518 H       
  55 H55            1.0873    -2.1112    -1.9609 H       
  56 H56            0.9647    -3.7185    -1.2060 H       
  57 H57           -3.5717    -3.4875    -1.2866 H       
  58 H58           -3.1568    -1.8379    -0.7506 H       
  59 H59           -4.6377    -1.8845    -2.7979 H       
  60 H60           -3.0865    -1.0520    -3.0642 H       
  61 H61           -1.5895    -3.7543    -4.9701 H       
  62 H62           -1.3443    -2.1207    -4.3057 H       
  63 H63           -0.1010    -3.7062    -2.9330 H       
  64 H64           -1.5539    -4.7190    -2.7239 H       
  65 H65           -3.5940    -1.5063    -5.4377 H       
  66 H66           -2.3532    -3.3666    -6.4793 H       
  67 H67           -3.6817    -4.4876    -6.0930 H       
  68 H68           -3.8833    -2.0282    -7.8903 H       
  69 H69           -3.8383    -3.7199    -8.4413 H       
  70 H70           -5.7887    -1.2194    -6.6522 H       
  71 H71           -7.1430    -2.3171    -6.2939 H       
  72 H72           -5.6842    -3.6376    -4.7918 H       
  73 H73           -5.7332    -1.9319    -4.2830 H       
  74 H74           -6.2214    -1.8593    -8.9746 H       
  75 H75           -5.8818    -3.5284    -9.4913 H       
  76 H76            3.5496    -1.1391    -1.8162 H       
  77 H77            5.2533    -4.1821     1.6703 H       
  78 H78            0.2869    -6.1846     2.7953 H       
  79 H79           -0.0754    -8.4788     1.9804 H       
  80 H80            4.0987    -8.8289     1.1325 H       
  81 H81            2.6437   -11.7713     0.2577 H       
  82 H82            3.3864   -10.2346    -0.2475 H       
  83 H83            3.6675   -10.8616     1.3945 H       
  84 H84           -8.2219    -2.6486    -7.7401 H       
  85 H85           -8.3212    -3.0845    -9.4630 H       
  86 H86           -7.8822    -4.3177    -8.2569 H       
  87 H87            2.2338     1.0672    -4.9297 H       
  88 H88            3.1933    -0.1158    -4.0087 H       
  89 H89            1.5365    -0.5184    -4.5199 H       
  90 H90            0.6154     1.1765    -3.0118 H       
  91 H91            2.2531     1.7148    -2.5684 H       
@<TRIPOS>BOND
   1    1   31 1
   2    2    3 ar
   3    2    7 ar
   4    2   51 1
   5    3    4 ar
   6    3   45 1
   7    4    5 ar
   8    4    8 1
   9    5    6 ar
  10    5   52 1
  11    6    7 ar
  12    6   53 1
  13    7   54 1
  14    8    9 1
  15    8   10 1
  16    8   28 1
  17    9   26 2
  18    9   27 am
  19   10   11 1
  20   10   55 1
  21   10   56 1
  22   11   12 am
  23   11   13 2
  24   12   14 1
  25   12   18 1
  26   14   15 1
  27   14   57 1
  28   14   58 1
  29   15   16 1
  30   15   59 1
  31   15   60 1
  32   16   17 1
  33   16   19 1
  34   17   18 1
  35   17   61 1
  36   17   62 1
  37   18   63 1
  38   18   64 1
  39   19   20 1
  40   19   24 1
  41   19   65 1
  42   20   21 1
  43   20   66 1
  44   20   67 1
  45   21   22 1
  46   21   68 1
  47   21   69 1
  48   22   23 1
  49   22   25 1
  50   23   24 1
  51   23   70 1
  52   23   71 1
  53   24   72 1
  54   24   73 1
  55   25   44 1
  56   25   74 1
  57   25   75 1
  58   27   48 am
  59   27   29 1
  60   28   29 ar
  61   28   30 ar
  62   29   33 ar
  63   30   31 ar
  64   30   76 1
  65   31   32 ar
  66   32   33 ar
  67   32   34 1
  68   33   77 1
  69   35   36 ar
  70   35   37 ar
  71   35   48 1
  72   36   42 1
  73   36   40 ar
  74   37   38 ar
  75   37   78 1
  76   38   39 ar
  77   38   79 1
  78   39   40 ar
  79   39   41 1
  80   40   80 1
  81   41   43 1
  82   43   81 1
  83   43   82 1
  84   43   83 1
  85   44   84 1
  86   44   85 1
  87   44   86 1
  88   45   47 1
  89   46   47 1
  90   46   87 1
  91   46   88 1
  92   46   89 1
  93   47   90 1
  94   47   91 1
  95   48   49 2
  96   48   50 2

#	End of record

