#	Name: ASD04590175
#	Creating user name:	WinNT
#	Creation time:	15. 06. 2019 20:50

#	Modifying user name:	WinNT
#	Modification time:	15. 06. 2019 20:50

#	Program:	/corina/corina34_cracker 3.40 0067  02.08.2006

@<TRIPOS>MOLECULE
ASD04590175
  33   34    0    0    0
SMALL
NO_CHARGES


@<TRIPOS>ATOM
   1 N1            -0.0081     1.3278     0.4246 N.pl3   
   2 C2             0.0020    -0.0050    -0.0024 C.ar    
   3 C3             1.2073    -0.6525    -0.2315 C.ar    
   4 C4            -1.1980    -0.6862    -0.1929 C.ar    
   5 C5            -1.1835    -2.0048    -0.6156 C.ar    
   6 C6             0.0205    -2.6441    -0.8481 C.ar    
   7 C7             1.2145    -1.9705    -0.6539 C.ar    
   8 F8             2.3883    -2.5991    -0.8823 F       
   9 O9            -2.3825    -0.0571     0.0364 O.3     
  10 C10           -3.5676    -0.8495    -0.0619 C.3     
  11 C11           -4.6747    -0.2220     0.7895 C.3     
  12 C12           -4.0265    -0.9050    -1.5216 C.3     
  13 C13           -5.3288    -1.7036    -1.6118 C.3     
  14 N14           -6.3561    -1.0626    -0.7811 N.3     
  15 C15           -5.9583    -1.0404     0.6323 C.3     
  16 C16           -7.6577    -1.7220    -0.9513 C.3     
  17 H17            0.8283     1.7998     0.5607 H       
  18 H18           -0.8516     1.7807     0.5807 H       
  19 H19            2.1395    -0.1283    -0.0808 H       
  20 H20           -2.1131    -2.5344    -0.7634 H       
  21 H21            0.0296    -3.6725    -1.1777 H       
  22 H22           -3.3616    -1.8587     0.2948 H       
  23 H23           -4.3712    -0.2187     1.8364 H       
  24 H24           -4.8527     0.8012     0.4585 H       
  25 H25           -4.1942     0.1074    -1.8890 H       
  26 H26           -3.2597    -1.3897    -2.1260 H       
  27 H27           -5.6659    -1.7328    -2.6480 H       
  28 H28           -5.1570    -2.7198    -1.2572 H       
  29 H29           -5.7835    -2.0598     0.9765 H       
  30 H30           -6.7525    -0.5880     1.2261 H       
  31 H31           -7.5755    -2.7690    -0.6596 H       
  32 H32           -8.4002    -1.2275    -0.3249 H       
  33 H33           -7.9633    -1.6587    -1.9957 H       
@<TRIPOS>BOND
   1    1    2 1
   2    1   17 1
   3    1   18 1
   4    2    3 ar
   5    2    4 ar
   6    3    7 ar
   7    3   19 1
   8    4    5 ar
   9    4    9 1
  10    5    6 ar
  11    5   20 1
  12    6    7 ar
  13    6   21 1
  14    7    8 1
  15    9   10 1
  16   10   11 1
  17   10   12 1
  18   10   22 1
  19   11   15 1
  20   11   23 1
  21   11   24 1
  22   12   13 1
  23   12   25 1
  24   12   26 1
  25   13   14 1
  26   13   27 1
  27   13   28 1
  28   14   15 1
  29   14   16 1
  30   15   29 1
  31   15   30 1
  32   16   31 1
  33   16   32 1
  34   16   33 1

#	End of record

