#	Name: ASD01816731
#	Creating user name:	WinNT
#	Creation time:	15. 06. 2019 19:35

#	Modifying user name:	WinNT
#	Modification time:	15. 06. 2019 19:35

#	Program:	/corina/corina34_cracker 3.40 0067  02.08.2006

@<TRIPOS>MOLECULE
ASD01816731
  70   75    0    0    0
SMALL
NO_CHARGES


@<TRIPOS>ATOM
   1 C1            -0.0167     1.3960     0.0157 C.2     
   2 C2             0.0025    -0.0052    -0.0025 C.2     
   3 C3             1.1989    -0.6602    -0.0248 C.2     
   4 C4             2.3921     0.0815    -0.0292 C.2     
   5 N5             2.3439     1.4491    -0.0107 N.am    
   6 C6             1.1421     2.0927     0.0111 C.2     
   7 C7             3.6230    -0.5886    -0.0521 C.2     
   8 C8             4.7879     0.1231    -0.0565 C.2     
   9 C9             4.7340     1.5284    -0.0380 C.2     
  10 C10            3.4813     2.1731    -0.0149 C.2     
  11 C11            3.6604    -2.0950    -0.0712 C.3     
  12 O12            3.4256     3.3913     0.0013 O.2     
  13 C13            5.9710     2.3159    -0.0418 C.2     
  14 N14            7.1647     1.6963     0.0459 N.am    
  15 O15            5.9198     3.5292    -0.1241 O.2     
  16 N16            3.7770    -2.5644    -1.4583 N.3     
  17 C17            4.0533    -4.0037    -1.5046 C.3     
  18 C18            4.0716    -4.4917    -2.9295 C.ar    
  19 C19            3.5170    -3.7587    -3.9566 C.ar    
  20 C20            2.8661    -2.4214    -3.7124 C.3     
  21 C21            2.5590    -2.2546    -2.2240 C.3     
  22 C22            8.4025     2.4710    -0.0711 C.3     
  23 C23            9.5310     1.5590    -0.5565 C.3     
  24 C24           10.8238     2.3681    -0.6787 C.3     
  25 C25           11.1914     2.9516     0.6871 C.3     
  26 C26           10.0629     3.8636     1.1725 C.3     
  27 C27            8.7701     3.0545     1.2947 C.3     
  28 O28            9.1878     1.0141    -1.8321 O.3     
  29 C29            4.6658    -5.7156    -3.2008 C.ar    
  30 C30            4.7026    -6.2028    -4.4915 C.ar    
  31 C31            4.1441    -5.4681    -5.5210 C.ar    
  32 C32            3.5529    -4.2499    -5.2530 C.ar    
  33 C33            5.3929    -4.2736    -0.8693 C.ar    
  34 C34            5.5822    -5.3796    -0.0548 C.ar    
  35 C35            6.4670    -3.4250    -1.0899 C.ar    
  36 C36            7.6804    -3.7046    -0.4903 C.ar    
  37 N37            7.8226    -4.7633     0.2829 N.ar    
  38 C38            6.8247    -5.5947     0.5108 C.ar    
  39 H39           -0.9603     1.9212     0.0290 H       
  40 H40           -0.9228    -0.5622     0.0015 H       
  41 H41            1.2286    -1.7397    -0.0387 H       
  42 H42            1.1154     3.1723     0.0255 H       
  43 H43            5.7397    -0.3869    -0.0737 H       
  44 H44            4.5179    -2.4445     0.5038 H       
  45 H45            2.7436    -2.4869     0.3691 H       
  46 H46            7.2041     0.7373     0.1865 H       
  47 H47            3.2797    -4.5365    -0.9518 H       
  48 H48            3.5394    -1.6270    -4.0344 H       
  49 H49            1.9388    -2.3609    -4.2822 H       
  50 H50            1.7612    -2.9391    -1.9357 H       
  51 H51            2.2534    -1.2272    -2.0260 H       
  52 H52            8.2577     3.2815    -0.7854 H       
  53 H53            9.6758     0.7485     0.1578 H       
  54 H54           11.6278     1.7184    -1.0245 H       
  55 H55           10.6790     3.1786    -1.3930 H       
  56 H56           11.3362     2.1410     1.4014 H       
  57 H57           12.1124     3.5280     0.6000 H       
  58 H58           10.3247     4.2792     2.1455 H       
  59 H59            9.9181     4.6741     0.4582 H       
  60 H60            7.9661     3.7042     1.6405 H       
  61 H61            8.9149     2.2439     2.0090 H       
  62 H62            9.8594     0.4247    -2.2017 H       
  63 H63            5.1024    -6.2903    -2.3973 H       
  64 H64            5.1671    -7.1559    -4.6971 H       
  65 H65            4.1706    -5.8461    -6.5323 H       
  66 H66            3.1165    -3.6761    -6.0571 H       
  67 H67            4.7688    -6.0640     0.1357 H       
  68 H68            6.3569    -2.5567    -1.7226 H       
  69 H69            8.5219    -3.0485    -0.6571 H       
  70 H70            6.9792    -6.4515     1.1498 H       
@<TRIPOS>BOND
   1    1    2 1
   2    1    6 2
   3    1   39 1
   4    2    3 2
   5    2   40 1
   6    3    4 1
   7    3   41 1
   8    4    5 1
   9    4    7 2
  10    5    6 1
  11    5   10 am
  12    6   42 1
  13    7    8 1
  14    7   11 1
  15    8    9 2
  16    8   43 1
  17    9   10 1
  18    9   13 1
  19   10   12 2
  20   11   16 1
  21   11   44 1
  22   11   45 1
  23   13   15 2
  24   13   14 am
  25   14   22 1
  26   14   46 1
  27   16   17 1
  28   16   21 1
  29   17   18 1
  30   17   33 1
  31   17   47 1
  32   18   19 ar
  33   18   29 ar
  34   19   20 1
  35   19   32 ar
  36   20   21 1
  37   20   48 1
  38   20   49 1
  39   21   50 1
  40   21   51 1
  41   22   23 1
  42   22   27 1
  43   22   52 1
  44   23   24 1
  45   23   28 1
  46   23   53 1
  47   24   25 1
  48   24   54 1
  49   24   55 1
  50   25   26 1
  51   25   56 1
  52   25   57 1
  53   26   27 1
  54   26   58 1
  55   26   59 1
  56   27   60 1
  57   27   61 1
  58   28   62 1
  59   29   30 ar
  60   29   63 1
  61   30   31 ar
  62   30   64 1
  63   31   32 ar
  64   31   65 1
  65   32   66 1
  66   33   34 ar
  67   33   35 ar
  68   34   38 ar
  69   34   67 1
  70   35   36 ar
  71   35   68 1
  72   36   37 ar
  73   36   69 1
  74   37   38 ar
  75   38   70 1

#	End of record

