#	Name: ASD01028384
#	Creating user name:	WinNT
#	Creation time:	15. 06. 2019 18:57

#	Modifying user name:	WinNT
#	Modification time:	15. 06. 2019 18:57

#	Program:	/corina/corina34_cracker 3.40 0067  02.08.2006

@<TRIPOS>MOLECULE
ASD01028384
  60   65    0    0    0
SMALL
NO_CHARGES


@<TRIPOS>ATOM
   1 C1            -0.0171     1.4118     0.0098 C.ar    
   2 C2             0.0021    -0.0041     0.0020 C.ar    
   3 C3             1.2105     2.1116     0.0018 C.ar    
   4 C4             2.3793     1.3714    -0.0133 C.ar    
   5 C5             2.3160    -0.0162    -0.0202 C.ar    
   6 N6             1.1704    -0.6565    -0.0123 N.ar    
   7 O7             1.2420     3.4670     0.0084 O.3     
   8 C8             2.5299     4.0861    -0.0005 C.3     
   9 C9             2.3673     5.5842     0.0086 C.2     
  10 N10            2.2910     6.3756     1.1077 N.pl3   
  11 C11            2.1482     7.6606     0.6386 C.2     
  12 N12            2.1449     7.5878    -0.6821 N.2     
  13 N13            2.2795     6.3597    -1.0433 N.2     
  14 N14            2.3290     6.1318     2.4818 N.2     
  15 C15            2.2289     7.1248     3.3380 C.2     
  16 C16            2.0814     8.4542     2.8880 C.2     
  17 C17            2.0415     8.7228     1.5562 C.2     
  18 C18            2.2710     6.8444     4.7937 C.ar    
  19 C19           -1.2152    -0.7043     0.0100 C.ar    
  20 C20           -2.4012    -0.0065     0.0251 C.ar    
  21 C21           -2.4085     1.3917     0.0322 C.ar    
  22 C22           -1.2431     2.0938     0.0309 C.ar    
  23 O23           -3.5786    -0.6840     0.0328 O.3     
  24 C24           -4.7758     0.0961     0.0485 C.3     
  25 C25            2.4161     5.5332     5.2470 C.ar    
  26 C26            2.4558     5.2718     6.5983 C.ar    
  27 C27            2.3507     6.3202     7.5153 C.ar    
  28 C28            2.1713     7.8926     5.7086 C.ar    
  29 C29            2.3936     6.0408     8.9658 C.2     
  30 N30            2.2922     7.0527     9.8502 N.am    
  31 C31            2.2054     7.6328     7.0604 C.ar    
  32 C32            2.2020     8.0677    12.0527 C.2     
  33 C33            2.3347     6.7758    11.2882 C.3     
  34 O34            2.5204     4.8984     9.3613 O.2     
  35 O35            3.2159     8.8582    12.4412 O.3     
  36 C36            2.7273     9.9228    13.0981 C.2     
  37 C37            1.3865     9.8208    13.1352 C.2     
  38 C38            1.0476     8.6277    12.4567 C.2     
  39 H39            3.3370     1.8705    -0.0202 H       
  40 H40            3.2348    -0.5838    -0.0321 H       
  41 H41            3.0883     3.7758     0.8827 H       
  42 H42            3.0716     3.7849    -0.8972 H       
  43 H43            2.0001     9.2595     3.6030 H       
  44 H44            1.9287     9.7383     1.2064 H       
  45 H45           -1.2205    -1.7843     0.0039 H       
  46 H46           -3.3501     1.9205     0.0433 H       
  47 H47           -1.2617     3.1736     0.0364 H       
  48 H48           -5.6412    -0.5666     0.0533 H       
  49 H49           -4.7911     0.7202     0.9420 H       
  50 H50           -4.8082     0.7297    -0.8378 H       
  51 H51            2.4970     4.7227     4.5378 H       
  52 H52            2.5677     4.2565     6.9491 H       
  53 H53            2.0635     8.9079     5.3565 H       
  54 H54            2.1910     7.9644     9.5347 H       
  55 H55            2.1237     8.4440     7.7686 H       
  56 H56            1.5138     6.1101    11.5545 H       
  57 H57            3.2834     6.3011    11.5389 H       
  58 H58            3.3118    10.7247    13.5246 H       
  59 H59            0.7004    10.5184    13.5924 H       
  60 H60            0.0531     8.2374    12.2988 H       
@<TRIPOS>BOND
   1    1    2 ar
   2    1    3 ar
   3    1   22 ar
   4    2   19 ar
   5    2    6 ar
   6    3    4 ar
   7    3    7 1
   8    4    5 ar
   9    4   39 1
  10    5    6 ar
  11    5   40 1
  12    7    8 1
  13    8    9 1
  14    8   41 1
  15    8   42 1
  16    9   10 1
  17    9   13 2
  18   10   11 1
  19   10   14 1
  20   11   12 2
  21   11   17 1
  22   12   13 1
  23   14   15 2
  24   15   16 1
  25   15   18 1
  26   16   17 2
  27   16   43 1
  28   17   44 1
  29   18   25 ar
  30   18   28 ar
  31   19   20 ar
  32   19   45 1
  33   20   21 ar
  34   20   23 1
  35   21   22 ar
  36   21   46 1
  37   22   47 1
  38   23   24 1
  39   24   48 1
  40   24   49 1
  41   24   50 1
  42   25   26 ar
  43   25   51 1
  44   26   27 ar
  45   26   52 1
  46   27   31 ar
  47   27   29 1
  48   28   31 ar
  49   28   53 1
  50   29   30 am
  51   29   34 2
  52   30   33 1
  53   30   54 1
  54   31   55 1
  55   32   33 1
  56   32   35 1
  57   32   38 2
  58   33   56 1
  59   33   57 1
  60   35   36 1
  61   36   37 2
  62   36   58 1
  63   37   38 1
  64   37   59 1
  65   38   60 1

#	End of record

