#	Name: ASD02408132
#	Creating user name:	WinNT
#	Creation time:	15. 06. 2019 20:21

#	Modifying user name:	WinNT
#	Modification time:	15. 06. 2019 20:21

#	Program:	/corina/corina34_cracker 3.40 0067  02.08.2006

@<TRIPOS>MOLECULE
ASD02408132
  41   43    0    0    0
SMALL
NO_CHARGES


@<TRIPOS>ATOM
   1 C1             0.2414     1.3331    -0.0149 C.ar    
   2 C2             0.3230    -0.0478    -0.0158 C.ar    
   3 C3             1.3966     2.0938     0.0251 C.ar    
   4 C4             2.6309     1.4737     0.0640 C.ar    
   5 C5             2.7118     0.0935     0.0631 C.ar    
   6 C6             1.5583    -0.6670     0.0232 C.ar    
   7 C7             1.3086     3.5983     0.0256 C.3     
   8 C8             1.1089     4.0893     1.4363 C.2     
   9 N9             1.0049     5.4143     1.6560 N.am    
  10 N10            1.0372     3.2162     2.4041 N.2     
  11 C11            0.8602     3.5944     3.6765 C.2     
  12 C12            0.7490     4.9619     3.9777 C.2     
  13 C13            0.8251     5.8889     2.9066 C.2     
  14 N14            0.7877     2.6554     4.6760 N.pl3   
  15 C15            1.2764     2.8299     6.0559 C.3     
  16 O16            0.7347     7.0871     3.1115 O.2     
  17 Cl17          -1.3094     2.1114    -0.0710 Cl      
  18 C18            1.5403     1.3919     6.5680 C.3     
  19 C19            0.3725     0.6086     5.9122 C.3     
  20 C20            0.2042     1.3119     4.5488 C.3     
  21 C21           -1.2809     1.4133     4.1954 C.3     
  22 O22           -1.9854     2.0352     5.2720 O.3     
  23 C23            0.5590     5.4068     5.3255 C.1     
  24 N24            0.4083     5.7597     6.3947 N.1     
  25 H25           -0.5783    -0.6421    -0.0466 H       
  26 H26            3.5326     2.0674     0.0948 H       
  27 H27            3.6767    -0.3907     0.0935 H       
  28 H28            1.6221    -1.7451     0.0221 H       
  29 H29            2.2310     4.0163    -0.3775 H       
  30 H30            0.4669     3.9132    -0.5913 H       
  31 H31            1.0599     6.0318     0.9100 H       
  32 H32            2.1993     3.4098     6.0610 H       
  33 H33            0.5177     3.3174     6.6682 H       
  34 H34            2.5040     1.0230     6.2170 H       
  35 H35            1.4789     1.3470     7.6553 H       
  36 H36            0.6389    -0.4398     5.7776 H       
  37 H37           -0.5368     0.7033     6.5058 H       
  38 H38            0.7341     0.7547     3.7763 H       
  39 H39           -1.3993     2.0100     3.2910 H       
  40 H40           -1.6833     0.4144     4.0269 H       
  41 H41           -2.9348     2.1325     5.1166 H       
@<TRIPOS>BOND
   1    1    2 ar
   2    1    3 ar
   3    1   17 1
   4    2    6 ar
   5    2   25 1
   6    3    4 ar
   7    3    7 1
   8    4    5 ar
   9    4   26 1
  10    5    6 ar
  11    5   27 1
  12    6   28 1
  13    7    8 1
  14    7   29 1
  15    7   30 1
  16    8    9 1
  17    8   10 2
  18    9   13 am
  19    9   31 1
  20   10   11 1
  21   11   12 2
  22   11   14 1
  23   12   13 1
  24   12   23 1
  25   13   16 2
  26   14   15 1
  27   14   20 1
  28   15   18 1
  29   15   32 1
  30   15   33 1
  31   18   19 1
  32   18   34 1
  33   18   35 1
  34   19   20 1
  35   19   36 1
  36   19   37 1
  37   20   21 1
  38   20   38 1
  39   21   22 1
  40   21   39 1
  41   21   40 1
  42   22   41 1
  43   23   24 3

#	End of record

