#	Name: ASD01410090
#	Creating user name:	WinNT
#	Creation time:	15. 06. 2019 19:16

#	Modifying user name:	WinNT
#	Modification time:	15. 06. 2019 19:16

#	Program:	/corina/corina34_cracker 3.40 0067  02.08.2006

@<TRIPOS>MOLECULE
ASD01410090
  67   71    0    0    0
SMALL
NO_CHARGES


@<TRIPOS>ATOM
   1 C1            -0.0169     1.3986     0.0097 C.ar    
   2 C2             0.0021    -0.0041     0.0020 C.ar    
   3 C3            -1.1621    -0.7094     0.0098 C.ar    
   4 C4            -2.3912    -0.0347     0.0256 C.ar    
   5 C5            -2.4204     1.3751     0.0335 C.ar    
   6 C6            -1.2305     2.0850     0.0308 C.ar    
   7 C7            -3.7374    -0.4722     0.0366 C.2     
   8 C8            -4.5317     0.6283     0.0504 C.2     
   9 N9            -3.7465     1.7566     0.0487 N.pl3   
  10 C10           -6.0103     0.6156     0.0650 C.ar    
  11 C11           -6.7099     1.4583     0.9300 C.ar    
  12 C12           -8.0893     1.4419     0.9383 C.ar    
  13 C13           -8.7792     0.5924     0.0917 C.ar    
  14 C14           -8.0917    -0.2456    -0.7682 C.ar    
  15 C15           -6.7122    -0.2351    -0.7902 C.ar    
  16 C16           -4.2054    -1.9047     0.0331 C.3     
  17 C17            1.2513     2.1499     0.0017 C.2     
  18 O18            2.4258     1.4892    -0.0131 O.3     
  19 C19           -4.2368     3.1371     0.0614 C.3     
  20 C20           -4.3904     3.6025     1.4865 C.2     
  21 N21           -4.8314     4.8497     1.7443 N.am    
  22 O22            1.2377     3.3650     0.0083 O.2     
  23 O23           -4.1172     2.8547     2.4014 O.2     
  24 C24           -5.2063     5.8807     0.7586 C.3     
  25 C25           -6.2079     6.8245     1.4498 C.3     
  26 C26           -6.3445     6.2794     2.8903 C.3     
  27 C27           -5.0447     5.4631     3.0754 C.3     
  28 N28           -6.4119     7.3814     3.8593 N.3     
  29 C29           -7.5853     8.2296     3.6112 C.3     
  30 C30           -6.4126     6.8717     5.2370 C.3     
  31 C31           -3.6941    -2.6232    -1.2279 C.3     
  32 C32           -2.8067    -3.7878    -0.7422 C.3     
  33 C33           -3.3098    -4.0753     0.6942 C.3     
  34 C34           -3.6109    -2.6578     1.2410 C.3     
  35 H35            0.9465    -0.5277    -0.0105 H       
  36 H36           -1.1391    -1.7891     0.0034 H       
  37 H37           -1.2430     3.1649     0.0368 H       
  38 H38           -6.1725     2.1216     1.5916 H       
  39 H39           -8.6319     2.0932     1.6074 H       
  40 H40           -9.8591     0.5831     0.1024 H       
  41 H41           -8.6361    -0.9063    -1.4265 H       
  42 H42           -6.1767    -0.8894    -1.4621 H       
  43 H43           -5.2942    -1.9416     0.0682 H       
  44 H44            3.2308     2.0250    -0.0179 H       
  45 H45           -3.5251     3.7802    -0.4561 H       
  46 H46           -5.2023     3.1844    -0.4423 H       
  47 H47           -4.3222     6.4388     0.4505 H       
  48 H48           -5.6740     5.4133    -0.1079 H       
  49 H49           -5.8196     7.8429     1.4656 H       
  50 H50           -7.1710     6.7935     0.9403 H       
  51 H51           -7.2182     5.6335     2.9773 H       
  52 H52           -5.1777     4.6959     3.8382 H       
  53 H53           -4.2117     6.1187     3.3291 H       
  54 H54           -8.4917     7.6307     3.6995 H       
  55 H55           -7.6109     9.0374     4.3426 H       
  56 H56           -7.5240     8.6501     2.6075 H       
  57 H57           -5.4987     6.3050     5.4152 H       
  58 H58           -6.4630     7.7083     5.9339 H       
  59 H59           -7.2765     6.2236     5.3842 H       
  60 H60           -4.5347    -3.0095    -1.8043 H       
  61 H61           -3.1075    -1.9357    -1.8373 H       
  62 H62           -2.9446    -4.6630    -1.3771 H       
  63 H63           -1.7588    -3.4881    -0.7265 H       
  64 H64           -4.2156    -4.6813     0.6721 H       
  65 H65           -2.5334    -4.5606     1.2855 H       
  66 H66           -2.6929    -2.1756     1.5770 H       
  67 H67           -4.3357    -2.7084     2.0535 H       
@<TRIPOS>BOND
   1    1    2 ar
   2    1   17 1
   3    1    6 ar
   4    2    3 ar
   5    2   35 1
   6    3    4 ar
   7    3   36 1
   8    4    5 ar
   9    4    7 1
  10    5    6 ar
  11    5    9 1
  12    6   37 1
  13    7    8 2
  14    7   16 1
  15    8    9 1
  16    8   10 1
  17    9   19 1
  18   10   11 ar
  19   10   15 ar
  20   11   12 ar
  21   11   38 1
  22   12   13 ar
  23   12   39 1
  24   13   14 ar
  25   13   40 1
  26   14   15 ar
  27   14   41 1
  28   15   42 1
  29   16   31 1
  30   16   34 1
  31   16   43 1
  32   17   18 1
  33   17   22 2
  34   18   44 1
  35   19   20 1
  36   19   45 1
  37   19   46 1
  38   20   21 am
  39   20   23 2
  40   21   24 1
  41   21   27 1
  42   24   25 1
  43   24   47 1
  44   24   48 1
  45   25   26 1
  46   25   49 1
  47   25   50 1
  48   26   27 1
  49   26   28 1
  50   26   51 1
  51   27   52 1
  52   27   53 1
  53   28   29 1
  54   28   30 1
  55   29   54 1
  56   29   55 1
  57   29   56 1
  58   30   57 1
  59   30   58 1
  60   30   59 1
  61   31   32 1
  62   31   60 1
  63   31   61 1
  64   32   33 1
  65   32   62 1
  66   32   63 1
  67   33   34 1
  68   33   64 1
  69   33   65 1
  70   34   66 1
  71   34   67 1

#	End of record

