#	Name: ASD03090288
#	Creating user name:	WinNT
#	Creation time:	15. 06. 2019 20:28

#	Modifying user name:	WinNT
#	Modification time:	15. 06. 2019 20:28

#	Program:	/corina/corina34_cracker 3.40 0067  02.08.2006

@<TRIPOS>MOLECULE
ASD03090288
  43   45    0    0    0
SMALL
NO_CHARGES


@<TRIPOS>ATOM
   1 N1             0.4438     1.5121     1.4654 N.ar    
   2 C2             0.4063     0.1940     1.4315 C.ar    
   3 C3             1.5335    -0.5391     1.1216 C.ar    
   4 C4             2.7262     0.1363     0.8414 C.ar    
   5 C5             2.7199     1.5345     0.8890 C.ar    
   6 C6             1.5471     2.1878     1.2079 C.ar    
   7 C7             3.9605    -0.6077     0.5045 C.2     
   8 N8             5.7410    -3.4562    -0.5293 N.pl3   
   9 C9             4.8142    -4.4467    -0.8749 C.ar    
  10 C10            3.5988    -4.0922    -1.4452 C.ar    
  11 C11            2.6851    -5.0702    -1.7863 C.ar    
  12 C12            2.9812    -6.4059    -1.5593 C.ar    
  13 C13            4.1953    -6.7610    -0.9896 C.ar    
  14 C14            5.1121    -5.7850    -0.6528 C.ar    
  15 N15            4.0254    -1.8637     0.1108 N.2     
  16 C16            5.2972    -2.2027    -0.1042 C.2     
  17 N17            6.0651    -1.1674     0.1491 N.2     
  18 N18            5.2194    -0.1170     0.5408 N.pl3   
  19 C19            5.6225     1.2387     0.9225 C.3     
  20 C20            5.7278     2.1111    -0.3300 C.3     
  21 O21            6.1210     3.4336     0.0423 O.3     
  22 O22            2.0808    -7.3682    -1.8951 O.3     
  23 C23            0.8510    -6.9312    -2.4771 C.3     
  24 C24            4.5157    -8.2128    -0.7430 C.3     
  25 F25            5.7857    -8.3185    -0.1659 F       
  26 F26            3.5629    -8.7601     0.1229 F       
  27 F27            4.4960    -8.9074    -1.9572 F       
  28 H28           -0.5190    -0.3184     1.6496 H       
  29 H29            1.4956    -1.6182     1.0960 H       
  30 H30            3.6196     2.0941     0.6797 H       
  31 H31            1.5322     3.2670     1.2472 H       
  32 H32            6.6916    -3.6408    -0.5852 H       
  33 H33            3.3678    -3.0520    -1.6216 H       
  34 H34            1.7395    -4.7946    -2.2295 H       
  35 H35            6.0573    -6.0617    -0.2096 H       
  36 H36            4.8796     1.6619     1.5986 H       
  37 H37            6.5903     1.2028     1.4227 H       
  38 H38            6.4708     1.6880    -1.0061 H       
  39 H39            4.7601     2.1471    -0.8302 H       
  40 H40            6.2078     4.0428    -0.7036 H       
  41 H41            0.2253    -7.7963    -2.6966 H       
  42 H42            0.3316    -6.2749    -1.7789 H       
  43 H43            1.0581    -6.3892    -3.3998 H       
@<TRIPOS>BOND
   1    1    2 ar
   2    1    6 ar
   3    2    3 ar
   4    2   28 1
   5    3    4 ar
   6    3   29 1
   7    4    5 ar
   8    4    7 1
   9    5    6 ar
  10    5   30 1
  11    6   31 1
  12    7   15 2
  13    7   18 1
  14    8    9 1
  15    8   16 1
  16    8   32 1
  17    9   10 ar
  18    9   14 ar
  19   10   11 ar
  20   10   33 1
  21   11   12 ar
  22   11   34 1
  23   12   13 ar
  24   12   22 1
  25   13   14 ar
  26   13   24 1
  27   14   35 1
  28   15   16 1
  29   16   17 2
  30   17   18 1
  31   18   19 1
  32   19   20 1
  33   19   36 1
  34   19   37 1
  35   20   21 1
  36   20   38 1
  37   20   39 1
  38   21   40 1
  39   22   23 1
  40   23   41 1
  41   23   42 1
  42   23   43 1
  43   24   25 1
  44   24   26 1
  45   24   27 1

#	End of record

