#	Name: ASD01915440
#	Creating user name:	WinNT
#	Creation time:	15. 06. 2019 20:05

#	Modifying user name:	WinNT
#	Modification time:	15. 06. 2019 20:05

#	Program:	/corina/corina34_cracker 3.40 0067  02.08.2006

@<TRIPOS>MOLECULE
ASD01915440
  45   49    0    0    0
SMALL
NO_CHARGES


@<TRIPOS>ATOM
   1 N1            -0.0169     1.3936     0.0097 N.pl3   
   2 N2             0.0021    -0.0041     0.0020 N.2     
   3 C3             1.2407    -0.4349    -0.0121 C.2     
   4 C4             2.1134     0.7408    -0.0141 C.ar    
   5 C5             1.2676     1.8669    -0.0000 C.ar    
   6 N6             1.7797     3.0923     0.0021 N.ar    
   7 C7             3.5084     0.9202    -0.0272 C.ar    
   8 C8             4.0014     2.2380    -0.0255 C.ar    
   9 C9             3.0831     3.3084    -0.0088 C.ar    
  10 C10            1.6770    -1.8517    -0.0232 C.ar    
  11 C11            0.9452    -2.8143     0.6707 C.ar    
  12 C12            1.3553    -4.1317     0.6568 C.ar    
  13 C13            2.4916    -4.4981    -0.0442 C.ar    
  14 C14            3.2219    -3.5460    -0.7349 C.ar    
  15 C15            2.8172    -2.2270    -0.7322 C.ar    
  16 C16            5.4113     2.4882    -0.0380 C.1     
  17 N17            6.5298     2.6866    -0.0480 N.1     
  18 C18            3.5892     4.7005    -0.0063 C.ar    
  19 C19            2.8935     5.6996    -0.6866 C.ar    
  20 C20            3.3698     6.9947    -0.6801 C.ar    
  21 C21            4.5348     7.3028    -0.0007 C.ar    
  22 C22            5.2295     6.3160     0.6756 C.ar    
  23 C23            4.7602     5.0184     0.6812 C.ar    
  24 C24            4.4275    -0.2391    -0.0417 C.ar    
  25 C25            5.2516    -0.4662    -1.1448 C.ar    
  26 C26            6.1064    -1.5491    -1.1521 C.ar    
  27 C27            6.1474    -2.4092    -0.0691 C.ar    
  28 C28            5.3329    -2.1897     1.0276 C.ar    
  29 C29            4.4782    -1.1069     1.0500 C.ar    
  30 Cl30           3.0028    -6.1571    -0.0566 Cl      
  31 H31           -0.8163     1.9429     0.0166 H       
  32 H32            0.0591    -2.5294     1.2184 H       
  33 H33            0.7891    -4.8782     1.1940 H       
  34 H34            4.1077    -3.8370    -1.2799 H       
  35 H35            3.3852    -1.4857    -1.2746 H       
  36 H36            1.9841     5.4602    -1.2176 H       
  37 H37            2.8321     7.7692    -1.2069 H       
  38 H38            4.9036     8.3179     0.0015 H       
  39 H39            6.1388     6.5625     1.2036 H       
  40 H40            5.3008     4.2498     1.2136 H       
  41 H41            5.2201     0.2040    -1.9910 H       
  42 H42            6.7447    -1.7260    -2.0052 H       
  43 H43            6.8178    -3.2559    -0.0801 H       
  44 H44            5.3696    -2.8647     1.8698 H       
  45 H45            3.8462    -0.9340     1.9085 H       
@<TRIPOS>BOND
   1    1    2 1
   2    1    5 1
   3    1   31 1
   4    2    3 2
   5    3    4 1
   6    3   10 1
   7    4    7 ar
   8    4    5 ar
   9    5    6 ar
  10    6    9 ar
  11    7    8 ar
  12    7   24 1
  13    8    9 ar
  14    8   16 1
  15    9   18 1
  16   10   11 ar
  17   10   15 ar
  18   11   12 ar
  19   11   32 1
  20   12   13 ar
  21   12   33 1
  22   13   14 ar
  23   13   30 1
  24   14   15 ar
  25   14   34 1
  26   15   35 1
  27   16   17 3
  28   18   19 ar
  29   18   23 ar
  30   19   20 ar
  31   19   36 1
  32   20   21 ar
  33   20   37 1
  34   21   22 ar
  35   21   38 1
  36   22   23 ar
  37   22   39 1
  38   23   40 1
  39   24   25 ar
  40   24   29 ar
  41   25   26 ar
  42   25   41 1
  43   26   27 ar
  44   26   42 1
  45   27   28 ar
  46   27   43 1
  47   28   29 ar
  48   28   44 1
  49   29   45 1

#	End of record

