#	Name: ASD01913040
#	Creating user name:	WinNT
#	Creation time:	15. 06. 2019 20:00

#	Modifying user name:	WinNT
#	Modification time:	15. 06. 2019 20:00

#	Program:	/corina/corina34_cracker 3.40 0067  02.08.2006

@<TRIPOS>MOLECULE
ASD01913040
  41   43    0    0    0
SMALL
NO_CHARGES


@<TRIPOS>ATOM
   1 C1            -0.0173     1.4278     0.0099 C.ar    
   2 C2             0.0021    -0.0041     0.0020 C.1     
   3 C3             0.0180    -1.1779    -0.0044 C.1     
   4 C4             0.0374    -2.6098    -0.0123 C.ar    
   5 C5            -1.2411     2.1034     0.0310 C.ar    
   6 C6            -1.1612    -3.3283    -0.0047 C.ar    
   7 C7            -1.1346    -4.7072    -0.0129 C.ar    
   8 C8             0.0750    -5.3793    -0.0285 C.ar    
   9 C9             1.2659    -4.6745    -0.0356 C.ar    
  10 C10            1.2550    -3.2954    -0.0335 C.ar    
  11 N11            1.1287     2.1018     0.0026 N.ar    
  12 C12            1.1561     3.4177     0.0098 C.ar    
  13 C13           -0.0230     4.1547     0.0255 C.ar    
  14 C14           -1.2465     3.4845     0.0389 C.ar    
  15 C15            1.1404     7.6345     0.6449 C.3     
  16 C16            1.3065     6.2454     0.0253 C.3     
  17 N17            0.0172     5.5497     0.0335 N.pl3   
  18 C18            2.4869     8.3610     0.6364 C.3     
  19 C19            2.9817     8.5012    -0.8046 C.3     
  20 C20            3.1478     7.1121    -1.4242 C.3     
  21 C21            1.8013     6.3856    -1.4156 C.3     
  22 H22           -2.1701     1.5526     0.0407 H       
  23 H23           -2.1059    -2.8052     0.0078 H       
  24 H24           -2.0601    -5.2639    -0.0067 H       
  25 H25            0.0896    -6.4591    -0.0348 H       
  26 H26            2.2061    -5.2058    -0.0475 H       
  27 H27            2.1852    -2.7467    -0.0394 H       
  28 H28            2.1061     3.9314     0.0038 H       
  29 H29           -2.1767     4.0332     0.0512 H       
  30 H30            0.4154     8.2063     0.0658 H       
  31 H31            0.7879     7.5346     1.6715 H       
  32 H32            2.0316     5.6736     0.6045 H       
  33 H33           -0.8084     6.0587     0.0444 H       
  34 H34            2.3686     9.3506     1.0778 H       
  35 H35            3.2120     7.7892     1.2155 H       
  36 H36            2.2566     9.0730    -1.3837 H       
  37 H37            3.9409     9.0188    -0.8106 H       
  38 H38            3.5002     7.2120    -2.4507 H       
  39 H39            3.8728     6.5403    -0.8450 H       
  40 H40            1.9196     5.3960    -1.8571 H       
  41 H41            1.0762     6.9574    -1.9948 H       
@<TRIPOS>BOND
   1    1    2 1
   2    1   11 ar
   3    1    5 ar
   4    2    3 3
   5    3    4 1
   6    4    6 ar
   7    4   10 ar
   8    5   14 ar
   9    5   22 1
  10    6    7 ar
  11    6   23 1
  12    7    8 ar
  13    7   24 1
  14    8    9 ar
  15    8   25 1
  16    9   10 ar
  17    9   26 1
  18   10   27 1
  19   11   12 ar
  20   12   13 ar
  21   12   28 1
  22   13   14 ar
  23   13   17 1
  24   14   29 1
  25   15   16 1
  26   15   18 1
  27   15   30 1
  28   15   31 1
  29   16   17 1
  30   16   21 1
  31   16   32 1
  32   17   33 1
  33   18   19 1
  34   18   34 1
  35   18   35 1
  36   19   20 1
  37   19   36 1
  38   19   37 1
  39   20   21 1
  40   20   38 1
  41   20   39 1
  42   21   40 1
  43   21   41 1

#	End of record

