#	Name: ASD03730853
#	Creating user name:	WinNT
#	Creation time:	15. 06. 2019 20:44

#	Modifying user name:	WinNT
#	Modification time:	15. 06. 2019 20:44

#	Program:	/corina/corina34_cracker 3.40 0067  02.08.2006

@<TRIPOS>MOLECULE
ASD03730853
  66   73    0    0    0
SMALL
NO_CHARGES


@<TRIPOS>ATOM
   1 C1             1.8367    -0.9550    -2.1215 C.2     
   2 C2             0.9533    -1.1637    -0.9545 C.ar    
   3 C3             1.3808    -0.7969     0.3228 C.ar    
   4 C4             0.5515    -0.9938     1.4073 C.ar    
   5 C5            -0.7016    -1.5541     1.2313 C.ar    
   6 C6            -1.1313    -1.9197    -0.0318 C.ar    
   7 C7            -0.3138    -1.7228    -1.1258 C.ar    
   8 O8             2.8948    -0.3721    -1.9863 O.2     
   9 N9             1.4715    -1.4160    -3.3342 N.am    
  10 C10            2.7454    -0.1876     0.5165 C.3     
  11 O11            0.1744    -2.8397     6.6847 O.3     
  12 C12            0.0983    -2.8874     8.1217 C.3     
  13 O13            1.4596    -2.6827     8.5435 O.3     
  14 C14            2.0465    -1.9577     7.5462 C.ar    
  15 C15            1.2563    -2.0555     6.4031 C.ar    
  16 C16            3.2096    -1.2092     7.5210 C.ar    
  17 C17            3.5999    -0.5516     6.3583 C.ar    
  18 C18            2.8066    -0.6635     5.2205 C.ar    
  19 C19            1.6432    -1.4040     5.2441 C.ar    
  20 O20            4.6855     0.2410     6.1276 O.3     
  21 C21            3.4963     0.1225     4.1378 C.3     
  22 C22            4.9037     0.3464     4.7074 C.3     
  23 N23            2.9243     0.1719     1.9254 N.am    
  24 C24            3.5320    -0.6187     2.8324 C.2     
  25 C25            2.8003     1.4176     3.8409 C.ar    
  26 C26            2.4627     2.5130     4.6040 C.ar    
  27 C27            1.8059     3.5846     4.0257 C.ar    
  28 C28            1.4888     3.5526     2.6799 C.ar    
  29 C29            1.8239     2.4572     1.9115 C.ar    
  30 C30            2.4855     1.3742     2.4852 C.ar    
  31 O31            4.0137    -1.7139     2.6330 O.2     
  32 C32            2.2985    -1.1252    -4.5079 C.3     
  33 C33            2.0381    -2.1659    -5.6177 C.3     
  34 C34            0.9306    -1.4891    -6.4531 C.3     
  35 C35            1.1177    -0.0037    -6.2297 C.ar    
  36 C36            0.6382     1.0792    -6.9475 C.ar    
  37 C37            0.9428     2.3663    -6.5502 C.ar    
  38 C38            1.7289     2.5755    -5.4323 C.ar    
  39 C39            2.2080     1.4969    -4.7151 C.ar    
  40 C40            1.9036     0.2054    -5.1120 C.ar    
  41 H41            0.8810    -0.7105     2.3960 H       
  42 H42           -1.3467    -1.7068     2.0838 H       
  43 H43           -2.1103    -2.3565    -0.1624 H       
  44 H44           -0.6520    -2.0050    -2.1119 H       
  45 H45            0.6610    -1.9403    -3.4298 H       
  46 H46            3.5097    -0.9082     0.2255 H       
  47 H47            2.8351     0.7063    -0.1008 H       
  48 H48           -0.5432    -2.0904     8.4979 H       
  49 H49           -0.2634    -3.8605     8.4539 H       
  50 H50            3.8188    -1.1347     8.4096 H       
  51 H51            1.0325    -1.4762     4.3562 H       
  52 H52            5.2744     1.3372     4.4452 H       
  53 H53            5.5887    -0.4282     4.3625 H       
  54 H54            2.7112     2.5358     5.6548 H       
  55 H55            1.5418     4.4443     4.6237 H       
  56 H56            0.9759     4.3890     2.2285 H       
  57 H57            1.5723     2.4393     0.8614 H       
  58 H58            3.3536    -1.1199    -4.2345 H       
  59 H59            2.9339    -2.3246    -6.2179 H       
  60 H60            1.6837    -3.1050    -5.1927 H       
  61 H61            1.0522    -1.7310    -7.5089 H       
  62 H62           -0.0526    -1.8033    -6.1030 H       
  63 H63            0.0244     0.9167    -7.8211 H       
  64 H64            0.5676     3.2087    -7.1124 H       
  65 H65            1.9684     3.5813    -5.1204 H       
  66 H66            2.8220     1.6610    -3.8420 H       
@<TRIPOS>BOND
   1    1    2 1
   2    1    8 2
   3    1    9 am
   4    2    3 ar
   5    2    7 ar
   6    3    4 ar
   7    3   10 1
   8    4    5 ar
   9    4   41 1
  10    5    6 ar
  11    5   42 1
  12    6    7 ar
  13    6   43 1
  14    7   44 1
  15    9   32 1
  16    9   45 1
  17   10   23 1
  18   10   46 1
  19   10   47 1
  20   11   12 1
  21   11   15 1
  22   12   13 1
  23   12   48 1
  24   12   49 1
  25   13   14 1
  26   14   15 ar
  27   14   16 ar
  28   15   19 ar
  29   16   17 ar
  30   16   50 1
  31   17   18 ar
  32   17   20 1
  33   18   19 ar
  34   18   21 1
  35   19   51 1
  36   20   22 1
  37   21   22 1
  38   21   24 1
  39   21   25 1
  40   22   52 1
  41   22   53 1
  42   23   24 am
  43   23   30 1
  44   24   31 2
  45   25   26 ar
  46   25   30 ar
  47   26   27 ar
  48   26   54 1
  49   27   28 ar
  50   27   55 1
  51   28   29 ar
  52   28   56 1
  53   29   30 ar
  54   29   57 1
  55   32   33 1
  56   32   40 1
  57   32   58 1
  58   33   34 1
  59   33   59 1
  60   33   60 1
  61   34   35 1
  62   34   61 1
  63   34   62 1
  64   35   36 ar
  65   35   40 ar
  66   36   37 ar
  67   36   63 1
  68   37   38 ar
  69   37   64 1
  70   38   39 ar
  71   38   65 1
  72   39   40 ar
  73   39   66 1

#	End of record

