#	Name: ASD01813355
#	Creating user name:	WinNT
#	Creation time:	15. 06. 2019 19:30

#	Modifying user name:	WinNT
#	Modification time:	15. 06. 2019 19:30

#	Program:	/corina/corina34_cracker 3.40 0067  02.08.2006

@<TRIPOS>MOLECULE
ASD01813355
  46   49    0    0    0
SMALL
NO_CHARGES


@<TRIPOS>ATOM
   1 C1            -0.0169     1.3972     0.0097 C.2     
   2 C2             0.0021    -0.0041     0.0020 C.2     
   3 C3             1.1986    -0.6593    -0.0129 C.2     
   4 C4             2.3918     0.0821    -0.0204 C.2     
   5 N5             2.3437     1.4497    -0.0122 N.am    
   6 C6             1.1421     2.0937     0.0024 C.2     
   7 C7             3.6227    -0.5889    -0.0356 C.2     
   8 C8             4.7877     0.1218    -0.0425 C.2     
   9 C9             4.7345     1.5280    -0.0346 C.2     
  10 C10            3.4812     2.1736    -0.0189 C.2     
  11 O11            3.4258     3.3917    -0.0123 O.2     
  12 C12            5.9703     2.3140    -0.0413 C.2     
  13 O13            5.9124     3.6618    -0.0337 O.3     
  14 O14            7.0487     1.7516    -0.0537 O.2     
  15 C15            3.6593    -2.0954    -0.0439 C.3     
  16 C16            3.7837    -2.5946    -1.4848 C.3     
  17 N17            3.8194    -4.0631    -1.4929 N.3     
  18 C18            2.5421    -4.6223    -1.0391 C.3     
  19 C19            2.5562    -6.1247    -1.1462 C.ar    
  20 C20            3.4802    -6.7897    -1.9229 C.ar    
  21 C21            4.5349    -6.0503    -2.7054 C.3     
  22 C22            4.1526    -4.5752    -2.8317 C.3     
  23 C23            1.6061    -6.8461    -0.4379 C.ar    
  24 C24            1.5794    -8.2242    -0.5090 C.ar    
  25 C25            2.5042    -8.8917    -1.2902 C.ar    
  26 C26            3.4525    -8.1755    -1.9948 C.ar    
  27 Cl27           4.6137    -9.0129    -2.9767 Cl      
  28 H28           -0.9605     1.9226     0.0170 H       
  29 H29           -0.9233    -0.5609     0.0082 H       
  30 H30            1.2282    -1.7389    -0.0187 H       
  31 H31            1.1156     3.1733     0.0087 H       
  32 H32            5.7393    -0.3889    -0.0536 H       
  33 H33            6.7544     4.1373    -0.0385 H       
  34 H34            4.5153    -2.4412     0.5356 H       
  35 H35            2.7412    -2.4836     0.3971 H       
  36 H36            2.9277    -2.2488    -2.0643 H       
  37 H37            4.7018    -2.2064    -1.9259 H       
  38 H38            2.3734    -4.3373    -0.0006 H       
  39 H39            1.7361    -4.2252    -1.6560 H       
  40 H40            5.4921    -6.1332    -2.1906 H       
  41 H41            4.6213    -6.4883    -3.6998 H       
  42 H42            3.2878    -4.4759    -3.4877 H       
  43 H43            4.9923    -4.0130    -3.2404 H       
  44 H44            0.8827    -6.3261     0.1726 H       
  45 H45            0.8375    -8.7802     0.0450 H       
  46 H46            2.4860    -9.9699    -1.3489 H       
@<TRIPOS>BOND
   1    1    2 1
   2    1    6 2
   3    1   28 1
   4    2    3 2
   5    2   29 1
   6    3    4 1
   7    3   30 1
   8    4    5 1
   9    4    7 2
  10    5    6 1
  11    5   10 am
  12    6   31 1
  13    7    8 1
  14    7   15 1
  15    8    9 2
  16    8   32 1
  17    9   10 1
  18    9   12 1
  19   10   11 2
  20   12   13 1
  21   12   14 2
  22   13   33 1
  23   15   16 1
  24   15   34 1
  25   15   35 1
  26   16   17 1
  27   16   36 1
  28   16   37 1
  29   17   18 1
  30   17   22 1
  31   18   19 1
  32   18   38 1
  33   18   39 1
  34   19   20 ar
  35   19   23 ar
  36   20   21 1
  37   20   26 ar
  38   21   22 1
  39   21   40 1
  40   21   41 1
  41   22   42 1
  42   22   43 1
  43   23   24 ar
  44   23   44 1
  45   24   25 ar
  46   24   45 1
  47   25   26 ar
  48   25   46 1
  49   26   27 1

#	End of record

