#	Name: ASD05940089
#	Creating user name:	WinNT
#	Creation time:	15. 06. 2019 21:04

#	Modifying user name:	WinNT
#	Modification time:	15. 06. 2019 21:04

#	Program:	/corina/corina34_cracker 3.40 0067  02.08.2006

@<TRIPOS>MOLECULE
ASD05940089
  67   71    0    0    0
SMALL
NO_CHARGES


@<TRIPOS>ATOM
   1 N1             0.2021     1.5564     0.6934 N.ar    
   2 C2             0.1193     0.2378     0.6377 C.ar    
   3 N3             1.1795    -0.5225     0.4181 N.ar    
   4 C4             2.3817     0.0211     0.2435 C.ar    
   5 C5             2.5070     1.4090     0.2745 C.ar    
   6 C6             1.3682     2.1758     0.5177 C.ar    
   7 N7             1.4483     3.5606     0.5757 N.pl3   
   8 O8            -1.0881    -0.3526     0.8113 O.3     
   9 C9            -2.2038     0.5089     1.0462 C.3     
  10 C10           -3.4705    -0.3320     1.2166 C.3     
  11 N11            3.4955    -0.7833     0.0649 N.3     
  12 C12            3.9270    -0.8298    -1.3367 C.3     
  13 C13            3.9026     0.5741    -1.9382 C.3     
  14 C14            4.4573     1.6628    -1.0509 C.2     
  15 N15            3.7448     2.0285     0.0397 N.am    
  16 O16            5.5156     2.1964    -1.3095 O.2     
  17 C17            3.2576    -2.1354     0.5877 C.3     
  18 C18            4.4507    -3.0064     0.2892 C.ar    
  19 C19            5.5418    -2.9982     1.1376 C.ar    
  20 C20            6.6363    -3.7973     0.8638 C.ar    
  21 C21            6.6392    -4.6046    -0.2581 C.ar    
  22 C22            5.5474    -4.6135    -1.1062 C.ar    
  23 C23            4.4514    -3.8179    -0.8301 C.ar    
  24 C24           -4.6650     0.5904     1.4681 C.3     
  25 C25           -5.9318    -0.2506     1.6385 C.3     
  26 N26            4.9873    -6.8068    -1.9897 N.3     
  27 C27            4.7534    -7.6115    -3.2029 C.3     
  28 C28            5.5360    -8.9308    -3.0343 C.3     
  29 C29            5.7076    -9.0413    -1.4964 C.3     
  30 C30            5.8943    -7.5569    -1.0949 C.3     
  31 C31            5.5507    -5.4934    -2.3296 C.3     
  32 C32            4.1251     0.7094    -3.4448 C.3     
  33 C33            2.7325     0.9378    -2.8531 C.3     
  34 H34            2.3018     4.0029     0.4465 H       
  35 H35            0.6506     4.0859     0.7455 H       
  36 H36           -2.0294     1.0907     1.9513 H       
  37 H37           -2.3267     1.1834     0.1988 H       
  38 H38           -3.6449    -0.9138     0.3115 H       
  39 H39           -3.3476    -1.0065     2.0640 H       
  40 H40            4.9399    -1.2287    -1.3902 H       
  41 H41            3.2550    -1.4767    -1.9007 H       
  42 H42            4.0824     2.7053     0.6470 H       
  43 H43            3.1041    -2.0864     1.6657 H       
  44 H44            2.3717    -2.5577     0.1134 H       
  45 H45            5.5395    -2.3674     2.0142 H       
  46 H46            7.4892    -3.7903     1.5263 H       
  47 H47            7.4945    -5.2283    -0.4724 H       
  48 H48            3.5985    -3.8249    -1.4926 H       
  49 H49           -4.4907     1.1721     2.3732 H       
  50 H50           -4.7880     1.2648     0.6207 H       
  51 H51           -6.1062    -0.8324     0.7334 H       
  52 H52           -5.8088    -0.9251     2.4859 H       
  53 H53           -6.7828     0.4065     1.8177 H       
  54 H54            3.6892    -7.8224    -3.3084 H       
  55 H55            5.1160    -7.0746    -4.0795 H       
  56 H56            4.9600    -9.7723    -3.4193 H       
  57 H57            6.5063    -8.8689    -3.5270 H       
  58 H58            4.8150    -9.4618    -1.0332 H       
  59 H59            6.5905    -9.6283    -1.2433 H       
  60 H60            6.9271    -7.2474    -1.2553 H       
  61 H61            5.6097    -7.4068    -0.0535 H       
  62 H62            4.9483    -5.0310    -3.1114 H       
  63 H63            6.5737    -5.6178    -2.6849 H       
  64 H64            4.6723     1.5841    -3.7962 H       
  65 H65            4.2861    -0.2062    -4.0140 H       
  66 H66            1.9775     0.1725    -3.0330 H       
  67 H67            2.3637     1.9628    -2.8152 H       
@<TRIPOS>BOND
   1    1    2 ar
   2    1    6 ar
   3    2    3 ar
   4    2    8 1
   5    3    4 ar
   6    4    5 ar
   7    4   11 1
   8    5    6 ar
   9    5   15 1
  10    6    7 1
  11    7   34 1
  12    7   35 1
  13    8    9 1
  14    9   10 1
  15    9   36 1
  16    9   37 1
  17   10   24 1
  18   10   38 1
  19   10   39 1
  20   11   12 1
  21   11   17 1
  22   12   13 1
  23   12   40 1
  24   12   41 1
  25   13   14 1
  26   13   32 1
  27   13   33 1
  28   14   15 am
  29   14   16 2
  30   15   42 1
  31   17   18 1
  32   17   43 1
  33   17   44 1
  34   18   19 ar
  35   18   23 ar
  36   19   20 ar
  37   19   45 1
  38   20   21 ar
  39   20   46 1
  40   21   22 ar
  41   21   47 1
  42   22   23 ar
  43   22   31 1
  44   23   48 1
  45   24   25 1
  46   24   49 1
  47   24   50 1
  48   25   51 1
  49   25   52 1
  50   25   53 1
  51   26   27 1
  52   26   31 1
  53   26   30 1
  54   27   28 1
  55   27   54 1
  56   27   55 1
  57   28   29 1
  58   28   56 1
  59   28   57 1
  60   29   30 1
  61   29   58 1
  62   29   59 1
  63   30   60 1
  64   30   61 1
  65   31   62 1
  66   31   63 1
  67   32   33 1
  68   32   64 1
  69   32   65 1
  70   33   66 1
  71   33   67 1

#	End of record

