#	Name: ASD01812839
#	Creating user name:	WinNT
#	Creation time:	15. 06. 2019 19:29

#	Modifying user name:	WinNT
#	Modification time:	15. 06. 2019 19:29

#	Program:	/corina/corina34_cracker 3.40 0067  02.08.2006

@<TRIPOS>MOLECULE
ASD01812839
  55   59    0    0    0
SMALL
NO_CHARGES


@<TRIPOS>ATOM
   1 N1             0.0039     1.3198    -0.2391 N.ar    
   2 C2             0.0336     0.0077    -0.3678 C.ar    
   3 C3             1.2357    -0.6827    -0.3835 C.ar    
   4 C4             2.4123     0.0212    -0.2622 C.ar    
   5 C5             2.3618     1.4134    -0.1264 C.ar    
   6 C6             1.1078     2.0401    -0.1193 C.ar    
   7 C7             3.8689    -0.3578    -0.2364 C.3     
   8 N8             4.6151     0.8969    -0.0796 N.am    
   9 C9             3.7392     1.9156    -0.0167 C.2     
  10 C10            6.0730     1.0190    -0.0036 C.3     
  11 C11            6.6348     1.2006    -1.3901 C.ar    
  12 C12            6.7863     2.4729    -1.9111 C.ar    
  13 C13            7.3008     2.6448    -3.1803 C.ar    
  14 C14            7.6677     1.5341    -3.9368 C.ar    
  15 C15            7.5131     0.2550    -3.4072 C.ar    
  16 C16            7.0025     0.0946    -2.1349 C.ar    
  17 O17            1.0258     3.3856     0.0104 O.3     
  18 O18            4.0434     3.0858     0.1125 O.2     
  19 C19           -0.2008     3.9611    -0.0792 C.ar    
  20 C20           -1.0145     4.0616     1.0572 C.ar    
  21 C21           -2.2749     4.6553     0.9548 C.ar    
  22 C22           -2.7107     5.1391    -0.2652 C.ar    
  23 C23           -1.8986     5.0362    -1.3879 C.ar    
  24 C24           -0.6492     4.4559    -1.2941 C.ar    
  25 O25           -3.9375     5.7168    -0.3664 O.3     
  26 C26            8.6190     0.7187    -6.1481 C.2     
  27 C27            8.2213     1.7130    -5.3028 C.2     
  28 C28            8.4312     2.9401    -5.9617 C.2     
  29 N29            8.9301     2.6866    -7.1425 N.2     
  30 N30            9.0574     1.2994    -7.2833 N.pl3   
  31 C31            9.5776     0.5996    -8.4605 C.3     
  32 C32           -4.3248     6.1953    -1.6560 C.3     
  33 F33           -4.3342     5.1315    -2.5646 F       
  34 F34           -5.6046     6.7553    -1.5806 F       
  35 F35           -3.4150     7.1673    -2.0855 F       
  36 C36           -0.5566     3.5578     2.3170 C.1     
  37 N37           -0.1934     3.1581     3.3164 N.1     
  38 H38           -0.8936    -0.5380    -0.4622 H       
  39 H39            1.2488    -1.7575    -0.4891 H       
  40 H40            4.0689    -1.0206     0.6055 H       
  41 H41            4.1462    -0.8446    -1.1714 H       
  42 H42            6.3339     1.8813     0.6100 H       
  43 H43            6.4905     0.1162     0.4422 H       
  44 H44            6.5011     3.3333    -1.3240 H       
  45 H45            7.4183     3.6387    -3.5864 H       
  46 H46            7.7962    -0.6094    -3.9895 H       
  47 H47            6.8861    -0.8965    -1.7218 H       
  48 H48           -2.9077     4.7359     1.8263 H       
  49 H49           -2.2447     5.4160    -2.3378 H       
  50 H50           -0.0215     4.3837    -2.1700 H       
  51 H51            8.5920    -0.3414    -5.9433 H       
  52 H52            8.2169     3.9198    -5.5609 H       
  53 H53            8.7574     0.3783    -9.1435 H       
  54 H54           10.3096     1.2308    -8.9643 H       
  55 H55           10.0527    -0.3308    -8.1497 H       
@<TRIPOS>BOND
   1    1    2 ar
   2    1    6 ar
   3    2    3 ar
   4    2   38 1
   5    3    4 ar
   6    3   39 1
   7    4    7 1
   8    4    5 ar
   9    5    6 ar
  10    5    9 1
  11    6   17 1
  12    7    8 1
  13    7   40 1
  14    7   41 1
  15    8    9 am
  16    8   10 1
  17    9   18 2
  18   10   11 1
  19   10   42 1
  20   10   43 1
  21   11   12 ar
  22   11   16 ar
  23   12   13 ar
  24   12   44 1
  25   13   14 ar
  26   13   45 1
  27   14   15 ar
  28   14   27 1
  29   15   16 ar
  30   15   46 1
  31   16   47 1
  32   17   19 1
  33   19   20 ar
  34   19   24 ar
  35   20   21 ar
  36   20   36 1
  37   21   22 ar
  38   21   48 1
  39   22   23 ar
  40   22   25 1
  41   23   24 ar
  42   23   49 1
  43   24   50 1
  44   25   32 1
  45   26   27 2
  46   26   30 1
  47   26   51 1
  48   27   28 1
  49   28   29 2
  50   28   52 1
  51   29   30 1
  52   30   31 1
  53   31   53 1
  54   31   54 1
  55   31   55 1
  56   32   33 1
  57   32   34 1
  58   32   35 1
  59   36   37 3

#	End of record

