#	Name: ASD00842939
#	Creating user name:	WinNT
#	Creation time:	15. 06. 2019 18:45

#	Modifying user name:	WinNT
#	Modification time:	15. 06. 2019 18:45

#	Program:	/corina/corina34_cracker 3.40 0067  02.08.2006

@<TRIPOS>MOLECULE
ASD00842939
  94   99    0    0    0
SMALL
NO_CHARGES


@<TRIPOS>ATOM
   1 N1            -0.0051     1.3211     0.0356 N.ar    
   2 C2             0.0089    -0.0012     0.0186 C.ar    
   3 C3             1.2117    -0.6961    -0.0014 C.ar    
   4 C4             2.3994     0.0138    -0.0034 C.ar    
   5 C5             2.3418     1.4008     0.0148 C.ar    
   6 C6             1.1109     2.0254     0.0342 C.ar    
   7 C7             1.2227    -2.2030    -0.0203 C.3     
   8 C8             0.4753    -2.7240    -1.2293 C.2     
   9 N9             2.5989    -2.7053    -0.0115 N.am    
  10 C10            3.4472    -2.3639    -1.0016 C.2     
  11 N11            4.7405    -2.7378    -0.9396 N.am    
  12 O12            3.0456    -1.7188    -1.9507 O.2     
  13 C13            5.2673    -3.4167     0.2522 C.3     
  14 C14            6.4979    -2.6530     0.7512 C.3     
  15 C15            7.5066    -2.5163    -0.3916 C.3     
  16 C16            6.8768    -1.7215    -1.5378 C.3     
  17 C17            5.6491    -2.4797    -2.0650 C.3     
  18 C18            8.7519    -1.7842     0.1124 C.3     
  19 C19            9.3841    -2.5791     1.2582 C.3     
  20 C20           10.6624    -1.8739     1.7174 C.3     
  21 N21           11.5996    -1.7744     0.5913 N.3     
  22 C22           11.0326    -0.9753    -0.5024 C.3     
  23 C23            9.7654    -1.6537    -1.0279 C.3     
  24 C24           12.8912    -1.2276     1.0281 C.3     
  25 O25            0.7566    -2.5223    -2.3917 O.2     
  26 N26           -0.5573    -3.4523    -0.7734 N.am    
  27 C27            0.4470    -2.7533     1.1549 C.ar    
  28 C28           -0.6048    -3.4913     0.6173 C.ar    
  29 C29            0.6116    -2.6424     2.5123 C.ar    
  30 C30           -0.2873    -3.2777     3.3767 C.ar    
  31 C31           -1.3470    -4.0212     2.8434 C.ar    
  32 C32           -1.5008    -4.1261     1.4776 C.ar    
  33 F33           -2.2201    -4.6382     3.6693 F       
  34 C34           -1.0266    -5.8345    -2.0693 C.ar    
  35 C35            0.1515    -5.9976    -2.7830 C.ar    
  36 C36           -1.7076    -6.9414    -1.6002 C.ar    
  37 C37           -1.2156    -8.2106    -1.8413 C.ar    
  38 C38           -0.0412    -8.3759    -2.5526 C.ar    
  39 C39            0.6431    -7.2726    -3.0241 C.ar    
  40 H40            0.3411    -9.3684    -2.7397 H       
  41 O41            0.8230    -4.9105    -3.2459 O.3     
  42 C42            2.0289    -5.1539    -3.9729 C.3     
  43 C43           13.8781    -1.2552    -0.1407 C.3     
  44 C44           12.7006     0.2150     1.5008 C.3     
  45 O45           -1.1626    -0.6856     0.0212 O.3     
  46 C46           -2.3649     0.0864     0.0427 C.3     
  47 C47           -3.5735    -0.8518     0.0424 C.3     
  48 F48           -3.5485    -1.6441    -1.1104 F       
  49 F49           -3.5264    -1.6732     1.1739 F       
  50 S50           -1.6503    -4.2169    -1.7548 S.o2    
  51 O51           -2.8323    -4.3854    -0.9842 O.2     
  52 O52           -1.6242    -3.5282    -2.9974 O.2     
  53 C53           -0.1241    -3.1685     4.7951 C.1     
  54 N54            0.0053    -3.0819     5.9204 N.1     
  55 H55            3.3496    -0.4994    -0.0185 H       
  56 H56            3.2503     1.9848     0.0142 H       
  57 H57            1.0606     3.1042     0.0481 H       
  58 H58            2.8995    -3.2835     0.7070 H       
  59 H59            4.5052    -3.4309     1.0314 H       
  60 H60            5.5499    -4.4378    -0.0039 H       
  61 H61            6.1977    -1.6621     1.0919 H       
  62 H62            6.9550    -3.1989     1.5765 H       
  63 H63            7.7876    -3.5072    -0.7483 H       
  64 H64            6.5730    -0.7394    -1.1756 H       
  65 H65            7.6035    -1.6045    -2.3417 H       
  66 H66            5.9656    -3.4231    -2.5099 H       
  67 H67            5.1388    -1.8734    -2.8134 H       
  68 H68            8.4724    -0.7924     0.4680 H       
  69 H69            8.6825    -2.6389     2.0903 H       
  70 H70            9.6269    -3.5842     0.9133 H       
  71 H71           10.4170    -0.8739     2.0751 H       
  72 H72           11.1227    -2.4450     2.5236 H       
  73 H73           10.7854     0.0205    -0.1343 H       
  74 H74           11.7617    -0.8937    -1.3085 H       
  75 H75           10.0141    -2.6442    -1.4088 H       
  76 H76            9.3362    -1.0522    -1.8292 H       
  77 H77           13.2821    -1.8300     1.8480 H       
  78 H78            1.4328    -2.0666     2.9129 H       
  79 H79           -2.3200    -4.7011     1.0716 H       
  80 H80           -2.6250    -6.8150    -1.0444 H       
  81 H81           -1.7490    -9.0745    -1.4732 H       
  82 H82            1.5598    -7.4022    -3.5802 H       
  83 H83            2.4635    -4.2039    -4.2841 H       
  84 H84            2.7360    -5.6856    -3.3362 H       
  85 H85            1.8071    -5.7576    -4.8529 H       
  86 H86           13.4871    -0.6528    -0.9607 H       
  87 H87           14.8365    -0.8495     0.1833 H       
  88 H88           14.0138    -2.2830    -0.4775 H       
  89 H89           12.3097     0.8174     0.6808 H       
  90 H90           11.9975     0.2346     2.3334 H       
  91 H91           13.6590     0.6207     1.8248 H       
  92 H92           -2.3843     0.7037     0.9408 H       
  93 H93           -2.4015     0.7264    -0.8389 H       
  94 H94           -4.4906    -0.2630     0.0588 H       
@<TRIPOS>BOND
   1    1    2 ar
   2    1    6 ar
   3    2    3 ar
   4    2   45 1
   5    3    4 ar
   6    3    7 1
   7    4    5 ar
   8    4   55 1
   9    5    6 ar
  10    5   56 1
  11    6   57 1
  12    7    8 1
  13    7    9 1
  14    7   27 1
  15    8   25 2
  16    8   26 am
  17    9   10 am
  18    9   58 1
  19   10   11 am
  20   10   12 2
  21   11   13 1
  22   11   17 1
  23   13   14 1
  24   13   59 1
  25   13   60 1
  26   14   15 1
  27   14   61 1
  28   14   62 1
  29   15   16 1
  30   15   18 1
  31   15   63 1
  32   16   17 1
  33   16   64 1
  34   16   65 1
  35   17   66 1
  36   17   67 1
  37   18   19 1
  38   18   23 1
  39   18   68 1
  40   19   20 1
  41   19   69 1
  42   19   70 1
  43   20   21 1
  44   20   71 1
  45   20   72 1
  46   21   22 1
  47   21   24 1
  48   22   23 1
  49   22   73 1
  50   22   74 1
  51   23   75 1
  52   23   76 1
  53   24   43 1
  54   24   44 1
  55   24   77 1
  56   26   50 am
  57   26   28 1
  58   27   28 ar
  59   27   29 ar
  60   28   32 ar
  61   29   30 ar
  62   29   78 1
  63   30   31 ar
  64   30   53 1
  65   31   32 ar
  66   31   33 1
  67   32   79 1
  68   34   35 ar
  69   34   36 ar
  70   34   50 1
  71   35   41 1
  72   35   39 ar
  73   36   37 ar
  74   36   80 1
  75   37   38 ar
  76   37   81 1
  77   38   39 ar
  78   38   40 1
  79   39   82 1
  80   41   42 1
  81   42   83 1
  82   42   84 1
  83   42   85 1
  84   43   86 1
  85   43   87 1
  86   43   88 1
  87   44   89 1
  88   44   90 1
  89   44   91 1
  90   45   46 1
  91   46   47 1
  92   46   92 1
  93   46   93 1
  94   47   48 1
  95   47   49 1
  96   47   94 1
  97   50   51 2
  98   50   52 2
  99   53   54 3

#	End of record

