#	Name: ASD03092492
#	Creating user name:	WinNT
#	Creation time:	15. 06. 2019 20:32

#	Modifying user name:	WinNT
#	Modification time:	15. 06. 2019 20:32

#	Program:	/corina/corina34_cracker 3.40 0067  02.08.2006

@<TRIPOS>MOLECULE
ASD03092492
  59   62    0    0    0
SMALL
NO_CHARGES


@<TRIPOS>ATOM
   1 C1            -0.1267     1.4450     0.0219 C.2     
   2 C2            -0.1635    -0.0317     0.0286 C.ar    
   3 C3             1.0115    -0.7629    -0.1601 C.ar    
   4 C4             0.9716    -2.1405    -0.1524 C.ar    
   5 C5            -0.2324    -2.8007     0.0417 C.ar    
   6 C6            -1.4016    -2.0798     0.2294 C.ar    
   7 C7            -1.3721    -0.7016     0.2293 C.ar    
   8 O8             0.9389     2.0262    -0.0458 O.2     
   9 N9            -1.2748     2.1480     0.0852 N.am    
  10 C10            2.3204    -0.0468    -0.3721 C.3     
  11 F11           -0.2661    -4.1513     0.0474 F       
  12 C12           -1.2384     3.6125     0.0786 C.3     
  13 S13           -4.9306     5.0762    -0.3941 S.3     
  14 C14           -4.4918     4.7848     1.2321 C.2     
  15 N15           -3.2832     4.3125     1.2952 N.2     
  16 C16           -2.6439     4.1504     0.1571 C.2     
  17 C17           -3.3534     4.5065    -0.9342 C.2     
  18 C18           -2.5941     5.4066    -4.5004 C.ar    
  19 C19           -3.0418     5.5205    -3.2019 C.ar    
  20 C20           -2.8899     4.4314    -2.3335 C.ar    
  21 C21           -2.2851     3.2690    -2.8307 C.ar    
  22 C22           -1.8671     3.2431    -4.1433 C.ar    
  23 N23           -2.0297     4.2925    -4.9279 N.ar    
  24 C24           -2.7567     6.5679    -5.4470 C.3     
  25 F25           -1.6276     7.3907    -5.3739 F       
  26 F26           -2.9003     6.0881    -6.7533 F       
  27 F27           -3.8931     7.3028    -5.0926 F       
  28 N28           -5.3069     5.0188     2.3247 N.3     
  29 C29           -6.6100     5.5542     1.9048 C.3     
  30 C30           -7.4561     5.8540     3.1450 C.3     
  31 O31           -7.5863     4.6633     3.9263 O.3     
  32 C32           -6.3362     4.1150     4.3529 C.3     
  33 C33           -5.4788     3.7975     3.1249 C.3     
  34 C34           -6.5858     2.8315     5.1474 C.3     
  35 C35           -8.8426     6.3360     2.7133 C.3     
  36 H36            1.8796    -2.7068    -0.2982 H       
  37 H37           -2.3366    -2.5990     0.3801 H       
  38 H38           -2.2827    -0.1409     0.3801 H       
  39 H39           -2.1253     1.6843     0.1352 H       
  40 H40            2.7402     0.2363     0.5932 H       
  41 H41            3.0156    -0.7066    -0.8912 H       
  42 H42            2.1522     0.8478    -0.9716 H       
  43 H43           -0.6658     3.9656     0.9362 H       
  44 H44           -0.7672     3.9601    -0.8408 H       
  45 H45           -3.5023     6.4352    -2.8589 H       
  46 H46           -2.1485     2.4070    -2.1947 H       
  47 H47           -1.3996     2.3521    -4.5358 H       
  48 H48           -6.4603     6.4717     1.3358 H       
  49 H49           -7.1223     4.8195     1.2836 H       
  50 H50           -6.9698     6.6278     3.7390 H       
  51 H51           -5.8173     4.8382     4.9820 H       
  52 H52           -5.9730     3.0347     2.5232 H       
  53 H53           -4.5033     3.4328     3.4466 H       
  54 H54           -7.1030     2.1085     4.5166 H       
  55 H55           -5.6327     2.4142     5.4722 H       
  56 H56           -7.1995     3.0575     6.0194 H       
  57 H57           -9.3286     5.5607     2.1210 H       
  58 H58           -9.4445     6.5493     3.5966 H       
  59 H59           -8.7424     7.2413     2.1146 H       
@<TRIPOS>BOND
   1    1    2 1
   2    1    8 2
   3    1    9 am
   4    2    3 ar
   5    2    7 ar
   6    3    4 ar
   7    3   10 1
   8    4    5 ar
   9    4   36 1
  10    5    6 ar
  11    5   11 1
  12    6    7 ar
  13    6   37 1
  14    7   38 1
  15    9   12 1
  16    9   39 1
  17   10   40 1
  18   10   41 1
  19   10   42 1
  20   12   16 1
  21   12   43 1
  22   12   44 1
  23   13   14 1
  24   13   17 1
  25   14   15 2
  26   14   28 1
  27   15   16 1
  28   16   17 2
  29   17   20 1
  30   18   19 ar
  31   18   23 ar
  32   18   24 1
  33   19   20 ar
  34   19   45 1
  35   20   21 ar
  36   21   22 ar
  37   21   46 1
  38   22   23 ar
  39   22   47 1
  40   24   25 1
  41   24   26 1
  42   24   27 1
  43   28   29 1
  44   28   33 1
  45   29   30 1
  46   29   48 1
  47   29   49 1
  48   30   31 1
  49   30   35 1
  50   30   50 1
  51   31   32 1
  52   32   33 1
  53   32   34 1
  54   32   51 1
  55   33   52 1
  56   33   53 1
  57   34   54 1
  58   34   55 1
  59   34   56 1
  60   35   57 1
  61   35   58 1
  62   35   59 1

#	End of record

