#	Name: ASD01911005
#	Creating user name:	WinNT
#	Creation time:	15. 06. 2019 19:56

#	Modifying user name:	WinNT
#	Modification time:	15. 06. 2019 19:56

#	Program:	/corina/corina34_cracker 3.40 0067  02.08.2006

@<TRIPOS>MOLECULE
ASD01911005
  52   55    0    0    0
SMALL
NO_CHARGES


@<TRIPOS>ATOM
   1 N1             0.3906     0.7064    -1.4861 N.am    
   2 C2             0.1632    -0.6117    -0.9098 C.3     
   3 C3            -1.0395    -0.5904     0.0354 C.3     
   4 N4            -2.1420     0.1155    -0.6393 N.am    
   5 C5            -1.9184     1.5222    -1.0045 C.3     
   6 C6            -0.5333     1.6644    -1.5733 C.2     
   7 C7            -3.3082    -0.5029    -0.9113 C.2     
   8 C8            -4.4391     0.2659    -1.4677 C.ar    
   9 C9            -4.6452     1.5916    -1.0728 C.ar    
  10 C10           -5.6991     2.3139    -1.5889 C.ar    
  11 C11           -6.5644     1.7316    -2.5038 C.ar    
  12 C12           -6.3679     0.4006    -2.9077 C.ar    
  13 C13           -5.2985    -0.3277    -2.3912 C.ar    
  14 C14           -7.2596    -0.2032    -3.8515 C.1     
  15 O15           -3.4289    -1.6938    -0.6985 O.2     
  16 C16           -7.9907    -0.6982    -4.6254 C.1     
  17 C17           -8.8824    -1.3020    -5.5692 C.ar    
  18 N18           -8.6897    -2.5624    -5.9466 N.ar    
  19 C19           -9.4879    -3.1528    -6.8123 C.ar    
  20 C20          -10.5617    -2.4784    -7.3638 C.ar    
  21 C21          -10.8006    -1.1601    -6.9981 C.ar    
  22 C22           -9.9525    -0.5641    -6.0830 C.ar    
  23 C23            1.6697     0.9896    -1.9779 C.ar    
  24 O24           -7.6002     2.4472    -3.0079 O.3     
  25 C25            2.3633     2.0990    -1.5139 C.ar    
  26 C26            3.6269     2.3760    -2.0018 C.ar    
  27 C27            4.1993     1.5486    -2.9519 C.ar    
  28 C28            3.5101     0.4430    -3.4153 C.ar    
  29 C29            2.2501     0.1579    -2.9270 C.ar    
  30 C30           -7.7402     3.7946    -2.5528 C.3     
  31 O31           -0.2455     2.6948    -2.1448 O.2     
  32 Cl32           4.4956     3.7629    -1.4227 Cl      
  33 H33           -0.0229    -1.3265    -1.7113 H       
  34 H34            1.0500    -0.9186    -0.3551 H       
  35 H35           -1.3435    -1.6113     0.2669 H       
  36 H36           -0.7758    -0.0673     0.9546 H       
  37 H37           -2.6546     1.8277    -1.7481 H       
  38 H38           -2.0111     2.1489    -0.1175 H       
  39 H39           -3.9759     2.0509    -0.3605 H       
  40 H40           -5.8525     3.3373    -1.2796 H       
  41 H41           -5.1416    -1.3515    -2.6974 H       
  42 H42           -9.3008    -4.1780    -7.0957 H       
  43 H43          -11.2089    -2.9726    -8.0732 H       
  44 H44          -11.6333    -0.6138    -7.4160 H       
  45 H45          -10.1095     0.4594    -5.7763 H       
  46 H46            1.9163     2.7452    -0.7729 H       
  47 H47            5.1862     1.7669    -3.3324 H       
  48 H48            3.9595    -0.2009    -4.1568 H       
  49 H49            1.7128    -0.7060    -3.2894 H       
  50 H50           -8.6054     4.2521    -3.0326 H       
  51 H51           -7.8790     3.8003    -1.4717 H       
  52 H52           -6.8430     4.3590    -2.8069 H       
@<TRIPOS>BOND
   1    1    2 1
   2    1   23 1
   3    1    6 am
   4    2    3 1
   5    2   33 1
   6    2   34 1
   7    3    4 1
   8    3   35 1
   9    3   36 1
  10    4    5 1
  11    4    7 am
  12    5    6 1
  13    5   37 1
  14    5   38 1
  15    6   31 2
  16    7    8 1
  17    7   15 2
  18    8    9 ar
  19    8   13 ar
  20    9   10 ar
  21    9   39 1
  22   10   11 ar
  23   10   40 1
  24   11   12 ar
  25   11   24 1
  26   12   13 ar
  27   12   14 1
  28   13   41 1
  29   14   16 3
  30   16   17 1
  31   17   18 ar
  32   17   22 ar
  33   18   19 ar
  34   19   20 ar
  35   19   42 1
  36   20   21 ar
  37   20   43 1
  38   21   22 ar
  39   21   44 1
  40   22   45 1
  41   23   25 ar
  42   23   29 ar
  43   24   30 1
  44   25   26 ar
  45   25   46 1
  46   26   27 ar
  47   26   32 1
  48   27   28 ar
  49   27   47 1
  50   28   29 ar
  51   28   48 1
  52   29   49 1
  53   30   50 1
  54   30   51 1
  55   30   52 1

#	End of record

