#	Name: ASD03090763
#	Creating user name:	WinNT
#	Creation time:	15. 06. 2019 20:29

#	Modifying user name:	WinNT
#	Modification time:	15. 06. 2019 20:29

#	Program:	/corina/corina34_cracker 3.40 0067  02.08.2006

@<TRIPOS>MOLECULE
ASD03090763
  39   41    0    0    0
SMALL
NO_CHARGES


@<TRIPOS>ATOM
   1 F1             0.0021    -0.0041     0.0020 F       
   2 C2            -0.0162     1.3468     0.0094 C.ar    
   3 C3             1.1728     2.0558     0.0019 C.ar    
   4 C4             1.1528     3.4378     0.0090 C.ar    
   5 C5            -0.0538     4.1120     0.0237 C.ar    
   6 C6            -1.2420     3.4050     0.0317 C.ar    
   7 C7            -1.2245     2.0234     0.0188 C.ar    
   8 C8            -2.5566     4.1415     0.0487 C.3     
   9 N9            -3.5086     3.4618    -0.8334 N.am    
  10 C10           -4.5310     4.1497    -1.3792 C.2     
  11 O11           -4.6629     5.3314    -1.1401 O.2     
  12 C12           -5.5102     3.4506    -2.2866 C.3     
  13 C13           -6.9397     3.2647    -1.7739 C.3     
  14 C14           -6.6488     4.2863    -2.8751 C.3     
  15 C15           -7.1064     3.9532    -4.2717 C.ar    
  16 C16           -7.0325     4.9074    -5.2692 C.ar    
  17 C17           -7.4523     4.6019    -6.5504 C.ar    
  18 C18           -7.9456     3.3421    -6.8341 C.ar    
  19 C19           -8.0186     2.3877    -5.8368 C.ar    
  20 C20           -7.5947     2.6918    -4.5567 C.ar    
  21 C21           -3.1098     4.1646     1.4750 C.3     
  22 H22            2.1157     1.5292    -0.0092 H       
  23 H23            2.0803     3.9911     0.0035 H       
  24 H24           -0.0684     5.1919     0.0293 H       
  25 H25           -2.1527     1.4713     0.0251 H       
  26 H26           -2.4050     5.1634    -0.2989 H       
  27 H27           -3.4030     2.5167    -1.0246 H       
  28 H28           -5.0921     2.6597    -2.9093 H       
  29 H29           -7.4622     2.3517    -2.0596 H       
  30 H30           -7.1719     3.6481    -0.7803 H       
  31 H31           -6.6895     5.3417    -2.6059 H       
  32 H32           -6.6472     5.8917    -5.0475 H       
  33 H33           -7.3953     5.3476    -7.3295 H       
  34 H34           -8.2742     3.1037    -7.8349 H       
  35 H35           -8.4043     1.4035    -6.0585 H       
  36 H36           -7.6518     1.9461    -3.7775 H       
  37 H37           -3.2614     3.1427     1.8225 H       
  38 H38           -2.4015     4.6703     2.1313 H       
  39 H39           -4.0607     4.6974     1.4873 H       
@<TRIPOS>BOND
   1    1    2 1
   2    2    3 ar
   3    2    7 ar
   4    3    4 ar
   5    3   22 1
   6    4    5 ar
   7    4   23 1
   8    5    6 ar
   9    5   24 1
  10    6    7 ar
  11    6    8 1
  12    7   25 1
  13    8    9 1
  14    8   21 1
  15    8   26 1
  16    9   10 am
  17    9   27 1
  18   10   11 2
  19   10   12 1
  20   12   13 1
  21   12   14 1
  22   12   28 1
  23   13   14 1
  24   13   29 1
  25   13   30 1
  26   14   15 1
  27   14   31 1
  28   15   16 ar
  29   15   20 ar
  30   16   17 ar
  31   16   32 1
  32   17   18 ar
  33   17   33 1
  34   18   19 ar
  35   18   34 1
  36   19   20 ar
  37   19   35 1
  38   20   36 1
  39   21   37 1
  40   21   38 1
  41   21   39 1

#	End of record

