#	Name: ASD04590160
#	Creating user name:	WinNT
#	Creation time:	15. 06. 2019 20:50

#	Modifying user name:	WinNT
#	Modification time:	15. 06. 2019 20:50

#	Program:	/corina/corina34_cracker 3.40 0067  02.08.2006

@<TRIPOS>MOLECULE
ASD04590160
  43   46    0    0    0
SMALL
NO_CHARGES


@<TRIPOS>ATOM
   1 N1            -0.0153     1.2802     0.0091 N.pl3   
   2 N2             0.0021    -0.0041     0.0020 N.2     
   3 C3             1.2455    -0.4440    -0.0122 C.2     
   4 C4             2.0903     0.6961    -0.0142 C.2     
   5 C5             1.2523     1.7667    -0.0004 C.2     
   6 C6             1.6765    -1.8547    -0.0235 C.2     
   7 N7             0.7571    -2.8402    -0.0200 N.am    
   8 O8             2.8611    -2.1284    -0.0359 O.2     
   9 N9             3.4930     0.7146    -0.0275 N.am    
  10 C10            4.1514     1.8906    -0.0274 C.2     
  11 C11            1.1851    -4.2412    -0.0312 C.3     
  12 C12            5.6264     1.9101    -0.0414 C.ar    
  13 O13            3.5295     2.9356    -0.0159 O.2     
  14 C14            6.3441     0.7108    -0.0547 C.ar    
  15 C15            6.3138     3.1309    -0.0472 C.ar    
  16 C16            7.7036     3.1380    -0.0575 C.ar    
  17 C17            8.4009     1.9403    -0.0659 C.ar    
  18 C18            7.7214     0.7335    -0.0674 C.ar    
  19 C19           -0.0454    -5.1504    -0.0245 C.3     
  20 C20            0.1887    -6.6570    -0.1527 C.3     
  21 C21           -0.2441    -6.0615     1.1885 C.3     
  22 O22            5.6110     4.2930    -0.0476 O.3     
  23 C23            6.3247     5.4778     0.3224 C.3     
  24 C24            7.6636     5.4865    -0.4276 C.3     
  25 O25            8.3931     4.3119    -0.0558 O.3     
  26 H26           -0.8184     1.8242     0.0160 H       
  27 H27            1.5405     2.8076     0.0021 H       
  28 H28           -0.1879    -2.6218    -0.0102 H       
  29 H29            3.9890    -0.1189    -0.0367 H       
  30 H30            1.7744    -4.4340    -0.9277 H       
  31 H31            1.7909    -4.4431     0.8522 H       
  32 H32            5.8192    -0.2331    -0.0546 H       
  33 H33            9.4808     1.9481    -0.0757 H       
  34 H34            8.2740    -0.1943    -0.0738 H       
  35 H35           -0.9374    -4.7378    -0.4959 H       
  36 H36           -0.5495    -7.2355    -0.7081 H       
  37 H37            1.2193    -7.0004    -0.2419 H       
  38 H38            0.5019    -6.0131     1.9818 H       
  39 H39           -1.2669    -6.2482     1.5156 H       
  40 H40            5.7436     6.3580     0.0473 H       
  41 H41            6.5056     5.4773     1.3973 H       
  42 H42            7.4828     5.4821    -1.5025 H       
  43 H43            8.2327     6.3748    -0.1536 H       
@<TRIPOS>BOND
   1    1    2 1
   2    1    5 1
   3    1   26 1
   4    2    3 2
   5    3    4 1
   6    3    6 1
   7    4    5 2
   8    4    9 1
   9    5   27 1
  10    6    7 am
  11    6    8 2
  12    7   11 1
  13    7   28 1
  14    9   10 am
  15    9   29 1
  16   10   12 1
  17   10   13 2
  18   11   19 1
  19   11   30 1
  20   11   31 1
  21   12   14 ar
  22   12   15 ar
  23   14   18 ar
  24   14   32 1
  25   15   16 ar
  26   15   22 1
  27   16   17 ar
  28   16   25 1
  29   17   18 ar
  30   17   33 1
  31   18   34 1
  32   19   20 1
  33   19   21 1
  34   19   35 1
  35   20   21 1
  36   20   36 1
  37   20   37 1
  38   21   38 1
  39   21   39 1
  40   22   23 1
  41   23   24 1
  42   23   40 1
  43   23   41 1
  44   24   25 1
  45   24   42 1
  46   24   43 1

#	End of record

