#	Name: ASD01880346
#	Creating user name:	WinNT
#	Creation time:	15. 06. 2019 19:40

#	Modifying user name:	WinNT
#	Modification time:	15. 06. 2019 19:40

#	Program:	/corina/corina34_cracker 3.40 0067  02.08.2006

@<TRIPOS>MOLECULE
ASD01880346
  42   44    0    0    0
SMALL
NO_CHARGES


@<TRIPOS>ATOM
   1 C1            -0.0158     1.3166     0.0093 C.ar    
   2 N2             0.0021    -0.0041     0.0020 N.ar    
   3 C3            -1.1218    -0.7055     0.0094 C.ar    
   4 C4            -2.3611    -0.0158     0.0254 C.ar    
   5 C5            -2.3234     1.3812     0.0325 C.ar    
   6 N6            -1.1363     2.0007     0.0291 N.ar    
   7 C7            -3.7205    -0.5227     0.0357 C.2     
   8 C8            -4.6572     0.4056     0.0497 C.2     
   9 S9            -3.9623     2.0156     0.0517 S.3     
  10 C10           -6.1367     0.1192     0.0623 C.3     
  11 N11           -1.0871    -2.0883     0.0012 N.pl3   
  12 C12            0.1995    -2.7886    -0.0158 C.3     
  13 C13           -0.0386    -4.2767    -0.0219 C.ar    
  14 C14           -0.3473    -6.3309     1.1728 C.ar    
  15 C15           -0.4749    -7.0117    -0.0269 C.ar    
  16 C16           -0.3783    -6.3190    -1.2304 C.ar    
  17 C17           -0.1598    -4.9511    -1.2230 C.ar    
  18 C18           -0.1298    -4.9653     1.1730 C.ar    
  19 O19           -0.6883    -8.3548    -0.0289 O.3     
  20 C20           -0.7704    -9.0005     1.2432 C.3     
  21 O21           -0.5024    -6.9829    -2.4107 O.3     
  22 C22           -0.3922    -6.2075    -3.6059 C.3     
  23 C23            1.2933     2.0630     0.0008 C.3     
  24 H24           -3.9477    -1.5785     0.0318 H       
  25 H25           -6.4835     0.0446     1.0929 H       
  26 H26           -6.6674     0.9266    -0.4421 H       
  27 H27           -6.3292    -0.8209    -0.4548 H       
  28 H28           -1.9147    -2.5942     0.0067 H       
  29 H29            0.7553    -2.5060    -0.9099 H       
  30 H30            0.7733    -2.5161     0.8700 H       
  31 H31           -0.4219    -6.8660     2.1079 H       
  32 H32           -0.0844    -4.4113    -2.1554 H       
  33 H33           -0.0305    -4.4356     2.1090 H       
  34 H34           -0.9423   -10.0671     1.0989 H       
  35 H35            0.1630    -8.8531     1.7864 H       
  36 H36           -1.5947    -8.5738     1.8148 H       
  37 H37           -0.5098    -6.8576    -4.4729 H       
  38 H38           -1.1697    -5.4437    -3.6164 H       
  39 H39            0.5870    -5.7298    -3.6402 H       
  40 H40            1.5991     2.2485    -1.0289 H       
  41 H41            1.1731     3.0133     0.5209 H       
  42 H42            2.0546     1.4670     0.5042 H       
@<TRIPOS>BOND
   1    1    2 ar
   2    1   23 1
   3    1    6 ar
   4    2    3 ar
   5    3    4 ar
   6    3   11 1
   7    4    5 ar
   8    4    7 1
   9    5    6 ar
  10    5    9 1
  11    7    8 2
  12    7   24 1
  13    8    9 1
  14    8   10 1
  15   10   25 1
  16   10   26 1
  17   10   27 1
  18   11   12 1
  19   11   28 1
  20   12   13 1
  21   12   29 1
  22   12   30 1
  23   13   17 ar
  24   13   18 ar
  25   14   15 ar
  26   14   18 ar
  27   14   31 1
  28   15   16 ar
  29   15   19 1
  30   16   17 ar
  31   16   21 1
  32   17   32 1
  33   18   33 1
  34   19   20 1
  35   20   34 1
  36   20   35 1
  37   20   36 1
  38   21   22 1
  39   22   37 1
  40   22   38 1
  41   22   39 1
  42   23   40 1
  43   23   41 1
  44   23   42 1

#	End of record

