#	Name: ASD00960238
#	Creating user name:	WinNT
#	Creation time:	15. 06. 2019 18:53

#	Modifying user name:	WinNT
#	Modification time:	15. 06. 2019 18:53

#	Program:	/corina/corina34_cracker 3.40 0067  02.08.2006

@<TRIPOS>MOLECULE
ASD00960238
  34   36    0    0    0
SMALL
NO_CHARGES


@<TRIPOS>ATOM
   1 C1            -0.0167     1.3826     0.0096 C.2     
   2 C2             0.0021    -0.0041     0.0020 C.2     
   3 N3             1.2805     1.8100    -0.0004 N.pl3   
   4 C4             2.0971     0.7201     0.0003 C.2     
   5 C5             1.3461    -0.3957    -0.0055 C.2     
   6 N6             1.7991     3.1136     0.0034 N.2     
   7 C7             3.0667     3.2753    -0.2331 C.2     
   8 N8             3.8933     2.2121    -0.5245 N.pl3   
   9 C9             3.6015     0.8732     0.0184 C.3     
  10 N10            4.1015     0.7685     1.3957 N.3     
  11 C11           -1.2081     2.2321     0.0202 C.2     
  12 O12           -2.3149     1.7276     0.0234 O.2     
  13 O13           -1.0789     3.5750     0.0263 O.3     
  14 C14           -2.2842     4.3426     0.0365 C.3     
  15 C15           -1.9446     5.8109     0.0422 C.ar    
  16 C16           -1.7951     6.4903    -1.1523 C.ar    
  17 C17           -1.4836     7.8371    -1.1471 C.ar    
  18 C18           -1.3220     8.5045     0.0527 C.ar    
  19 C19           -1.4724     7.8252     1.2472 C.ar    
  20 C20           -1.7882     6.4794     1.2420 C.ar    
  21 H21           -0.8574    -0.6580     0.0022 H       
  22 H22            1.7138    -1.4111    -0.0143 H       
  23 H23            3.4838     4.2710    -0.2008 H       
  24 H24            4.6704     2.3453    -1.0895 H       
  25 H25            4.0624     0.1082    -0.6066 H       
  26 H26            5.0991     0.9159     1.4304 H       
  27 H27            3.6195     1.4121     2.0053 H       
  28 H28           -2.8713     4.1089    -0.8516 H       
  29 H29           -2.8620     4.0999     0.9283 H       
  30 H30           -1.9214     5.9689    -2.0896 H       
  31 H31           -1.3661     8.3678    -2.0803 H       
  32 H32           -1.0779     9.5566     0.0567 H       
  33 H33           -1.3458     8.3466     2.1845 H       
  34 H34           -1.9094     5.9496     2.1752 H       
@<TRIPOS>BOND
   1    1    2 2
   2    1    3 1
   3    1   11 1
   4    2    5 1
   5    2   21 1
   6    3    4 1
   7    3    6 1
   8    4    5 2
   9    4    9 1
  10    5   22 1
  11    6    7 2
  12    7    8 1
  13    7   23 1
  14    8    9 1
  15    8   24 1
  16    9   10 1
  17    9   25 1
  18   10   26 1
  19   10   27 1
  20   11   12 2
  21   11   13 1
  22   13   14 1
  23   14   15 1
  24   14   28 1
  25   14   29 1
  26   15   16 ar
  27   15   20 ar
  28   16   17 ar
  29   16   30 1
  30   17   18 ar
  31   17   31 1
  32   18   19 ar
  33   18   32 1
  34   19   20 ar
  35   19   33 1
  36   20   34 1

#	End of record

