#	Name: ASD08830235
#	Creating user name:	WinNT
#	Creation time:	15. 06. 2019 21:20

#	Modifying user name:	WinNT
#	Modification time:	15. 06. 2019 21:20

#	Program:	/corina/corina34_cracker 3.40 0067  02.08.2006

@<TRIPOS>MOLECULE
ASD08830235
  42   44    0    0    0
SMALL
NO_CHARGES


@<TRIPOS>ATOM
   1 C1            -0.0477     1.4633    -0.2847 C.ar    
   2 C2            -0.0234    -0.0067    -0.2499 C.2     
   3 C3            -1.2920    -0.7752     0.0170 C.3     
   4 O4             1.0175    -0.6005    -0.4358 O.2     
   5 C5            -1.2586     2.1486    -0.0623 C.ar    
   6 C6             1.1235     2.1665    -0.5309 C.ar    
   7 C7             1.0919     3.5682    -0.5620 C.ar    
   8 C8            -0.1352     4.2449    -0.3417 C.ar    
   9 C9            -1.3052     3.5038    -0.0891 C.ar    
  10 C10            2.2575     4.3159    -0.8078 C.ar    
  11 C11            2.1932     5.6755    -0.8311 C.ar    
  12 C12            0.9879     6.3396    -0.6142 C.ar    
  13 C13           -0.1608     5.6484    -0.3736 C.ar    
  14 C14           -0.9927    -2.2755    -0.0007 C.3     
  15 N15           -2.2484    -3.0269     0.1280 N.3     
  16 C16           -3.1181    -2.8113    -1.0488 C.3     
  17 C17           -3.0308    -2.5592     1.3008 C.3     
  18 C18           -4.4685    -3.0416     0.9831 C.3     
  19 C19           -4.5732    -2.8333    -0.5452 C.3     
  20 C20           -2.5155    -3.2078     2.5871 C.3     
  21 O21           -2.7445    -4.6174     2.5346 O.3     
  22 H22           -1.6879    -0.4951     0.9932 H       
  23 H23           -2.0268    -0.5422    -0.7536 H       
  24 H24           -2.1609     1.5877     0.1317 H       
  25 H25            2.0511     1.6387    -0.6967 H       
  26 H26           -2.2417     4.0148     0.0788 H       
  27 H27            3.1988     3.8141    -0.9769 H       
  28 H28            3.0896     6.2476    -1.0200 H       
  29 H29            0.9639     7.4191    -0.6375 H       
  30 H30           -1.0873     6.1777    -0.2074 H       
  31 H31           -0.5069    -2.5381    -0.9404 H       
  32 H32           -0.3336    -2.5243     0.8310 H       
  33 H33           -2.8966    -1.8451    -1.5021 H       
  34 H34           -2.9644    -3.6093    -1.7752 H       
  35 H35           -2.9976    -1.4724     1.3767 H       
  36 H36           -4.5871    -4.0947     1.2378 H       
  37 H37           -5.2045    -2.4317     1.5068 H       
  38 H38           -5.0640    -1.8852    -0.7651 H       
  39 H39           -5.1195    -3.6580    -1.0029 H       
  40 H40           -1.4470    -3.0168     2.6876 H       
  41 H41           -3.0421    -2.7858     3.4430 H       
  42 H42           -2.4418    -5.0945     3.3194 H       
@<TRIPOS>BOND
   1    1    2 1
   2    1    6 ar
   3    1    5 ar
   4    2    3 1
   5    2    4 2
   6    3   14 1
   7    3   22 1
   8    3   23 1
   9    5    9 ar
  10    5   24 1
  11    6    7 ar
  12    6   25 1
  13    7    8 ar
  14    7   10 ar
  15    8    9 ar
  16    8   13 ar
  17    9   26 1
  18   10   11 ar
  19   10   27 1
  20   11   12 ar
  21   11   28 1
  22   12   13 ar
  23   12   29 1
  24   13   30 1
  25   14   15 1
  26   14   31 1
  27   14   32 1
  28   15   16 1
  29   15   17 1
  30   16   19 1
  31   16   33 1
  32   16   34 1
  33   17   18 1
  34   17   20 1
  35   17   35 1
  36   18   19 1
  37   18   36 1
  38   18   37 1
  39   19   38 1
  40   19   39 1
  41   20   21 1
  42   20   40 1
  43   20   41 1
  44   21   42 1

#	End of record

