#	Name: ASD07931668
#	Creating user name:	WinNT
#	Creation time:	15. 06. 2019 21:13

#	Modifying user name:	WinNT
#	Modification time:	15. 06. 2019 21:13

#	Program:	/corina/corina34_cracker 3.40 0067  02.08.2006

@<TRIPOS>MOLECULE
ASD07931668
  50   53    0    0    0
SMALL
NO_CHARGES


@<TRIPOS>ATOM
   1 N1            -0.0161     1.3349     0.0094 N.pl3   
   2 C2             0.0021    -0.0041     0.0020 C.2     
   3 C3             1.1800    -0.7235    -0.0127 C.2     
   4 C4             2.4584     0.0058    -0.0210 C.2     
   5 C5             2.3933     1.4792    -0.0130 C.ar    
   6 C6             3.5540     2.2528    -0.0195 C.ar    
   7 C7             3.4562     3.6265    -0.0112 C.ar    
   8 C8             2.2112     4.2396     0.0036 C.ar    
   9 C9             1.0568     3.4882     0.0101 C.ar    
  10 C10            1.1317     2.0975     0.0025 C.ar    
  11 C11            1.1580    -2.1931    -0.0194 C.2     
  12 O12            0.0963    -2.7852    -0.0120 O.2     
  13 O13            2.3151    -2.8845    -0.0338 O.3     
  14 O14            3.5253    -0.5827    -0.0336 O.2     
  15 C15           -1.3118     2.0184     0.0191 C.3     
  16 C16           -2.5531     2.6612     4.0596 C.ar    
  17 C17           -1.7877     3.6220     3.4020 C.ar    
  18 C18           -1.3900     3.4095     2.0976 C.ar    
  19 C19           -1.7495     2.2451     1.4433 C.ar    
  20 C20           -2.5096     1.2881     2.0911 C.ar    
  21 C21           -2.9128     1.4903     3.3955 C.ar    
  22 C22           -2.9785     2.8814     5.4641 C.ar    
  23 C23           -3.7439     1.9206     6.1217 C.ar    
  24 C24           -4.1368     2.1306     7.4280 C.ar    
  25 C25           -3.7726     3.2925     8.0842 C.ar    
  26 C26           -3.0132     4.2499     7.4360 C.ar    
  27 C27           -2.6092     4.0472     6.1319 C.ar    
  28 C28            2.2175    -4.3332    -0.0397 C.3     
  29 C29            3.6223    -4.9390    -0.0561 C.3     
  30 H30           -0.9362    -0.5389     0.0081 H       
  31 H31            4.5237     1.7774    -0.0306 H       
  32 H32            4.3523     4.2293    -0.0158 H       
  33 H33            2.1468     5.3177     0.0103 H       
  34 H34            0.0940     3.9773     0.0213 H       
  35 H35           -1.2203     2.9779    -0.4899 H       
  36 H36           -2.0508     1.4036    -0.4946 H       
  37 H37           -1.5065     4.5316     3.9120 H       
  38 H38           -0.7967     4.1536     1.5869 H       
  39 H39           -2.7878     0.3808     1.5754 H       
  40 H40           -3.5056     0.7421     3.9007 H       
  41 H41           -4.0295     1.0133     5.6101 H       
  42 H42           -4.7301     1.3865     7.9387 H       
  43 H43           -4.0825     3.4530     9.1062 H       
  44 H44           -2.7319     5.1555     7.9529 H       
  45 H45           -2.0119     4.7930     5.6285 H       
  46 H46            1.6889    -4.6654     0.8538 H       
  47 H47            1.6718    -4.6569    -0.9261 H       
  48 H48            4.1509    -4.6068    -0.9496 H       
  49 H49            4.1679    -4.6153     0.8302 H       
  50 H50            3.5490    -6.0265    -0.0605 H       
@<TRIPOS>BOND
   1    1    2 1
   2    1   10 1
   3    1   15 1
   4    2    3 2
   5    2   30 1
   6    3    4 1
   7    3   11 1
   8    4    5 1
   9    4   14 2
  10    5    6 ar
  11    5   10 ar
  12    6    7 ar
  13    6   31 1
  14    7    8 ar
  15    7   32 1
  16    8    9 ar
  17    8   33 1
  18    9   10 ar
  19    9   34 1
  20   11   12 2
  21   11   13 1
  22   13   28 1
  23   15   19 1
  24   15   35 1
  25   15   36 1
  26   16   17 ar
  27   16   21 ar
  28   16   22 1
  29   17   18 ar
  30   17   37 1
  31   18   19 ar
  32   18   38 1
  33   19   20 ar
  34   20   21 ar
  35   20   39 1
  36   21   40 1
  37   22   23 ar
  38   22   27 ar
  39   23   24 ar
  40   23   41 1
  41   24   25 ar
  42   24   42 1
  43   25   26 ar
  44   25   43 1
  45   26   27 ar
  46   26   44 1
  47   27   45 1
  48   28   29 1
  49   28   46 1
  50   28   47 1
  51   29   48 1
  52   29   49 1
  53   29   50 1

#	End of record

