#	Name: ASD01152212
#	Creating user name:	WinNT
#	Creation time:	15. 06. 2019 19:05

#	Modifying user name:	WinNT
#	Modification time:	15. 06. 2019 19:05

#	Program:	/corina/corina34_cracker 3.40 0067  02.08.2006

@<TRIPOS>MOLECULE
ASD01152212
  35   36    0    0    0
SMALL
NO_CHARGES


@<TRIPOS>ATOM
   1 C1            -0.2782     1.3900     0.0977 C.2     
   2 C2            -0.2588    -0.0812     0.4233 C.3     
   3 O3             0.5608     1.8585    -0.6423 O.2     
   4 N4            -1.2311     2.1843     0.6246 N.am    
   5 C5            -1.1805     3.5676     0.4205 C.ar    
   6 C6            -2.3558     4.2986     0.3221 C.ar    
   7 C7            -2.3014     5.6704     0.1202 C.ar    
   8 C8            -1.0707     6.3076     0.0173 C.ar    
   9 C9             0.0973     5.5769     0.1157 C.ar    
  10 C10            0.0464     4.2114     0.3220 C.ar    
  11 N11           -3.6391     7.5726     0.7862 N.2     
  12 N12           -3.4845     6.4113     0.0199 N.am    
  13 C13           -4.4574     5.9983    -0.8116 C.2     
  14 N14           -5.6070     6.6885    -0.9314 N.am    
  15 C15           -5.7974     7.8134    -0.2113 C.2     
  16 C16           -4.7397     8.2682     0.6969 C.2     
  17 O17           -6.8339     8.4431    -0.3145 O.2     
  18 O18           -4.2961     4.9860    -1.4656 O.2     
  19 Br19          -4.9672     9.8396     1.7238 Br      
  20 C20           -6.6515     6.2182    -1.8445 C.3     
  21 C21           -7.5808     5.2879    -1.1082 C.2     
  22 C22           -8.8688     5.5263    -1.0921 C.2     
  23 H23            0.3539    -0.2493     1.3090 H       
  24 H24           -1.2755    -0.4246     0.6142 H       
  25 H25            0.1594    -0.6340    -0.4179 H       
  26 H26           -1.9521     1.7969     1.1453 H       
  27 H27           -3.3110     3.8009     0.4021 H       
  28 H28           -1.0275     7.3752    -0.1402 H       
  29 H29            1.0525     6.0744     0.0350 H       
  30 H30            0.9615     3.6436     0.4030 H       
  31 H31           -7.2154     7.0713    -2.2219 H       
  32 H32           -6.1928     5.6880    -2.6791 H       
  33 H33           -7.1849     4.4248    -0.5939 H       
  34 H34           -9.2648     6.3894    -1.6064 H       
  35 H35           -9.5348     4.8596    -0.5644 H       
@<TRIPOS>BOND
   1    1    2 1
   2    1    3 2
   3    1    4 am
   4    2   23 1
   5    2   24 1
   6    2   25 1
   7    4    5 1
   8    4   26 1
   9    5    6 ar
  10    5   10 ar
  11    6    7 ar
  12    6   27 1
  13    7    8 ar
  14    7   12 1
  15    8    9 ar
  16    8   28 1
  17    9   10 ar
  18    9   29 1
  19   10   30 1
  20   11   12 1
  21   11   16 2
  22   12   13 am
  23   13   14 am
  24   13   18 2
  25   14   15 am
  26   14   20 1
  27   15   16 1
  28   15   17 2
  29   16   19 1
  30   20   21 1
  31   20   31 1
  32   20   32 1
  33   21   22 2
  34   21   33 1
  35   22   34 1
  36   22   35 1

#	End of record

