#	Name: ASD00122087
#	Creating user name:	WinNT
#	Creation time:	15. 06. 2019 18:31

#	Modifying user name:	WinNT
#	Modification time:	15. 06. 2019 18:31

#	Program:	/corina/corina34_cracker 3.40 0067  02.08.2006

@<TRIPOS>MOLECULE
ASD00122087
  36   39    0    0    0
SMALL
NO_CHARGES


@<TRIPOS>ATOM
   1 C1            -0.0129     1.3986    -0.0091 C.ar    
   2 C2             0.0385     0.0253    -0.2748 C.ar    
   3 N3            -1.0687    -0.5967    -0.6969 N.ar    
   4 C4            -2.1928     0.0609    -0.8632 C.ar    
   5 N5            -2.2920     1.3569    -0.6265 N.ar    
   6 C6            -1.2542     2.0574    -0.2000 C.ar    
   7 C7             1.2638     1.9157     0.4360 C.2     
   8 C8             2.2357     1.0063     0.5099 C.2     
   9 S9             1.6593    -0.5799     0.0338 S.3     
  10 O10           -1.3719     3.3855     0.0382 O.3     
  11 C11           -2.6047     3.9434    -0.0595 C.ar    
  12 C12            3.6208     1.2975     0.9372 C.ar    
  13 C13            4.5699     0.2753     0.9822 C.ar    
  14 C14            5.8608     0.5539     1.3814 C.ar    
  15 C15            6.2152     1.8432     1.7367 C.ar    
  16 C16            5.2790     2.8610     1.6948 C.ar    
  17 C17            3.9862     2.5969     1.2919 C.ar    
  18 C18           -3.5347     3.7517     0.9568 C.ar    
  19 C19           -4.7864     4.3153     0.8624 C.ar    
  20 C20           -5.1232     5.0830    -0.2593 C.ar    
  21 C21           -4.1832     5.2729    -1.2797 C.ar    
  22 C22           -2.9323     4.7097    -1.1731 C.ar    
  23 C23           -6.4580     5.6865    -0.3654 C.2     
  24 O24           -6.7475     6.3511    -1.3378 O.2     
  25 H25           -3.0656    -0.4755    -1.2054 H       
  26 H26            1.4168     2.9547     0.6877 H       
  27 H27            4.2944    -0.7316     0.7054 H       
  28 H28            6.5962    -0.2363     1.4170 H       
  29 H29            7.2271     2.0560     2.0485 H       
  30 H30            5.5619     3.8652     1.9741 H       
  31 H31            3.2564     3.3923     1.2592 H       
  32 H32           -3.2741     3.1592     1.8213 H       
  33 H33           -5.5080     4.1656     1.6519 H       
  34 H34           -4.4381     5.8641    -2.1469 H       
  35 H35           -2.2066     4.8555    -1.9595 H       
  36 H36           -7.1817     5.5386     0.4225 H       
@<TRIPOS>BOND
   1    1    2 ar
   2    1    7 1
   3    1    6 ar
   4    2    3 ar
   5    2    9 1
   6    3    4 ar
   7    4    5 ar
   8    4   25 1
   9    5    6 ar
  10    6   10 1
  11    7    8 2
  12    7   26 1
  13    8    9 1
  14    8   12 1
  15   10   11 1
  16   11   18 ar
  17   11   22 ar
  18   12   13 ar
  19   12   17 ar
  20   13   14 ar
  21   13   27 1
  22   14   15 ar
  23   14   28 1
  24   15   16 ar
  25   15   29 1
  26   16   17 ar
  27   16   30 1
  28   17   31 1
  29   18   19 ar
  30   18   32 1
  31   19   20 ar
  32   19   33 1
  33   20   21 ar
  34   20   23 1
  35   21   22 ar
  36   21   34 1
  37   22   35 1
  38   23   24 2
  39   23   36 1

#	End of record

