#	Name: ASD03930249
#	Creating user name:	WinNT
#	Creation time:	15. 06. 2019 20:47

#	Modifying user name:	WinNT
#	Modification time:	15. 06. 2019 20:47

#	Program:	/corina/corina34_cracker 3.40 0067  02.08.2006

@<TRIPOS>MOLECULE
ASD03930249
  41   45    0    0    0
SMALL
NO_CHARGES


@<TRIPOS>ATOM
   1 C1            -0.0171     1.4115     0.0098 C.ar    
   2 C2             0.0021    -0.0041     0.0020 C.ar    
   3 C3            -1.1815    -0.7281     0.0089 C.ar    
   4 C4            -2.4010    -0.0524     0.0237 C.ar    
   5 C5            -2.4203     1.3635     0.0315 C.ar    
   6 C6            -1.2371     2.0874     0.0193 C.ar    
   7 N7             1.1573     2.0921     0.0022 N.2     
   8 N8             2.2916     1.4927    -0.0118 N.2     
   9 N9             2.4173     0.1012    -0.0204 N.am    
  10 C10            1.3126    -0.6809    -0.0141 C.2     
  11 N11           -3.5755    -0.7329     0.0302 N.2     
  12 N12           -4.7098    -0.1334     0.0433 N.2     
  13 N13           -4.8355     1.2580     0.0521 N.am    
  14 C14           -3.7309     2.0403     0.0467 C.2     
  15 C15            3.7475    -0.5125    -0.0363 C.3     
  16 C16            4.5008    -0.0646    -1.2904 C.3     
  17 C17            4.5246    -0.0779     1.2079 C.3     
  18 N18            3.8206    -0.5828    -2.4799 N.pl3   
  19 N19            2.8859     0.0217    -3.1295 N.2     
  20 C20            2.5266    -0.7471    -4.1280 C.2     
  21 N21            3.2796    -1.8453    -4.0619 N.2     
  22 N22            4.0648    -1.7130    -3.0471 N.2     
  23 O23            1.3973    -1.8948    -0.0205 O.2     
  24 O24           -3.8157     3.2542     0.0545 O.2     
  25 C25           -6.1658     1.8716     0.0666 C.3     
  26 C26           -7.1013     1.5579    -1.1027 C.3     
  27 C27           -7.3676     0.9480     0.2750 C.3     
  28 H28           -1.1583    -1.8079     0.0025 H       
  29 H29           -1.2603     3.1672     0.0254 H       
  30 H30            3.6468    -1.5978    -0.0412 H       
  31 H31            4.5241     1.0245    -1.3308 H       
  32 H32            5.5203    -0.4488    -1.2586 H       
  33 H33            3.9879    -0.3970     2.1013 H       
  34 H34            5.5143    -0.5345     1.1960 H       
  35 H35            4.6253     1.0075     1.2127 H       
  36 H36            1.7659    -0.5321    -4.8638 H       
  37 H37           -6.2178     2.8710     0.4985 H       
  38 H38           -7.7690     2.3507    -1.4398 H       
  39 H39           -6.7270     0.8949    -1.8828 H       
  40 H40           -7.1685    -0.1162     0.4013 H       
  41 H41           -8.2105     1.3397     0.8443 H       
@<TRIPOS>BOND
   1    1    2 ar
   2    1    7 1
   3    1    6 ar
   4    2    3 ar
   5    2   10 1
   6    3    4 ar
   7    3   28 1
   8    4    5 ar
   9    4   11 1
  10    5    6 ar
  11    5   14 1
  12    6   29 1
  13    7    8 2
  14    8    9 1
  15    9   10 am
  16    9   15 1
  17   10   23 2
  18   11   12 2
  19   12   13 1
  20   13   14 am
  21   13   25 1
  22   14   24 2
  23   15   16 1
  24   15   17 1
  25   15   30 1
  26   16   18 1
  27   16   31 1
  28   16   32 1
  29   17   33 1
  30   17   34 1
  31   17   35 1
  32   18   19 1
  33   18   22 1
  34   19   20 2
  35   20   21 1
  36   20   36 1
  37   21   22 2
  38   25   26 1
  39   25   27 1
  40   25   37 1
  41   26   27 1
  42   26   38 1
  43   26   39 1
  44   27   40 1
  45   27   41 1

#	End of record

