#	Name: ASD00310229
#	Creating user name:	WinNT
#	Creation time:	15. 06. 2019 18:34

#	Modifying user name:	WinNT
#	Modification time:	15. 06. 2019 18:34

#	Program:	/corina/corina34_cracker 3.40 0067  02.08.2006

@<TRIPOS>MOLECULE
ASD00310229
  33   35    0    0    0
SMALL
NO_CHARGES


@<TRIPOS>ATOM
   1 N1            -0.0162     1.3412     0.0094 N.pl3   
   2 C2             0.0021    -0.0041     0.0020 C.2     
   3 C3             1.3073    -0.4511    -0.0128 C.2     
   4 C4             2.1560     0.7560    -0.0144 C.ar    
   5 C5             3.5321     0.9629    -0.0269 C.ar    
   6 C6             4.0342     2.2555    -0.0251 C.ar    
   7 C7             3.1472     3.3536    -0.0108 C.ar    
   8 C8             1.7717     3.1414     0.0016 C.ar    
   9 C9             1.2693     1.8475    -0.0001 C.ar    
  10 C10            3.6640     4.6891    -0.0085 C.1     
  11 N11            4.0739     5.7486    -0.0066 N.1     
  12 C12            5.4981     2.4835    -0.0378 C.ar    
  13 C13            6.0606     3.3623    -0.9633 C.ar    
  14 C14            7.4232     3.5722    -0.9724 C.ar    
  15 C15            8.2354     2.9098    -0.0615 C.ar    
  16 C16            7.6786     2.0343     0.8613 C.ar    
  17 C17            6.3161     1.8242     0.8796 C.ar    
  18 O18            9.5778     3.1185    -0.0735 O.3     
  19 C19           10.3539     2.4048     0.8910 C.3     
  20 C20            1.7450    -1.7994    -0.0238 C.2     
  21 O21            0.9326    -2.7014    -0.0210 O.2     
  22 H22           -0.8216     1.8817     0.0163 H       
  23 H23           -0.8723    -0.6379     0.0073 H       
  24 H24            4.2068     0.1197    -0.0374 H       
  25 H25            1.0955     3.9834     0.0129 H       
  26 H26            5.4295     3.8776    -1.6723 H       
  27 H27            7.8595     4.2523    -1.6891 H       
  28 H28            8.3131     1.5207     1.5684 H       
  29 H29            5.8832     1.1468     1.6007 H       
  30 H30           10.0244     2.6749     1.8943 H       
  31 H31           10.2228     1.3331     0.7418 H       
  32 H32           11.4065     2.6621     0.7727 H       
  33 H33            2.8013    -2.0241    -0.0348 H       
@<TRIPOS>BOND
   1    1    2 1
   2    1    9 1
   3    1   22 1
   4    2    3 2
   5    2   23 1
   6    3    4 1
   7    3   20 1
   8    4    5 ar
   9    4    9 ar
  10    5    6 ar
  11    5   24 1
  12    6    7 ar
  13    6   12 1
  14    7    8 ar
  15    7   10 1
  16    8    9 ar
  17    8   25 1
  18   10   11 3
  19   12   13 ar
  20   12   17 ar
  21   13   14 ar
  22   13   26 1
  23   14   15 ar
  24   14   27 1
  25   15   16 ar
  26   15   18 1
  27   16   17 ar
  28   16   28 1
  29   17   29 1
  30   18   19 1
  31   19   30 1
  32   19   31 1
  33   19   32 1
  34   20   21 2
  35   20   33 1

#	End of record

