#	Name: ASD01881609
#	Creating user name:	WinNT
#	Creation time:	15. 06. 2019 19:43

#	Modifying user name:	WinNT
#	Modification time:	15. 06. 2019 19:43

#	Program:	/corina/corina34_cracker 3.40 0067  02.08.2006

@<TRIPOS>MOLECULE
ASD01881609
  56   59    0    0    0
SMALL
NO_CHARGES


@<TRIPOS>ATOM
   1 N1            -0.0154     1.2839     0.0091 N.pl3   
   2 N2             0.0021    -0.0041     0.0020 N.2     
   3 N3             1.2033    -0.4649    -0.0119 N.2     
   4 C4             2.0741     0.5645    -0.0147 C.ar    
   5 C5             1.2843     1.7298    -0.0009 C.ar    
   6 C6             3.4670     0.6759    -0.0271 C.ar    
   7 C7             4.0484     1.9285    -0.0255 C.ar    
   8 C8             3.2560     3.0739    -0.0118 C.ar    
   9 C9             1.8924     2.9784    -0.0004 C.ar    
  10 O10            5.4033     2.0444    -0.0370 O.3     
  11 C11            5.9411     3.3683    -0.0346 C.3     
  12 C12            7.4465     3.2990    -0.0485 C.ar    
  13 C13            8.1239     3.2738    -1.2509 C.ar    
  14 C14            9.5158     3.2096    -1.2621 C.ar    
  15 C15           10.2163     3.1713    -0.0576 C.ar    
  16 C16            9.5287     3.1971     1.1385 C.ar    
  17 C17            8.1469     3.2665     1.1436 C.ar    
  18 C18           10.2494     3.1818    -2.5510 C.ar    
  19 C19           11.6416     3.1176    -2.5511 C.ar    
  20 C20           12.3142     3.0921    -3.7591 C.ar    
  21 C21           11.5690     3.1319    -4.9348 C.ar    
  22 C22           10.1846     3.1954    -4.8585 C.ar    
  23 N23            9.5734     3.2127    -3.6919 N.ar    
  24 O24           12.1902     3.1093    -6.1432 O.3     
  25 C25           11.3559     3.1530    -7.3025 C.3     
  26 C26           -1.2133     2.1272     0.0196 C.3     
  27 C27           -1.6228     2.4135     1.4657 C.3     
  28 C28           -0.4829     3.1377     2.1848 C.3     
  29 C29           -2.8739     3.2942     1.4767 C.3     
  30 C30           -1.9211     1.0947     2.1819 C.3     
  31 Br31           4.5472    -0.8761    -0.0451 Br      
  32 H32            3.7236     4.0474    -0.0103 H       
  33 H33            1.2882     3.8735     0.0099 H       
  34 H34            5.5939     3.9031    -0.9187 H       
  35 H35            5.6098     3.8935     0.8612 H       
  36 H36            7.5761     3.3033    -2.1812 H       
  37 H37           11.2951     3.1213    -0.0605 H       
  38 H38           10.0703     3.1675     2.0723 H       
  39 H39            7.6130     3.2912     2.0821 H       
  40 H40           12.1879     3.0884    -1.6200 H       
  41 H41           13.3927     3.0429    -3.7900 H       
  42 H42            9.6012     3.2268    -5.7668 H       
  43 H43           10.7679     4.0708    -7.2926 H       
  44 H44           11.9767     3.1289    -8.1981 H       
  45 H45           10.6865     2.2927    -7.3011 H       
  46 H46           -1.0007     3.0667    -0.4906 H       
  47 H47           -2.0254     1.6113    -0.4926 H       
  48 H48           -0.2704     4.0772     1.6746 H       
  49 H49           -0.7746     3.3417     3.2150 H       
  50 H50            0.4084     2.5103     2.1769 H       
  51 H51           -3.6859     2.7782     0.9645 H       
  52 H52           -3.1656     3.4981     2.5070 H       
  53 H53           -2.6613     4.2337     0.9666 H       
  54 H54           -1.0299     0.4673     2.1740 H       
  55 H55           -2.2129     1.2987     3.2121 H       
  56 H56           -2.7332     0.5788     1.6696 H       
@<TRIPOS>BOND
   1    1    2 1
   2    1    5 1
   3    1   26 1
   4    2    3 2
   5    3    4 1
   6    4    5 ar
   7    4    6 ar
   8    5    9 ar
   9    6    7 ar
  10    6   31 1
  11    7    8 ar
  12    7   10 1
  13    8    9 ar
  14    8   32 1
  15    9   33 1
  16   10   11 1
  17   11   12 1
  18   11   34 1
  19   11   35 1
  20   12   13 ar
  21   12   17 ar
  22   13   14 ar
  23   13   36 1
  24   14   15 ar
  25   14   18 1
  26   15   16 ar
  27   15   37 1
  28   16   17 ar
  29   16   38 1
  30   17   39 1
  31   18   19 ar
  32   18   23 ar
  33   19   20 ar
  34   19   40 1
  35   20   21 ar
  36   20   41 1
  37   21   22 ar
  38   21   24 1
  39   22   23 ar
  40   22   42 1
  41   24   25 1
  42   25   43 1
  43   25   44 1
  44   25   45 1
  45   26   27 1
  46   26   46 1
  47   26   47 1
  48   27   28 1
  49   27   29 1
  50   27   30 1
  51   28   48 1
  52   28   49 1
  53   28   50 1
  54   29   51 1
  55   29   52 1
  56   29   53 1
  57   30   54 1
  58   30   55 1
  59   30   56 1

#	End of record

