#	Name: ASD06170055
#	Creating user name:	WinNT
#	Creation time:	15. 06. 2019 21:05

#	Modifying user name:	WinNT
#	Modification time:	15. 06. 2019 21:05

#	Program:	/corina/corina34_cracker 3.40 0067  02.08.2006

@<TRIPOS>MOLECULE
ASD06170055
  69   73    0    0    0
SMALL
NO_CHARGES


@<TRIPOS>ATOM
   1 N1            -0.1865     1.4804     0.0274 N.pl3   
   2 N2            -0.2597     0.0917     0.1715 N.am    
   3 C3             0.9418    -0.4366    -0.1410 C.2     
   4 C4             1.8141     0.6925    -0.5010 C.2     
   5 C5             1.0491     1.8356    -0.3731 C.2     
   6 C6             3.2205     0.6188    -0.9143 C.2     
   7 O7             3.8292     1.6370    -1.1854 O.2     
   8 N8             3.8378    -0.5767    -0.9935 N.am    
   9 C9            -1.3890    -0.6291     0.5731 C.ar    
  10 C10           -2.1392    -1.3266    -0.3647 C.ar    
  11 C11           -3.2536    -2.0378     0.0353 C.ar    
  12 C12           -3.6229    -2.0554     1.3677 C.ar    
  13 C13           -2.8784    -1.3615     2.3039 C.ar    
  14 C14           -1.7594    -0.6535     1.9115 C.ar    
  15 O15            1.2446    -1.6151    -0.1277 O.2     
  16 C16            1.5182     3.2430    -0.6379 C.3     
  17 C17            5.1677    -0.6488    -1.4079 C.ar    
  18 C18            5.9746     0.4808    -1.3292 C.ar    
  19 C19            7.2919     0.3982    -1.7428 C.ar    
  20 C20            7.7607    -0.8215    -2.2249 C.ar    
  21 C21            6.8988    -1.9052    -2.2744 C.ar    
  22 N22            5.6490    -1.7929    -1.8666 N.ar    
  23 O23            9.0486    -0.9470    -2.6424 O.3     
  24 N24           11.9650    -1.3619     0.2441 N.ar    
  25 C25           10.7144    -1.1687     0.5922 C.ar    
  26 C26            9.7055    -1.0245    -0.3514 C.ar    
  27 C27           10.0128    -1.0840    -1.6995 C.ar    
  28 C28           11.3627    -1.2924    -2.0630 C.ar    
  29 C29           11.7507    -1.3642    -3.4088 C.ar    
  30 C30           13.0585    -1.5657    -3.7268 C.ar    
  31 C31           14.0249    -1.7028    -2.7261 C.ar    
  32 C32           13.6755    -1.6375    -1.3962 C.ar    
  33 C33           12.3333    -1.4300    -1.0408 C.ar    
  34 O34           15.3236    -1.9032    -3.0700 O.3     
  35 C35           15.6234    -1.9620    -4.4660 C.3     
  36 C36           -1.8132     2.2226     1.6960 C.3     
  37 C37           -1.2919     2.4106     0.2699 C.3     
  38 C38           -2.4197     2.1332    -0.7261 C.3     
  39 C39           -1.8652     2.1821    -2.1512 C.3     
  40 O40           -2.9707     0.8391    -0.4735 O.3     
  41 H41            3.3572    -1.3870    -0.7623 H       
  42 H42           -1.8517    -1.3127    -1.4056 H       
  43 H43           -3.8374    -2.5804    -0.6935 H       
  44 H44           -4.4949    -2.6119     1.6779 H       
  45 H45           -3.1699    -1.3766     3.3437 H       
  46 H46           -1.1756    -0.1157     2.6438 H       
  47 H47            1.9242     3.6693     0.2794 H       
  48 H48            2.2916     3.2298    -1.4059 H       
  49 H49            0.6779     3.8479    -0.9789 H       
  50 H50            5.5778     1.4110    -0.9503 H       
  51 H51            7.9416     1.2595    -1.6934 H       
  52 H52            7.2552    -2.8540    -2.6474 H       
  53 H53           10.4629    -1.1209     1.6415 H       
  54 H54            8.6852    -0.8669    -0.0343 H       
  55 H55           11.0133    -1.2601    -4.1910 H       
  56 H56           13.3531    -1.6207    -4.7644 H       
  57 H57           14.4298    -1.7447    -0.6307 H       
  58 H58           16.6925    -2.1256    -4.6014 H       
  59 H59           15.0697    -2.7826    -4.9222 H       
  60 H60           15.3367    -1.0228    -4.9391 H       
  61 H61           -2.3811     1.2941     1.7558 H       
  62 H62           -0.9718     2.1790     2.3876 H       
  63 H63           -2.4580     3.0606     1.9606 H       
  64 H64           -0.9396     3.4344     0.1439 H       
  65 H65           -3.1981     2.8878    -0.6130 H       
  66 H66           -2.6686     1.9845    -2.8607 H       
  67 H67           -1.4449     3.1692    -2.3438 H       
  68 H68           -1.0868     1.4275    -2.2643 H       
  69 H69           -3.6926     0.5959    -1.0691 H       
@<TRIPOS>BOND
   1    1    2 1
   2    1    5 1
   3    1   37 1
   4    2    3 am
   5    2    9 1
   6    3    4 1
   7    3   15 2
   8    4    5 2
   9    4    6 1
  10    5   16 1
  11    6    7 2
  12    6    8 am
  13    8   17 1
  14    8   41 1
  15    9   10 ar
  16    9   14 ar
  17   10   11 ar
  18   10   42 1
  19   11   12 ar
  20   11   43 1
  21   12   13 ar
  22   12   44 1
  23   13   14 ar
  24   13   45 1
  25   14   46 1
  26   16   47 1
  27   16   48 1
  28   16   49 1
  29   17   18 ar
  30   17   22 ar
  31   18   19 ar
  32   18   50 1
  33   19   20 ar
  34   19   51 1
  35   20   21 ar
  36   20   23 1
  37   21   22 ar
  38   21   52 1
  39   23   27 1
  40   24   25 ar
  41   24   33 ar
  42   25   26 ar
  43   25   53 1
  44   26   27 ar
  45   26   54 1
  46   27   28 ar
  47   28   29 ar
  48   28   33 ar
  49   29   30 ar
  50   29   55 1
  51   30   31 ar
  52   30   56 1
  53   31   32 ar
  54   31   34 1
  55   32   33 ar
  56   32   57 1
  57   34   35 1
  58   35   58 1
  59   35   59 1
  60   35   60 1
  61   36   37 1
  62   36   61 1
  63   36   62 1
  64   36   63 1
  65   37   38 1
  66   37   64 1
  67   38   39 1
  68   38   40 1
  69   38   65 1
  70   39   66 1
  71   39   67 1
  72   39   68 1
  73   40   69 1

#	End of record

