#	Name: ASD03950059
#	Creating user name:	WinNT
#	Creation time:	15. 06. 2019 20:48

#	Modifying user name:	WinNT
#	Modification time:	15. 06. 2019 20:48

#	Program:	/corina/corina34_cracker 3.40 0067  02.08.2006

@<TRIPOS>MOLECULE
ASD03950059
  66   70    0    0    0
SMALL
NO_CHARGES


@<TRIPOS>ATOM
   1 N1            -0.0169     1.3942     0.0097 N.pl3   
   2 N2             0.0021    -0.0041     0.0020 N.2     
   3 C3             1.2311    -0.4341    -0.0120 C.2     
   4 C4             2.1096     0.7332    -0.0141 C.ar    
   5 C5             3.4970     0.8980    -0.0268 C.ar    
   6 C6             4.0426     2.1763    -0.0256 C.ar    
   7 C7             3.2107     3.2996    -0.0117 C.ar    
   8 C8             1.8299     3.1505     0.0011 C.ar    
   9 C9             1.2669     1.8606    -0.0000 C.ar    
  10 C10            0.9567     4.3395     0.0153 C.2     
  11 O11           -0.2519     4.2062     0.0265 O.2     
  12 N12            1.4986     5.5736     0.0159 N.am    
  13 C13            5.5116     2.3490    -0.0386 C.2     
  14 C14            6.1558     3.5324    -0.0388 C.2     
  15 C15            7.5328     3.4395    -0.0514 C.2     
  16 C16            8.0158     2.1942    -0.0615 C.2     
  17 S17            6.6878     1.0413    -0.0486 S.3     
  18 N18            1.2101    -4.6673    -0.0344 N.am    
  19 C19            1.6131    -4.0363     1.2298 C.3     
  20 C20            1.1377    -2.5800     1.2275 C.3     
  21 C21            1.6685    -1.8762    -0.0235 C.3     
  22 C22            1.1160    -2.5667    -1.2725 C.3     
  23 C23            1.5912    -4.0228    -1.2986 C.3     
  24 S24            0.3488    -6.0816    -0.0344 S.o2    
  25 O25            0.6701    -6.6876    -1.2790 O.2     
  26 O26            0.6967    -6.7039     1.1948 O.2     
  27 C27           -1.3868    -5.5546    -0.0123 C.3     
  28 C28           -2.2940    -6.7867    -0.0106 C.3     
  29 C29           -3.7578    -6.3422     0.0080 C.3     
  30 N30           -4.6288    -7.5251     0.0096 N.3     
  31 C31           -6.0270    -7.1496     0.2655 C.3     
  32 C32           -6.9062    -8.4012     0.1993 C.3     
  33 O33           -6.4243    -9.3664     1.1382 O.3     
  34 C34           -5.0657    -9.7553     0.9180 C.3     
  35 C35           -4.1679    -8.5174     0.9915 C.3     
  36 H36           -0.8150     1.9454     0.0166 H       
  37 H37            4.1443     0.0335    -0.0373 H       
  38 H38            3.6441     4.2889    -0.0105 H       
  39 H39            2.4627     5.6799     0.0070 H       
  40 H40            0.9245     6.3554     0.0252 H       
  41 H41            5.6358     4.4789    -0.0300 H       
  42 H42            8.1727     4.3095    -0.0533 H       
  43 H43            9.0640     1.9343    -0.0721 H       
  44 H44            1.1576    -4.5681     2.0652 H       
  45 H45            2.6987    -4.0661     1.3234 H       
  46 H46            0.0480    -2.5530     1.2253 H       
  47 H47            1.5128    -2.0734     2.1168 H       
  48 H48            2.7574    -1.9253    -0.0333 H       
  49 H49            0.0265    -2.5399    -1.2511 H       
  50 H50            1.4757    -2.0506    -2.1627 H       
  51 H51            2.6750    -4.0515    -1.4112 H       
  52 H52            1.1212    -4.5457    -2.1315 H       
  53 H53           -1.5756    -4.9633     0.8837 H       
  54 H54           -1.5947    -4.9515    -0.8961 H       
  55 H55           -2.1052    -7.3780    -0.9066 H       
  56 H56           -2.0861    -7.3898     0.8732 H       
  57 H57           -3.9466    -5.7508     0.9040 H       
  58 H58           -3.9657    -5.7391    -0.8758 H       
  59 H59           -6.1078    -6.7000     1.2551 H       
  60 H60           -6.3554    -6.4338    -0.4881 H       
  61 H61           -7.9348    -8.1368     0.4446 H       
  62 H62           -6.8674    -8.8205    -0.8061 H       
  63 H63           -4.7633   -10.4703     1.6832 H       
  64 H64           -4.9734   -10.2140    -0.0664 H       
  65 H65           -3.1392    -8.8001     0.7679 H       
  66 H66           -4.2190    -8.0897     1.9928 H       
@<TRIPOS>BOND
   1    1    2 1
   2    1    9 1
   3    1   36 1
   4    2    3 2
   5    3    4 1
   6    3   21 1
   7    4    5 ar
   8    4    9 ar
   9    5    6 ar
  10    5   37 1
  11    6    7 ar
  12    6   13 1
  13    7    8 ar
  14    7   38 1
  15    8    9 ar
  16    8   10 1
  17   10   11 2
  18   10   12 am
  19   12   39 1
  20   12   40 1
  21   13   14 2
  22   13   17 1
  23   14   15 1
  24   14   41 1
  25   15   16 2
  26   15   42 1
  27   16   17 1
  28   16   43 1
  29   18   19 1
  30   18   23 1
  31   18   24 am
  32   19   20 1
  33   19   44 1
  34   19   45 1
  35   20   21 1
  36   20   46 1
  37   20   47 1
  38   21   22 1
  39   21   48 1
  40   22   23 1
  41   22   49 1
  42   22   50 1
  43   23   51 1
  44   23   52 1
  45   24   25 2
  46   24   26 2
  47   24   27 1
  48   27   28 1
  49   27   53 1
  50   27   54 1
  51   28   29 1
  52   28   55 1
  53   28   56 1
  54   29   30 1
  55   29   57 1
  56   29   58 1
  57   30   31 1
  58   30   35 1
  59   31   32 1
  60   31   59 1
  61   31   60 1
  62   32   33 1
  63   32   61 1
  64   32   62 1
  65   33   34 1
  66   34   35 1
  67   34   63 1
  68   34   64 1
  69   35   65 1
  70   35   66 1

#	End of record

