#	Name: ASD03451014
#	Creating user name:	WinNT
#	Creation time:	15. 06. 2019 20:42

#	Modifying user name:	WinNT
#	Modification time:	15. 06. 2019 20:42

#	Program:	/corina/corina34_cracker 3.40 0067  02.08.2006

@<TRIPOS>MOLECULE
ASD03451014
  37   40    0    0    0
SMALL
NO_CHARGES


@<TRIPOS>ATOM
   1 C1            -0.0015     1.6147     0.0514 C.ar    
   2 C2            -0.0340     0.2329    -0.0134 C.ar    
   3 C3             1.1560    -0.4693    -0.0581 C.ar    
   4 C4             2.3644     0.2428    -0.0366 C.ar    
   5 C5             2.3221     1.6416     0.0232 C.ar    
   6 N6             1.1395     2.2662     0.0679 N.ar    
   7 C7             3.6177    -0.5259    -0.0728 C.2     
   8 N8             4.6693    -0.2333     0.6233 N.2     
   9 C9             4.6937     0.9303     1.5099 C.3     
  10 C10            4.5153     2.1737     0.6842 C.2     
  11 N11            3.4335     2.4190     0.0328 N.2     
  12 C12            3.6801    -1.7021    -0.9555 C.2     
  13 C13            3.5735     0.8248     2.5124 C.2     
  14 S14            2.6768     2.1839     3.1776 S.3     
  15 C15            1.6935     1.0975     4.1504 C.2     
  16 C16            2.0722    -0.1631     3.9343 C.2     
  17 C17            3.1064    -0.3139     3.0266 C.2     
  18 C18            4.7604    -2.5206    -1.1073 C.2     
  19 C19            4.5443    -3.5481    -1.9984 C.2     
  20 C20            3.3296    -3.5686    -2.5555 C.2     
  21 S21            2.3713    -2.2810    -1.9770 S.3     
  22 N22            5.5372     3.0746     0.6241 N.pl3   
  23 C23            5.3917     4.2953    -0.1727 C.3     
  24 H24           -0.9290     2.1670     0.0845 H       
  25 H25           -0.9783    -0.2910    -0.0285 H       
  26 H26            1.1553    -1.5482    -0.1085 H       
  27 H27            5.6501     0.9722     2.0312 H       
  28 H28            0.9041     1.4042     4.8206 H       
  29 H29            1.6049    -1.0027     4.4272 H       
  30 H30            3.5092    -1.2799     2.7601 H       
  31 H31            5.6926    -2.3770    -0.5813 H       
  32 H32            5.3009    -4.2831    -2.2303 H       
  33 H33            2.9976    -4.3044    -3.2730 H       
  34 H34            6.3605     2.9072     1.1089 H       
  35 H35            5.2130     4.0299    -1.2147 H       
  36 H36            4.5499     4.8767     0.2036 H       
  37 H37            6.3038     4.8877    -0.0999 H       
@<TRIPOS>BOND
   1    1    2 ar
   2    1    6 ar
   3    1   24 1
   4    2    3 ar
   5    2   25 1
   6    3    4 ar
   7    3   26 1
   8    4    5 ar
   9    4    7 1
  10    5    6 ar
  11    5   11 1
  12    7    8 2
  13    7   12 1
  14    8    9 1
  15    9   10 1
  16    9   13 1
  17    9   27 1
  18   10   11 2
  19   10   22 1
  20   12   18 2
  21   12   21 1
  22   13   14 1
  23   13   17 2
  24   14   15 1
  25   15   16 2
  26   15   28 1
  27   16   17 1
  28   16   29 1
  29   17   30 1
  30   18   19 1
  31   18   31 1
  32   19   20 2
  33   19   32 1
  34   20   21 1
  35   20   33 1
  36   22   23 1
  37   22   34 1
  38   23   35 1
  39   23   36 1
  40   23   37 1

#	End of record

