#	Name: ASD03240491
#	Creating user name:	WinNT
#	Creation time:	15. 06. 2019 20:35

#	Modifying user name:	WinNT
#	Modification time:	15. 06. 2019 20:35

#	Program:	/corina/corina34_cracker 3.40 0067  02.08.2006

@<TRIPOS>MOLECULE
ASD03240491
  43   45    0    0    0
SMALL
NO_CHARGES


@<TRIPOS>ATOM
   1 C1            -0.0167     1.3789     0.0096 C.ar    
   2 C2             0.0021    -0.0041     0.0020 C.ar    
   3 C3             1.1677     2.0877     0.0021 C.ar    
   4 C4             2.3833     1.4077    -0.0132 C.ar    
   5 C5             2.3965     0.0147    -0.0208 C.ar    
   6 C6             1.2064    -0.6842    -0.0127 C.ar    
   7 C7             3.6605     2.1648    -0.0218 C.2     
   8 C8             4.6009     2.1708     0.9666 C.2     
   9 N9             5.6037     2.9804     0.5707 N.pl3   
  10 N10            5.2813     3.4906    -0.6926 N.2     
  11 C11            4.1243     3.0028    -1.0545 C.2     
  12 C12           -1.2942    -0.7726     0.0103 C.3     
  13 C13           -1.7296    -1.0154    -1.3747 C.1     
  14 N14           -2.0656    -1.2027    -2.4436 N.1     
  15 C15            6.8204     3.2758     1.3314 C.3     
  16 O16            7.9545     3.1981     0.4654 O.3     
  17 C17            9.2029     3.4452     1.1154 C.3     
  18 C18            9.2032     4.8621     1.6951 C.3     
  19 C19            8.0249     5.0099     2.6625 C.3     
  20 C20            6.7250     4.6859     1.9198 C.3     
  21 C21            3.4067     3.2939    -2.3473 C.3     
  22 F22            4.2208     4.0853    -3.1646 F       
  23 F23            3.1178     2.0913    -3.0013 F       
  24 F24            2.2152     3.9751    -2.0761 F       
  25 C25            4.5314     1.4102     2.2657 C.3     
  26 H26           -0.9598     1.9052     0.0170 H       
  27 H27            1.1520     3.1676     0.0077 H       
  28 H28            3.3363    -0.5173    -0.0327 H       
  29 H29            1.2154    -1.7642    -0.0183 H       
  30 H30           -1.1480    -1.7262     0.5177 H       
  31 H31           -2.0556    -0.1951     0.5346 H       
  32 H32            6.9292     2.5515     2.1387 H       
  33 H33            9.3430     2.7233     1.9200 H       
  34 H34           10.0140     3.3474     0.3938 H       
  35 H35           10.1372     5.0370     2.2292 H       
  36 H36            9.1038     5.5864     0.8866 H       
  37 H37            8.1496     4.3200     3.4971 H       
  38 H38            7.9860     6.0331     3.0362 H       
  39 H39            6.5755     5.4067     1.1158 H       
  40 H40            5.8866     4.7348     2.6146 H       
  41 H41            4.9855     0.4278     2.1363 H       
  42 H42            5.0692     1.9601     3.0380 H       
  43 H43            3.4892     1.2925     2.5625 H       
@<TRIPOS>BOND
   1    1    2 ar
   2    1    3 ar
   3    1   26 1
   4    2    6 ar
   5    2   12 1
   6    3    4 ar
   7    3   27 1
   8    4    5 ar
   9    4    7 1
  10    5    6 ar
  11    5   28 1
  12    6   29 1
  13    7    8 2
  14    7   11 1
  15    8    9 1
  16    8   25 1
  17    9   10 1
  18    9   15 1
  19   10   11 2
  20   11   21 1
  21   12   13 1
  22   12   30 1
  23   12   31 1
  24   13   14 3
  25   15   16 1
  26   15   20 1
  27   15   32 1
  28   16   17 1
  29   17   18 1
  30   17   33 1
  31   17   34 1
  32   18   19 1
  33   18   35 1
  34   18   36 1
  35   19   20 1
  36   19   37 1
  37   19   38 1
  38   20   39 1
  39   20   40 1
  40   21   22 1
  41   21   23 1
  42   21   24 1
  43   25   41 1
  44   25   42 1
  45   25   43 1

#	End of record

