#	Name: ASD01914699
#	Creating user name:	WinNT
#	Creation time:	15. 06. 2019 20:04

#	Modifying user name:	WinNT
#	Modification time:	15. 06. 2019 20:04

#	Program:	/corina/corina34_cracker 3.40 0067  02.08.2006

@<TRIPOS>MOLECULE
ASD01914699
  46   49    0    0    0
SMALL
NO_CHARGES


@<TRIPOS>ATOM
   1 C1            -0.0169     1.3932     0.0097 C.ar    
   2 C2             0.0021    -0.0041     0.0020 C.ar    
   3 C3             1.2254    -0.6794    -0.0133 C.ar    
   4 C4             2.4042     0.0364    -0.0207 C.ar    
   5 C5             2.3776     1.4200    -0.0130 C.ar    
   6 C6             1.1700     2.0955     0.0021 C.ar    
   7 C7            -1.2261    -0.7403     0.0103 C.1     
   8 C8            -2.2331    -1.3439     0.0170 C.1     
   9 C9            -3.4613    -2.0802     0.0253 C.ar    
  10 C10           -3.4509    -3.4761     0.0177 C.ar    
  11 N11           -4.5798    -4.1553     0.0257 N.ar    
  12 C12           -5.7571    -3.5514     0.0411 C.ar    
  13 C13           -5.8499    -2.1638     0.0495 C.ar    
  14 C14           -4.6936    -1.4097     0.0470 C.ar    
  15 C15           -7.1981    -1.4906     0.0666 C.3     
  16 C16           -7.8085    -1.4654    -1.3481 C.3     
  17 O17           -7.9498    -0.0462    -1.6459 O.3     
  18 C18           -7.5087     0.6735    -0.6081 C.2     
  19 N19           -7.0610    -0.0680     0.4144 N.am    
  20 O20           -7.5132     1.8885    -0.5940 O.2     
  21 C21           -9.1544    -2.1432    -1.3549 C.ar    
  22 C22           -9.2547    -3.4764    -1.7057 C.ar    
  23 C23          -10.4890    -4.0995    -1.7129 C.ar    
  24 C24          -11.6238    -3.3899    -1.3693 C.ar    
  25 C25          -11.5244    -2.0542    -1.0173 C.ar    
  26 C26          -10.2873    -1.4329    -1.0050 C.ar    
  27 F27          -12.6333    -1.3594    -0.6813 F       
  28 O28           -6.8902    -4.2969     0.0484 O.3     
  29 C29           -6.7325    -5.7171     0.0386 C.3     
  30 H30           -0.9586     1.9218     0.0170 H       
  31 H31            1.2476    -1.7591    -0.0189 H       
  32 H32            3.3505    -0.4841    -0.0322 H       
  33 H33            3.3039     1.9752    -0.0185 H       
  34 H34            1.1570     3.1755     0.0081 H       
  35 H35           -2.5089    -4.0041     0.0048 H       
  36 H36           -4.7366    -0.3306     0.0534 H       
  37 H37           -7.8677    -1.9947     0.7635 H       
  38 H38           -7.1365    -1.9407    -2.0627 H       
  39 H39           -6.7044     0.2771     1.2478 H       
  40 H40           -8.3684    -4.0317    -1.9747 H       
  41 H41          -10.5663    -5.1411    -1.9875 H       
  42 H42          -12.5879    -3.8766    -1.3757 H       
  43 H43          -10.2087    -0.3913    -0.7306 H       
  44 H44           -6.1727    -6.0266     0.9212 H       
  45 H45           -7.7138    -6.1917     0.0459 H       
  46 H46           -6.1908    -6.0164    -0.8586 H       
@<TRIPOS>BOND
   1    1    2 ar
   2    1    6 ar
   3    1   30 1
   4    2    3 ar
   5    2    7 1
   6    3    4 ar
   7    3   31 1
   8    4    5 ar
   9    4   32 1
  10    5    6 ar
  11    5   33 1
  12    6   34 1
  13    7    8 3
  14    8    9 1
  15    9   10 ar
  16    9   14 ar
  17   10   11 ar
  18   10   35 1
  19   11   12 ar
  20   12   13 ar
  21   12   28 1
  22   13   14 ar
  23   13   15 1
  24   14   36 1
  25   15   16 1
  26   15   19 1
  27   15   37 1
  28   16   17 1
  29   16   21 1
  30   16   38 1
  31   17   18 1
  32   18   19 am
  33   18   20 2
  34   19   39 1
  35   21   22 ar
  36   21   26 ar
  37   22   23 ar
  38   22   40 1
  39   23   24 ar
  40   23   41 1
  41   24   25 ar
  42   24   42 1
  43   25   26 ar
  44   25   27 1
  45   26   43 1
  46   28   29 1
  47   29   44 1
  48   29   45 1
  49   29   46 1

#	End of record

