#	Name: ASD01148728
#	Creating user name:	WinNT
#	Creation time:	15. 06. 2019 19:03

#	Modifying user name:	WinNT
#	Modification time:	15. 06. 2019 19:03

#	Program:	/corina/corina34_cracker 3.40 0067  02.08.2006

@<TRIPOS>MOLECULE
ASD01148728
  58   60    0    0    0
SMALL
NO_CHARGES


@<TRIPOS>ATOM
   1 N1            -0.0153     1.3475     0.0831 N.pl3   
   2 C2             0.0017     0.0058    -0.1105 C.2     
   3 C3             1.3168    -0.4048    -0.1566 C.2     
   4 C4             2.1200     0.7520     0.0186 C.2     
   5 C5             1.2784     1.8073     0.1626 C.2     
   6 C6             1.7975    -1.7835    -0.3509 C.2     
   7 O7             1.0004    -2.6915    -0.4901 O.2     
   8 N8             3.1207    -2.0389    -0.3745 N.am    
   9 C9             3.5987    -3.4101    -0.5677 C.3     
  10 O10            4.0487    -0.9817    -0.2124 O.3     
  11 C11            4.4166    -0.7344     1.1461 C.3     
  12 C12           -1.2074    -0.8826    -0.2510 C.3     
  13 C13           -1.1667     2.1398     0.1806 C.ar    
  14 C14           -2.0080     2.0124     1.2778 C.ar    
  15 C15           -3.1423     2.7949     1.3711 C.ar    
  16 C16           -3.4407     3.7041     0.3729 C.ar    
  17 C17           -2.6049     3.8333    -0.7211 C.ar    
  18 C18           -1.4658     3.0581    -0.8170 C.ar    
  19 S19           -4.8894     4.6997     0.4949 S.o2    
  20 O20           -5.2238     5.0859    -0.8311 O.2     
  21 O21           -5.7845     4.0026     1.3505 O.2     
  22 N22           -4.4648     6.0872     1.2930 N.am    
  23 C23           -5.3520     7.0007     1.5186 C.2     
  24 N24           -5.0008     8.1486     2.1788 N.pl3   
  25 C25           -3.6201     8.3413     2.6293 C.3     
  26 C26           -6.0058     9.1834     2.4343 C.3     
  27 C27            1.6843     3.2142     0.3694 C.ar    
  28 C28            0.7892     4.1262     0.9303 C.ar    
  29 C29            1.1736     5.4372     1.1213 C.ar    
  30 C30            2.4445     5.8490     0.7573 C.ar    
  31 C31            3.3368     4.9487     0.2000 C.ar    
  32 C32            2.9658     3.6337     0.0099 C.ar    
  33 Cl33           2.9210     7.5006     1.0002 Cl      
  34 H34            3.1993     0.7862     0.0349 H       
  35 H35            3.7275    -3.6033    -1.6327 H       
  36 H36            4.5534    -3.5374    -0.0573 H       
  37 H37            2.8710    -4.1099    -0.1570 H       
  38 H38            4.8726    -1.6302     1.5678 H       
  39 H39            5.1296     0.0891     1.1853 H       
  40 H40            3.5283    -0.4736     1.7214 H       
  41 H41           -1.4886    -0.9499    -1.3020 H       
  42 H42           -0.9729    -1.8778     0.1268 H       
  43 H43           -2.0351    -0.4627     0.3205 H       
  44 H44           -1.7758     1.3020     2.0574 H       
  45 H45           -3.7970     2.6963     2.2243 H       
  46 H46           -2.8406     4.5443    -1.4991 H       
  47 H47           -0.8108     3.1628    -1.6693 H       
  48 H48           -6.3698     6.8587     1.1864 H       
  49 H49           -3.0472     8.8344     1.8441 H       
  50 H50           -3.6137     8.9598     3.5268 H       
  51 H51           -3.1722     7.3729     2.8523 H       
  52 H52           -6.9663     8.8649     2.0293 H       
  53 H53           -6.0991     9.3419     3.5087 H       
  54 H54           -5.6998    10.1134     1.9551 H       
  55 H55           -0.2026     3.8064     1.2139 H       
  56 H56            0.4818     6.1439     1.5552 H       
  57 H57            4.3266     5.2757    -0.0826 H       
  58 H58            3.6642     2.9312    -0.4204 H       
@<TRIPOS>BOND
   1    1    2 1
   2    1    5 1
   3    1   13 1
   4    2    3 2
   5    2   12 1
   6    3    4 1
   7    3    6 1
   8    4    5 2
   9    4   34 1
  10    5   27 1
  11    6    7 2
  12    6    8 am
  13    8    9 1
  14    8   10 1
  15    9   35 1
  16    9   36 1
  17    9   37 1
  18   10   11 1
  19   11   38 1
  20   11   39 1
  21   11   40 1
  22   12   41 1
  23   12   42 1
  24   12   43 1
  25   13   14 ar
  26   13   18 ar
  27   14   15 ar
  28   14   44 1
  29   15   16 ar
  30   15   45 1
  31   16   17 ar
  32   16   19 1
  33   17   18 ar
  34   17   46 1
  35   18   47 1
  36   19   20 2
  37   19   21 2
  38   19   22 am
  39   22   23 2
  40   23   24 1
  41   23   48 1
  42   24   25 1
  43   24   26 1
  44   25   49 1
  45   25   50 1
  46   25   51 1
  47   26   52 1
  48   26   53 1
  49   26   54 1
  50   27   28 ar
  51   27   32 ar
  52   28   29 ar
  53   28   55 1
  54   29   30 ar
  55   29   56 1
  56   30   31 ar
  57   30   33 1
  58   31   32 ar
  59   31   57 1
  60   32   58 1

#	End of record

