#	Name: ASD05430675
#	Creating user name:	WinNT
#	Creation time:	15. 06. 2019 21:00

#	Modifying user name:	WinNT
#	Modification time:	15. 06. 2019 21:00

#	Program:	/corina/corina34_cracker 3.40 0067  02.08.2006

@<TRIPOS>MOLECULE
ASD05430675
  21   21    0    0    0
SMALL
NO_CHARGES


@<TRIPOS>ATOM
   1 C1            -0.0167     1.3774     0.0096 C.ar    
   2 C2             0.0021    -0.0041     0.0020 C.ar    
   3 C3            -1.1876    -0.7127     0.0095 C.ar    
   4 C4            -2.4142     1.3449     0.0439 C.ar    
   5 C5            -1.2250     2.0533     0.0305 C.ar    
   6 C6             1.2780     2.1486     0.0014 C.3     
   7 C7            -2.3956    -0.0369     0.0242 C.ar    
   8 C8             2.0972     1.7832     1.2409 C.3     
   9 C9             2.0733     1.7966    -1.2574 C.3     
  10 F10           -1.2431     3.4041     0.0503 F       
  11 F11           -1.1692    -2.0635     0.0021 F       
  12 H12            0.9446    -0.5313    -0.0101 H       
  13 H13           -3.3567     1.8721     0.0606 H       
  14 H14            1.0644     3.2174     0.0092 H       
  15 H15           -3.3234    -0.5897     0.0343 H       
  16 H16            1.5306     2.0340     2.1377 H       
  17 H17            2.3108     0.7144     1.2331 H       
  18 H18            3.0336     2.3410     1.2350 H       
  19 H19            1.4898     2.0569    -2.1405 H       
  20 H20            3.0098     2.3544    -1.2633 H       
  21 H21            2.2870     0.7278    -1.2652 H       
@<TRIPOS>BOND
   1    1    2 ar
   2    1    6 1
   3    1    5 ar
   4    2    3 ar
   5    2   12 1
   6    3   11 1
   7    3    7 ar
   8    4    5 ar
   9    4    7 ar
  10    4   13 1
  11    5   10 1
  12    6    8 1
  13    6    9 1
  14    6   14 1
  15    7   15 1
  16    8   16 1
  17    8   17 1
  18    8   18 1
  19    9   19 1
  20    9   20 1
  21    9   21 1

#	End of record

