#	Name: ASD04882610
#	Creating user name:	WinNT
#	Creation time:	15. 06. 2019 20:55

#	Modifying user name:	WinNT
#	Modification time:	15. 06. 2019 20:55

#	Program:	/corina/corina34_cracker 3.40 0067  02.08.2006

@<TRIPOS>MOLECULE
ASD04882610
  79   84    0    0    0
SMALL
NO_CHARGES


@<TRIPOS>ATOM
   1 C1            -0.2791     1.4482     0.1216 C.ar    
   2 C2             0.0515     0.0927     0.0408 C.ar    
   3 C3            -0.9502    -0.8711     0.0552 C.ar    
   4 C4            -2.2715    -0.4941     0.1490 C.ar    
   5 C5            -2.6092     0.8598     0.2296 C.ar    
   6 C6            -1.6036     1.8305     0.2216 C.ar    
   7 N7             1.3861    -0.2930    -0.0546 N.3     
   8 C8             1.9755     0.1564    -1.3263 C.3     
   9 C9             1.5243    -1.7492     0.0812 C.3     
  10 C10            2.9472    -2.1563    -0.1783 C.2     
  11 N11            3.8250    -1.3619    -0.8000 N.am    
  12 C12            3.4940    -0.0133    -1.2511 C.3     
  13 C13           -4.0246     1.2634     0.3296 C.2     
  14 O14           -4.3175     2.4415     0.3996 O.2     
  15 N15           -4.9932     0.3263     0.3432 N.am    
  16 N16            0.7314     2.4184     0.1069 N.am    
  17 C17            5.1186    -1.8442    -1.0275 C.ar    
  18 C18            0.5101     3.6133    -0.4761 C.2     
  19 C19            1.5201     4.6730    -0.3832 C.2     
  20 C20            2.7231     4.5972     0.2543 C.2     
  21 N21            3.3347     5.7757     0.0981 N.2     
  22 C22            2.5647     6.5648    -0.6023 C.2     
  23 O23            1.4411     5.9135    -0.9188 O.3     
  24 O24           -0.5278     3.8130    -1.0795 O.2     
  25 C25            2.8931     7.9820    -0.9957 C.3     
  26 C26            3.1440     8.9875     0.1299 C.3     
  27 C27            4.3125     8.4813    -0.7182 C.3     
  28 C28           -6.3988     0.7270     0.4425 C.3     
  29 C29           -7.2861    -0.5194     0.4376 C.3     
  30 C30           -8.7541    -0.1009     0.5412 C.3     
  31 N31           -9.6037    -1.2943     0.5365 N.am    
  32 C32           -9.9800    -1.9619     1.6409 C.2     
  33 C33          -10.8434    -3.1457     1.2644 C.3     
  34 C34          -10.5892    -3.3344    -0.2491 C.3     
  35 C35          -10.1584    -1.9111    -0.6742 C.3     
  36 O36           -9.6718    -1.6594     2.7742 O.2     
  37 C37            5.4105    -2.5259    -2.2015 C.ar    
  38 C38            6.6885    -3.0009    -2.4231 C.ar    
  39 C39            7.6765    -2.7985    -1.4773 C.ar    
  40 C40            7.3890    -2.1199    -0.3070 C.ar    
  41 C41            6.1149    -1.6372    -0.0822 C.ar    
  42 C42            5.8025    -0.8978     1.1933 C.3     
  43 O43            3.3148    -3.2515     0.1911 O.2     
  44 H44           -0.6918    -1.9179    -0.0077 H       
  45 H45           -3.0474    -1.2453     0.1599 H       
  46 H46           -1.8615     2.8774     0.2837 H       
  47 H47            1.5805    -0.4451    -2.1450 H       
  48 H48            1.7326     1.2062    -1.4909 H       
  49 H49            1.2413    -2.0469     1.0908 H       
  50 H50            0.8699    -2.2433    -0.6369 H       
  51 H51            3.9253     0.1540    -2.2380 H       
  52 H52            3.9055     0.7135    -0.5506 H       
  53 H53           -4.7596    -0.6135     0.2874 H       
  54 H54            1.5904     2.2303     0.5163 H       
  55 H55            3.1108     3.7418     0.7876 H       
  56 H56            2.3978     8.3469    -1.8954 H       
  57 H57            2.8140    10.0141    -0.0295 H       
  58 H58            3.0715     8.6240     1.1549 H       
  59 H59            5.0087     7.7847    -0.2511 H       
  60 H60            4.7513     9.1748    -1.4355 H       
  61 H61           -6.5544     1.2801     1.3688 H       
  62 H62           -6.6570     1.3602    -0.4064 H       
  63 H63           -7.1305    -1.0725    -0.4887 H       
  64 H64           -7.0280    -1.1525     1.2865 H       
  65 H65           -8.9097     0.4522     1.4676 H       
  66 H66           -9.0122     0.5323    -0.3076 H       
  67 H67          -10.5353    -4.0335     1.8166 H       
  68 H68          -11.8946    -2.9255     1.4501 H       
  69 H69           -9.7913    -4.0562    -0.4236 H       
  70 H70          -11.5025    -3.6327    -0.7639 H       
  71 H71          -11.0201    -1.3471    -1.0313 H       
  72 H72           -9.3939    -1.9641    -1.4493 H       
  73 H73            4.6390    -2.6850    -2.9403 H       
  74 H74            6.9162    -3.5312    -3.3360 H       
  75 H75            8.6748    -3.1714    -1.6526 H       
  76 H76            8.1628    -1.9637     0.4300 H       
  77 H77            5.9835     0.1674     1.0495 H       
  78 H78            4.7571    -1.0562     1.4583 H       
  79 H79            6.4408    -1.2699     1.9946 H       
@<TRIPOS>BOND
   1    1    2 ar
   2    1   16 1
   3    1    6 ar
   4    2    3 ar
   5    2    7 1
   6    3    4 ar
   7    3   44 1
   8    4    5 ar
   9    4   45 1
  10    5    6 ar
  11    5   13 1
  12    6   46 1
  13    7    8 1
  14    7    9 1
  15    8   12 1
  16    8   47 1
  17    8   48 1
  18    9   10 1
  19    9   49 1
  20    9   50 1
  21   10   11 am
  22   10   43 2
  23   11   12 1
  24   11   17 1
  25   12   51 1
  26   12   52 1
  27   13   14 2
  28   13   15 am
  29   15   28 1
  30   15   53 1
  31   16   18 am
  32   16   54 1
  33   17   37 ar
  34   17   41 ar
  35   18   19 1
  36   18   24 2
  37   19   20 2
  38   19   23 1
  39   20   21 1
  40   20   55 1
  41   21   22 2
  42   22   23 1
  43   22   25 1
  44   25   26 1
  45   25   27 1
  46   25   56 1
  47   26   27 1
  48   26   57 1
  49   26   58 1
  50   27   59 1
  51   27   60 1
  52   28   29 1
  53   28   61 1
  54   28   62 1
  55   29   30 1
  56   29   63 1
  57   29   64 1
  58   30   31 1
  59   30   65 1
  60   30   66 1
  61   31   32 am
  62   31   35 1
  63   32   33 1
  64   32   36 2
  65   33   34 1
  66   33   67 1
  67   33   68 1
  68   34   35 1
  69   34   69 1
  70   34   70 1
  71   35   71 1
  72   35   72 1
  73   37   38 ar
  74   37   73 1
  75   38   39 ar
  76   38   74 1
  77   39   40 ar
  78   39   75 1
  79   40   41 ar
  80   40   76 1
  81   41   42 1
  82   42   77 1
  83   42   78 1
  84   42   79 1

#	End of record

