#	Name: ASD05720257
#	Creating user name:	WinNT
#	Creation time:	15. 06. 2019 21:02

#	Modifying user name:	WinNT
#	Modification time:	15. 06. 2019 21:02

#	Program:	/corina/corina34_cracker 3.40 0067  02.08.2006

@<TRIPOS>MOLECULE
ASD05720257
  59   63    0    0    0
SMALL
NO_CHARGES


@<TRIPOS>ATOM
   1 C1             0.5119     1.0237     1.1164 C.2     
   2 N2             0.4122    -0.2391     0.6808 N.am    
   3 C3             1.6580    -0.6134    -0.0049 C.3     
   4 C4             2.5297     0.6535     0.0955 C.3     
   5 N5             1.6824     1.6071     0.8270 N.am    
   6 O6            -0.3811     1.5906     1.7157 O.2     
   7 C7             1.3817    -0.9606    -1.4691 C.3     
   8 C8             0.5224    -2.2245    -1.5401 C.3     
   9 C9             0.6397     0.1988    -2.1369 C.3     
  10 C10            2.0587     2.9775     1.1828 C.3     
  11 C11            2.7352     2.9807     2.5551 C.3     
  12 C12            3.1282     4.4119     2.9266 C.3     
  13 O13            3.7600     4.4149     4.2084 O.3     
  14 C14           -1.6778    -3.1433     0.6617 C.2     
  15 N15           -0.6243    -2.3357     0.5053 N.2     
  16 C16           -0.6921    -1.0636     0.8499 C.2     
  17 C17           -1.8851    -0.5415     1.3900 C.2     
  18 C18           -2.9530    -1.3558     1.5497 C.2     
  19 N19           -2.8523    -2.6692     1.1834 N.pl3   
  20 N20           -3.7636    -3.7303     1.2267 N.2     
  21 C21           -3.1914    -4.8116     0.7573 C.2     
  22 C22           -1.8788    -4.5014     0.3811 C.2     
  23 C23           -0.8882    -5.4341    -0.2016 C.ar    
  24 C24           -0.6489    -6.6680     0.4062 C.ar    
  25 C25            0.2725    -7.5353    -0.1368 C.ar    
  26 C26            0.9670    -7.1812    -1.2934 C.ar    
  27 C27            0.7285    -5.9487    -1.9011 C.ar    
  28 C28           -0.1968    -5.0827    -1.3625 C.ar    
  29 N29            3.4781    -9.0331    -3.1490 N.pl3   
  30 N30            2.6749    -7.8969    -2.9593 N.2     
  31 C31            1.9599    -8.1156    -1.8770 C.2     
  32 N32            2.2776    -9.3227    -1.3893 N.2     
  33 C33            3.1866    -9.8797    -2.1451 C.2     
  34 H34            2.1383    -1.4495     0.5036 H       
  35 H35            3.4427     0.4464     0.6537 H       
  36 H36            2.7656     1.0352    -0.8979 H       
  37 H37            2.3257    -1.1336    -1.9859 H       
  38 H38            0.5093    -2.5979    -2.5641 H       
  39 H39            0.9403    -2.9855    -0.8812 H       
  40 H40           -0.4947    -1.9904    -1.2258 H       
  41 H41            1.2519     1.0992    -2.0863 H       
  42 H42            0.4428    -0.0485    -3.1801 H       
  43 H43           -0.3043     0.3718    -1.6201 H       
  44 H44            2.7493     3.3700     0.4364 H       
  45 H45            1.1662     3.6023     1.2162 H       
  46 H46            2.0446     2.5881     3.3015 H       
  47 H47            3.6277     2.3559     2.5217 H       
  48 H48            3.8188     4.8044     2.1802 H       
  49 H49            2.2357     5.0367     2.9601 H       
  50 H50            4.0365     5.2915     4.5085 H       
  51 H51           -1.9455     0.4988     1.6739 H       
  52 H52           -3.8748    -0.9730     1.9622 H       
  53 H53           -3.6570    -5.7823     0.6714 H       
  54 H54           -1.1861    -6.9420     1.3021 H       
  55 H55            0.4577    -8.4899     0.3333 H       
  56 H56            1.2666    -5.6751    -2.7966 H       
  57 H57           -0.3844    -4.1301    -1.8354 H       
  58 H58            4.1151    -9.1803    -3.8656 H       
  59 H59            3.6281   -10.8531    -1.9903 H       
@<TRIPOS>BOND
   1    1    2 am
   2    1    5 am
   3    1    6 2
   4    2    3 1
   5    2   16 1
   6    3    4 1
   7    3    7 1
   8    3   34 1
   9    4    5 1
  10    4   35 1
  11    4   36 1
  12    5   10 1
  13    7    8 1
  14    7    9 1
  15    7   37 1
  16    8   38 1
  17    8   39 1
  18    8   40 1
  19    9   41 1
  20    9   42 1
  21    9   43 1
  22   10   11 1
  23   10   44 1
  24   10   45 1
  25   11   12 1
  26   11   46 1
  27   11   47 1
  28   12   13 1
  29   12   48 1
  30   12   49 1
  31   13   50 1
  32   14   15 1
  33   14   19 1
  34   14   22 2
  35   15   16 2
  36   16   17 1
  37   17   18 2
  38   17   51 1
  39   18   19 1
  40   18   52 1
  41   19   20 1
  42   20   21 2
  43   21   22 1
  44   21   53 1
  45   22   23 1
  46   23   24 ar
  47   23   28 ar
  48   24   25 ar
  49   24   54 1
  50   25   26 ar
  51   25   55 1
  52   26   27 ar
  53   26   31 1
  54   27   28 ar
  55   27   56 1
  56   28   57 1
  57   29   30 1
  58   29   33 1
  59   29   58 1
  60   30   31 2
  61   31   32 1
  62   32   33 2
  63   33   59 1

#	End of record

