#	Name: ASD02030716
#	Creating user name:	WinNT
#	Creation time:	15. 06. 2019 20:15

#	Modifying user name:	WinNT
#	Modification time:	15. 06. 2019 20:15

#	Program:	/corina/corina34_cracker 3.40 0067  02.08.2006

@<TRIPOS>MOLECULE
ASD02030716
  35   37    0    0    0
SMALL
NO_CHARGES


@<TRIPOS>ATOM
   1 N1            -0.0169     1.3957     0.0097 N.2     
   2 N2             0.0021    -0.0041     0.0020 N.am    
   3 C3             1.1646    -0.6797    -0.0123 C.2     
   4 N4             2.3448    -0.0325    -0.0200 N.am    
   5 C5             2.3757     1.3164    -0.0131 C.2     
   6 C6             1.1074     2.0610     0.0026 C.2     
   7 O7             1.1494    -1.8958    -0.0178 O.2     
   8 O8             3.4386     1.9089    -0.0192 O.2     
   9 O9             1.1051     3.4197     0.0094 O.3     
  10 C10           -1.2627    -0.7434     0.0101 C.3     
  11 C11           -2.4541    -1.4840     4.0488 C.ar    
  12 C12           -2.8674    -0.3224     3.3998 C.ar    
  13 C13           -2.4800    -0.0885     2.0958 C.ar    
  14 C14           -1.6828    -1.0045     1.4336 C.ar    
  15 C15           -1.2700    -2.1596     2.0730 C.ar    
  16 C16           -1.6515    -2.4036     3.3768 C.ar    
  17 C17           -2.8624    -1.7380     5.4527 C.ar    
  18 C18           -2.4491    -2.8996     6.1018 C.ar    
  19 C19           -2.8318    -3.1308     7.4076 C.ar    
  20 C20           -3.6244    -2.2121     8.0717 C.ar    
  21 C21           -4.0378    -1.0574     7.4320 C.ar    
  22 C22           -3.6556    -0.8130     6.1285 C.ar    
  23 H23            3.1737    -0.5362    -0.0303 H       
  24 H24            0.2211     3.8114     0.0197 H       
  25 H25           -2.0303    -0.1556    -0.4933 H       
  26 H26           -1.1322    -1.6923    -0.5101 H       
  27 H27           -3.4899     0.3935     3.9159 H       
  28 H28           -2.7998     0.8116     1.5918 H       
  29 H29           -0.6479    -2.8716     1.5512 H       
  30 H30           -1.3281    -3.3054     3.8753 H       
  31 H31           -1.8309    -3.6180     5.5840 H       
  32 H32           -2.5121    -4.0308     7.9117 H       
  33 H33           -3.9218    -2.3971     9.0933 H       
  34 H34           -4.6569    -0.3436     7.9550 H       
  35 H35           -3.9746     0.0913     5.6317 H       
@<TRIPOS>BOND
   1    1    2 1
   2    1    6 2
   3    2    3 am
   4    2   10 1
   5    3    4 am
   6    3    7 2
   7    4    5 am
   8    4   23 1
   9    5    6 1
  10    5    8 2
  11    6    9 1
  12    9   24 1
  13   10   14 1
  14   10   25 1
  15   10   26 1
  16   11   12 ar
  17   11   16 ar
  18   11   17 1
  19   12   13 ar
  20   12   27 1
  21   13   14 ar
  22   13   28 1
  23   14   15 ar
  24   15   16 ar
  25   15   29 1
  26   16   30 1
  27   17   18 ar
  28   17   22 ar
  29   18   19 ar
  30   18   31 1
  31   19   20 ar
  32   19   32 1
  33   20   21 ar
  34   20   33 1
  35   21   22 ar
  36   21   34 1
  37   22   35 1

#	End of record

