#	Name: ASD01901066
#	Creating user name:	WinNT
#	Creation time:	15. 06. 2019 19:53

#	Modifying user name:	WinNT
#	Modification time:	15. 06. 2019 19:53

#	Program:	/corina/corina34_cracker 3.40 0067  02.08.2006

@<TRIPOS>MOLECULE
ASD01901066
  44   46    0    0    0
SMALL
NO_CHARGES


@<TRIPOS>ATOM
   1 C1             0.9853     3.1576     0.7501 C.ar    
   2 C2             2.0492     3.6082     1.5287 C.ar    
   3 C3             3.2483     2.9142     1.4963 C.ar    
   4 C4             3.3420     1.7933     0.6861 C.ar    
   5 C5             2.2432     1.4021    -0.0619 C.ar    
   6 N6             1.1167     2.0792    -0.0125 N.ar    
   7 C7            -0.3050     3.8845     0.7782 C.2     
   8 O8            -0.4323     4.8696     1.4784 O.2     
   9 N9            -1.3378     3.4535     0.0271 N.am    
  10 C10           -2.5840     4.0799     0.1267 C.ar    
  11 C11           -2.6591     5.4507     0.3375 C.ar    
  12 C12           -3.8915     6.0664     0.4349 C.ar    
  13 C13           -5.0499     5.3195     0.3232 C.ar    
  14 C14           -4.9787     3.9545     0.1133 C.ar    
  15 C15           -3.7495     3.3336     0.0092 C.ar    
  16 C16           -6.3930     5.9945     0.4310 C.3     
  17 S17           -6.9367     6.5256    -1.2161 S.o2    
  18 O18           -6.0478     7.5307    -1.6841 O.2     
  19 O19           -7.1598     5.3708    -2.0135 O.2     
  20 C20           -8.5386     7.2949    -0.8520 C.3     
  21 C21           -9.1526     7.8059    -2.1299 C.ar    
  22 C22           -9.9780     6.9848    -2.8777 C.ar    
  23 C23          -10.5416     7.4547    -4.0504 C.ar    
  24 C24          -10.2799     8.7441    -4.4744 C.ar    
  25 C25           -9.4549     9.5636    -3.7273 C.ar    
  26 C26           -8.8959     9.0964    -2.5521 C.ar    
  27 Cl27         -10.3057     5.3654    -2.3448 Cl      
  28 H28            1.9411     4.4860     2.1485 H       
  29 H29            4.0908     3.2395     2.0886 H       
  30 H30            4.2625     1.2305     0.6380 H       
  31 H31            2.3128     0.5295    -0.6945 H       
  32 H32           -1.2166     2.7088    -0.5824 H       
  33 H33           -1.7547     6.0345     0.4256 H       
  34 H34           -3.9505     7.1322     0.5988 H       
  35 H35           -5.8853     3.3740     0.0268 H       
  36 H36           -3.6945     2.2681    -0.1588 H       
  37 H37           -7.1190     5.2950     0.8452 H       
  38 H38           -6.3116     6.8632     1.0844 H       
  39 H39           -9.2016     6.5571    -0.4000 H       
  40 H40           -8.3942     8.1253    -0.1608 H       
  41 H41          -11.1856     6.8142    -4.6346 H       
  42 H42          -10.7198     9.1111    -5.3900 H       
  43 H43           -9.2502    10.5707    -4.0594 H       
  44 H44           -8.2549     9.7387    -1.9664 H       
@<TRIPOS>BOND
   1    1    2 ar
   2    1    6 ar
   3    1    7 1
   4    2    3 ar
   5    2   28 1
   6    3    4 ar
   7    3   29 1
   8    4    5 ar
   9    4   30 1
  10    5    6 ar
  11    5   31 1
  12    7    8 2
  13    7    9 am
  14    9   10 1
  15    9   32 1
  16   10   11 ar
  17   10   15 ar
  18   11   12 ar
  19   11   33 1
  20   12   13 ar
  21   12   34 1
  22   13   14 ar
  23   13   16 1
  24   14   15 ar
  25   14   35 1
  26   15   36 1
  27   16   17 1
  28   16   37 1
  29   16   38 1
  30   17   18 2
  31   17   19 2
  32   17   20 1
  33   20   21 1
  34   20   39 1
  35   20   40 1
  36   21   22 ar
  37   21   26 ar
  38   22   23 ar
  39   22   27 1
  40   23   24 ar
  41   23   41 1
  42   24   25 ar
  43   24   42 1
  44   25   26 ar
  45   25   43 1
  46   26   44 1

#	End of record

