#	Name: ASD01814333
#	Creating user name:	WinNT
#	Creation time:	15. 06. 2019 19:32

#	Modifying user name:	WinNT
#	Modification time:	15. 06. 2019 19:32

#	Program:	/corina/corina34_cracker 3.40 0067  02.08.2006

@<TRIPOS>MOLECULE
ASD01814333
  55   59    0    0    0
SMALL
NO_CHARGES


@<TRIPOS>ATOM
   1 N1            -0.9371     1.9126    -1.4744 N.2     
   2 C2            -1.2090     0.7659    -2.0514 C.2     
   3 C3            -0.3572     0.2526    -3.0415 C.2     
   4 C4             0.7491     0.9518    -3.3966 C.2     
   5 N5             1.0086     2.1427    -2.7801 N.pl3   
   6 C6             0.1529     2.6119    -1.8172 C.2     
   7 N7             2.0415     3.0753    -2.9200 N.2     
   8 C8             1.8327     4.0718    -2.0834 C.2     
   9 C9             0.6674     3.8256    -1.3770 C.2     
  10 C10            2.4101     5.3870    -1.6208 C.3     
  11 N11            1.5215     5.9255    -0.5863 N.am    
  12 C12            0.4267     4.9643    -0.4195 C.3     
  13 C13            1.6807     7.0839     0.0840 C.2     
  14 O14            0.8178     7.4662     0.8507 O.2     
  15 C15            2.9010     7.8874    -0.1124 C.ar    
  16 C16            2.8133     9.2807    -0.2464 C.ar    
  17 C17            4.1513     7.2652    -0.1602 C.ar    
  18 C18            5.2881     8.0205    -0.3433 C.ar    
  19 C19            5.1979     9.3988    -0.4809 C.ar    
  20 C20            3.9659    10.0271    -0.4301 C.ar    
  21 O21            1.6048     9.8950    -0.1968 O.3     
  22 C22            1.6030    11.3240    -0.1967 C.3     
  23 C23            1.6800     0.4219    -4.4567 C.3     
  24 Cl24          -0.7163    -1.2647    -3.8046 Cl      
  25 C25           -2.4409    -0.0032    -1.6489 C.3     
  26 F26            6.3190    10.1312    -0.6598 F       
  27 C27            1.6646    13.3642    -1.6376 C.3     
  28 C28            1.6666    11.8342    -1.6377 C.3     
  29 C29            0.3221    11.8323     0.4682 C.3     
  30 C30            0.3201    13.3623     0.4683 C.3     
  31 C31            0.3838    13.8725    -0.9728 C.3     
  32 F32            0.3820    15.2715    -0.9727 F       
  33 F33           -0.7273    13.4047    -1.6826 F       
  34 H34            3.4056     5.2280    -1.2064 H       
  35 H35            2.4647     6.0817    -2.4590 H       
  36 H36           -0.5249     5.4443    -0.6480 H       
  37 H37            0.4165     4.5904     0.6043 H       
  38 H38            4.2260     6.1931    -0.0532 H       
  39 H39            6.2539     7.5386    -0.3797 H       
  40 H40            3.9029    11.1002    -0.5341 H       
  41 H41            2.4687    11.6885     0.3563 H       
  42 H42            1.3050    -0.5330    -4.8251 H       
  43 H43            1.7345     1.1331    -5.2809 H       
  44 H44            2.6736     0.2822    -4.0309 H       
  45 H45           -2.9746     0.5458    -0.8731 H       
  46 H46           -3.0894    -0.1302    -2.5157 H       
  47 H47           -2.1496    -0.9816    -1.2666 H       
  48 H48            2.5303    13.7286    -1.0846 H       
  49 H49            1.7100    13.7276    -2.6643 H       
  50 H50            2.5791    11.4721    -2.1114 H       
  51 H51            0.8009    11.4698    -2.1907 H       
  52 H52           -0.5436    11.4679    -0.0849 H       
  53 H53            0.2768    11.4689     1.4948 H       
  54 H54           -0.5923    13.7244     0.9419 H       
  55 H55            1.1859    13.7268     1.0213 H       
@<TRIPOS>BOND
   1    1    2 2
   2    1    6 1
   3    2    3 1
   4    2   25 1
   5    3    4 2
   6    3   24 1
   7    4    5 1
   8    4   23 1
   9    5    7 1
  10    5    6 1
  11    6    9 2
  12    7    8 2
  13    8   10 1
  14    8    9 1
  15    9   12 1
  16   10   11 1
  17   10   34 1
  18   10   35 1
  19   11   12 1
  20   11   13 am
  21   12   36 1
  22   12   37 1
  23   13   14 2
  24   13   15 1
  25   15   17 ar
  26   15   16 ar
  27   16   20 ar
  28   16   21 1
  29   17   18 ar
  30   17   38 1
  31   18   19 ar
  32   18   39 1
  33   19   20 ar
  34   19   26 1
  35   20   40 1
  36   21   22 1
  37   22   29 1
  38   22   28 1
  39   22   41 1
  40   23   42 1
  41   23   43 1
  42   23   44 1
  43   25   45 1
  44   25   46 1
  45   25   47 1
  46   27   28 1
  47   27   31 1
  48   27   48 1
  49   27   49 1
  50   28   50 1
  51   28   51 1
  52   29   30 1
  53   29   52 1
  54   29   53 1
  55   30   31 1
  56   30   54 1
  57   30   55 1
  58   31   32 1
  59   31   33 1

#	End of record

