#	Name: ASD04880075
#	Creating user name:	WinNT
#	Creation time:	15. 06. 2019 20:52

#	Modifying user name:	WinNT
#	Modification time:	15. 06. 2019 20:52

#	Program:	/corina/corina34_cracker 3.40 0067  02.08.2006

@<TRIPOS>MOLECULE
ASD04880075
  41   43    0    0    0
SMALL
NO_CHARGES


@<TRIPOS>ATOM
   1 C1            -0.0144     1.2121     0.0087 C.2     
   2 O2             0.0436    -0.0026    -0.0116 O.2     
   3 C3             1.2260     2.0104    -0.0175 C.ar    
   4 C4             2.4708     1.3773     0.0699 C.ar    
   5 C5             3.6293     2.1329     0.0447 C.ar    
   6 C6             3.5559     3.5136    -0.0665 C.ar    
   7 C7             2.3235     4.1434    -0.1529 C.ar    
   8 C8             1.1627     3.4012    -0.1355 C.ar    
   9 F9             4.6897     4.2478    -0.0903 F       
  10 F10            4.8331     1.5256     0.1288 F       
  11 F11            2.5410     0.0326     0.1791 F       
  12 N12           -1.2120     1.8289     0.0495 N.am    
  13 N13           -1.4128     3.2008     0.1878 N.2     
  14 C14           -2.6523     3.5527     0.2003 C.2     
  15 C15           -3.5267     2.3276     0.0566 C.3     
  16 C16           -2.5211     1.1642    -0.0510 C.3     
  17 C17           -3.1423     4.9366     0.3347 C.ar    
  18 C18           -2.2348     5.9920     0.4615 C.ar    
  19 C19           -2.6997     7.2872     0.5871 C.ar    
  20 C20           -4.0704     7.5389     0.5873 C.ar    
  21 C21           -4.9712     6.4919     0.4620 C.ar    
  22 C22           -4.5147     5.1969     0.3299 C.ar    
  23 O23           -4.5256     8.8138     0.7111 O.3     
  24 C24           -5.9423     9.0004     0.7036 C.3     
  25 O25           -1.8195     8.3165     0.7111 O.3     
  26 C26           -0.4293     7.9857     0.7035 C.3     
  27 H27            2.2735     5.2188    -0.2389 H       
  28 H28            0.2046     3.8944    -0.2082 H       
  29 H29           -4.1636     2.2075     0.9329 H       
  30 H30           -4.1293     2.3921    -0.8494 H       
  31 H31           -2.6206     0.6561    -1.0102 H       
  32 H32           -2.6593     0.4629     0.7719 H       
  33 H33           -1.1728     5.7956     0.4615 H       
  34 H34           -6.0326     6.6914     0.4634 H       
  35 H35           -5.2183     4.3840     0.2273 H       
  36 H36           -6.3522     8.6331    -0.2372 H       
  37 H37           -6.3857     8.4493     1.5329 H       
  38 H38           -6.1696    10.0612     0.8095 H       
  39 H39           -0.2115     7.3125     1.5327 H       
  40 H40           -0.1773     7.4965    -0.2374 H       
  41 H41            0.1613     8.8957     0.8095 H       
@<TRIPOS>BOND
   1    1    2 2
   2    1    3 1
   3    1   12 am
   4    3    4 ar
   5    3    8 ar
   6    4    5 ar
   7    4   11 1
   8    5    6 ar
   9    5   10 1
  10    6    7 ar
  11    6    9 1
  12    7    8 ar
  13    7   27 1
  14    8   28 1
  15   12   13 1
  16   12   16 1
  17   13   14 2
  18   14   15 1
  19   14   17 1
  20   15   16 1
  21   15   29 1
  22   15   30 1
  23   16   31 1
  24   16   32 1
  25   17   18 ar
  26   17   22 ar
  27   18   19 ar
  28   18   33 1
  29   19   20 ar
  30   19   25 1
  31   20   21 ar
  32   20   23 1
  33   21   22 ar
  34   21   34 1
  35   22   35 1
  36   23   24 1
  37   24   36 1
  38   24   37 1
  39   24   38 1
  40   25   26 1
  41   26   39 1
  42   26   40 1
  43   26   41 1

#	End of record

