#	Name: ASD01890115
#	Creating user name:	WinNT
#	Creation time:	15. 06. 2019 19:50

#	Modifying user name:	WinNT
#	Modification time:	15. 06. 2019 19:50

#	Program:	/corina/corina34_cracker 3.40 0067  02.08.2006

@<TRIPOS>MOLECULE
ASD01890115
  61   63    0    0    0
SMALL
NO_CHARGES


@<TRIPOS>ATOM
   1 C1            -0.0184     1.5028     0.0103 C.2     
   2 C2             0.0021    -0.0041     0.0020 C.3     
   3 C3            -0.7132    -0.5094    -1.2244 C.2     
   4 O4             1.0197     2.1211     0.0037 O.2     
   5 O5            -1.1898     2.1580     0.0194 O.3     
   6 O6            -1.1905     0.2737    -2.0110 O.2     
   7 O7            -0.8199    -1.8295    -1.4429 O.3     
   8 C8             1.4513    -0.4944    -0.0145 C.3     
   9 C9             2.1775     0.0187     1.2307 C.3     
  10 C10            3.6341    -0.3599     1.1544 C.2     
  11 C11            1.4717    -2.0012    -0.0227 C.ar    
  12 C12            2.0697    -2.6786    -1.0689 C.ar    
  13 C13            2.0884    -4.0608    -1.0765 C.ar    
  14 C14            1.5095    -4.7656    -0.0378 C.ar    
  15 C15            0.9124    -4.0882     1.0089 C.ar    
  16 C16            0.8975    -2.7060     1.0186 C.ar    
  17 O17            4.0505    -0.9791     0.1982 O.2     
  18 C18            5.8921    -0.3301     2.1634 C.ar    
  19 C19            4.5501     0.0212     2.2385 C.ar    
  20 C20            4.0615     0.7410     3.3470 C.ar    
  21 C21            4.8886     1.1036     4.3587 C.ar    
  22 C22            6.2537     0.7615     4.3112 C.ar    
  23 C23            7.1253     1.1280     5.3476 C.ar    
  24 C24            8.4555     0.7795     5.2728 C.ar    
  25 C25            8.9469     0.0647     4.1749 C.ar    
  26 C26            8.1250    -0.3026     3.1569 C.ar    
  27 C27            6.7593     0.0363     3.2010 C.ar    
  28 O28            9.2998     1.1338     6.2756 O.3     
  29 C29           10.6677     0.7435     6.1404 C.3     
  30 C30           -1.1335     3.6089     0.0270 C.3     
  31 C31           -2.5551     4.1744     0.0369 C.3     
  32 C32           -1.5220    -2.2441    -2.6444 C.3     
  33 C33           -1.5419    -3.7720    -2.7217 C.3     
  34 H34           -0.4983    -0.3791     0.8948 H       
  35 H35            1.9516    -0.1193    -0.9073 H       
  36 H36            2.0863     1.1036     1.2833 H       
  37 H37            1.7324    -0.4269     2.1203 H       
  38 H38            2.5219    -2.1279    -1.8805 H       
  39 H39            2.5550    -4.5900    -1.8942 H       
  40 H40            1.5235    -5.8455    -0.0441 H       
  41 H41            0.4598    -4.6389     1.8203 H       
  42 H42            0.4342    -2.1767     1.8382 H       
  43 H43            6.2629    -0.8853     1.3145 H       
  44 H44            3.0158     1.0074     3.3913 H       
  45 H45            4.4999     1.6557     5.2016 H       
  46 H46            6.7554     1.6804     6.1987 H       
  47 H47            9.9937    -0.1983     4.1358 H       
  48 H48            8.5188    -0.8535     2.3156 H       
  49 H49           11.2314     1.0882     7.0073 H       
  50 H50           10.7308    -0.3427     6.0745 H       
  51 H51           11.0845     1.1871     5.2362 H       
  52 H52           -0.6017     3.9472     0.9164 H       
  53 H53           -0.6102     3.9569    -0.8636 H       
  54 H54           -3.0784     3.8265     0.9275 H       
  55 H55           -2.5128     5.2636     0.0426 H       
  56 H56           -3.0869     3.8361    -0.8525 H       
  57 H57           -2.5447    -1.8684    -2.6155 H       
  58 H58           -1.0120    -1.8426    -3.5200 H       
  59 H59           -2.0690    -4.0833    -3.6236 H       
  60 H60           -0.5192    -4.1478    -2.7506 H       
  61 H61           -2.0519    -4.1735    -1.8461 H       
@<TRIPOS>BOND
   1    1    2 1
   2    1    4 2
   3    1    5 1
   4    2    3 1
   5    2    8 1
   6    2   34 1
   7    3    6 2
   8    3    7 1
   9    5   30 1
  10    7   32 1
  11    8    9 1
  12    8   11 1
  13    8   35 1
  14    9   10 1
  15    9   36 1
  16    9   37 1
  17   10   17 2
  18   10   19 1
  19   11   12 ar
  20   11   16 ar
  21   12   13 ar
  22   12   38 1
  23   13   14 ar
  24   13   39 1
  25   14   15 ar
  26   14   40 1
  27   15   16 ar
  28   15   41 1
  29   16   42 1
  30   18   19 ar
  31   18   27 ar
  32   18   43 1
  33   19   20 ar
  34   20   21 ar
  35   20   44 1
  36   21   22 ar
  37   21   45 1
  38   22   23 ar
  39   22   27 ar
  40   23   24 ar
  41   23   46 1
  42   24   25 ar
  43   24   28 1
  44   25   26 ar
  45   25   47 1
  46   26   27 ar
  47   26   48 1
  48   28   29 1
  49   29   49 1
  50   29   50 1
  51   29   51 1
  52   30   31 1
  53   30   52 1
  54   30   53 1
  55   31   54 1
  56   31   55 1
  57   31   56 1
  58   32   33 1
  59   32   57 1
  60   32   58 1
  61   33   59 1
  62   33   60 1
  63   33   61 1

#	End of record

