#	Name: ASD02198853
#	Creating user name:	WinNT
#	Creation time:	15. 06. 2019 20:20

#	Modifying user name:	WinNT
#	Modification time:	15. 06. 2019 20:20

#	Program:	/corina/corina34_cracker 3.40 0067  02.08.2006

@<TRIPOS>MOLECULE
ASD02198853
  51   55    0    0    0
SMALL
NO_CHARGES


@<TRIPOS>ATOM
   1 F1             2.2528    -1.7091     2.4715 F       
   2 C2            -0.0432     1.5016    -0.1152 C.2     
   3 C3            -0.0730     0.1619     0.0973 C.2     
   4 N4             1.0714    -0.5397     0.2601 N.pl3   
   5 N5             2.2359    -0.0049     0.2266 N.2     
   6 C6             2.4074     1.2845     0.0280 C.2     
   7 C7             1.2216     2.1356    -0.1606 C.2     
   8 C8             0.9799    -1.9182     0.4765 C.ar    
   9 C9             1.5809    -2.4878     1.5955 C.ar    
  10 C10            1.4905    -3.8491     1.8100 C.ar    
  11 C11            0.7975    -4.6508     0.9054 C.ar    
  12 C12            0.1968    -4.0774    -0.2141 C.ar    
  13 C13            0.2842    -2.7175    -0.4229 C.ar    
  14 C14            3.7644     1.8668    -0.0041 C.2     
  15 N15            4.3067     2.6066    -1.0171 N.pl3   
  16 N16            5.6083     2.9587    -0.6386 N.2     
  17 C17            5.8515     2.4596     0.5471 C.2     
  18 C18            4.7196     1.7715     0.9841 C.2     
  19 C19            3.6744     2.9507    -2.2186 C.ar    
  20 C20            3.8082     4.2337    -2.7327 C.ar    
  21 C21            3.1838     4.5697    -3.9180 C.ar    
  22 C22            2.4261     3.6300    -4.5926 C.ar    
  23 C23            2.2906     2.3516    -4.0830 C.ar    
  24 C24            2.9172     2.0078    -2.9012 C.ar    
  25 O25            1.3246     3.3386    -0.3488 O.2     
  26 C26            0.6993    -6.1143     1.1335 C.2     
  27 C27            1.2533    -6.8273     2.2147 C.2     
  28 N28            0.9533    -8.0902     2.0645 N.2     
  29 N29            0.2024    -8.2327     0.8914 N.pl3   
  30 C30            0.0511    -7.0129     0.3370 C.2     
  31 C31           -0.3323    -9.4894     0.3612 C.3     
  32 F32           -0.6035   -10.3639     1.4190 F       
  33 F33           -1.5119    -9.2329    -0.3459 F       
  34 C34            7.1396     2.6083     1.3150 C.3     
  35 H35           -0.9546     2.0652    -0.2498 H       
  36 H36           -1.0228    -0.3506     0.1372 H       
  37 H37            1.9567    -4.2918     2.6778 H       
  38 H38           -0.3406    -4.6980    -0.9159 H       
  39 H39           -0.1814    -2.2739    -1.2905 H       
  40 H40            4.6134     1.2520     1.9250 H       
  41 H41            4.3995     4.9682    -2.2061 H       
  42 H42            3.2872     5.5675    -4.3182 H       
  43 H43            1.9389     3.8952    -5.5192 H       
  44 H44            1.6979     1.6201    -4.6120 H       
  45 H45            2.8112     1.0091    -2.5038 H       
  46 H46            1.8264    -6.4039     3.0263 H       
  47 H47           -0.4804    -6.7887    -0.5760 H       
  48 H48            0.4003    -9.9429    -0.3064 H       
  49 H49            7.0914     3.5031     1.9357 H       
  50 H50            7.2878     1.7340     1.9488 H       
  51 H51            7.9714     2.6954     0.6160 H       
@<TRIPOS>BOND
   1    1    9 1
   2    2    3 2
   3    2    7 1
   4    2   35 1
   5    3    4 1
   6    3   36 1
   7    4    5 1
   8    4    8 1
   9    5    6 2
  10    6    7 1
  11    6   14 1
  12    7   25 2
  13    8    9 ar
  14    8   13 ar
  15    9   10 ar
  16   10   11 ar
  17   10   37 1
  18   11   12 ar
  19   11   26 1
  20   12   13 ar
  21   12   38 1
  22   13   39 1
  23   14   15 1
  24   14   18 2
  25   15   16 1
  26   15   19 1
  27   16   17 2
  28   17   18 1
  29   17   34 1
  30   18   40 1
  31   19   20 ar
  32   19   24 ar
  33   20   21 ar
  34   20   41 1
  35   21   22 ar
  36   21   42 1
  37   22   23 ar
  38   22   43 1
  39   23   24 ar
  40   23   44 1
  41   24   45 1
  42   26   27 1
  43   26   30 2
  44   27   28 2
  45   27   46 1
  46   28   29 1
  47   29   30 1
  48   29   31 1
  49   30   47 1
  50   31   32 1
  51   31   33 1
  52   31   48 1
  53   34   49 1
  54   34   50 1
  55   34   51 1

#	End of record

