#	Name: ASD03330237
#	Creating user name:	WinNT
#	Creation time:	15. 06. 2019 20:36

#	Modifying user name:	WinNT
#	Modification time:	15. 06. 2019 20:36

#	Program:	/corina/corina34_cracker 3.40 0067  02.08.2006

@<TRIPOS>MOLECULE
ASD03330237
  43   46    0    0    0
SMALL
NO_CHARGES


@<TRIPOS>ATOM
   1 C1            -0.0152     1.4901    -0.0074 C.3     
   2 N2            -0.0270     0.0206    -0.0288 N.3     
   3 C3             0.4304    -0.4964    -1.3312 C.3     
   4 C4             1.7259     0.1918    -1.6765 C.2     
   5 N5             2.1688     1.3186    -1.0596 N.pl3   
   6 C6             1.4324     1.9977     0.0103 C.3     
   7 C7             2.6516    -0.1473    -2.6082 C.2     
   8 N8             3.6462     0.7678    -2.5503 N.2     
   9 C9             3.3613     1.6512    -1.6199 C.2     
  10 C10            4.1980     2.8126    -1.2456 C.ar    
  11 C11            5.2318     3.2304    -2.0841 C.ar    
  12 C12            2.5858    -1.3038    -3.5191 C.2     
  13 O13            1.6920    -2.1202    -3.4017 O.2     
  14 C14            4.5311    -0.4199    -4.7265 C.3     
  15 N15            3.5159    -1.4568    -4.4824 N.am    
  16 C16            6.0083     4.3145    -1.7296 C.ar    
  17 C17            5.7634     4.9867    -0.5455 C.ar    
  18 C18            4.7398     4.5774     0.2903 C.ar    
  19 C19            3.9528     3.4980    -0.0554 C.ar    
  20 C20            5.9104    -1.0886    -4.7453 C.3     
  21 O21            5.8895    -2.1851    -5.6624 O.3     
  22 C22            4.9739    -3.2251    -5.3104 C.3     
  23 C23            3.5466    -2.6658    -5.3206 C.3     
  24 H24           -0.5214     1.8695    -0.8950 H       
  25 H25           -0.5341     1.8437     0.8836 H       
  26 H26            0.5277    -0.3565     0.7250 H       
  27 H27            0.5912    -1.5724    -1.2646 H       
  28 H28           -0.3161    -0.2814    -2.0957 H       
  29 H29            1.4467     3.0743    -0.1595 H       
  30 H30            1.8900     1.7706     0.9731 H       
  31 H31            5.4242     2.7062    -3.0085 H       
  32 H32            4.3425     0.0595    -5.6871 H       
  33 H33            4.4947     0.3242    -3.9309 H       
  34 H34            6.8091     4.6387    -2.3776 H       
  35 H35            6.3742     5.8345    -0.2722 H       
  36 H36            4.5536     5.1063     1.2134 H       
  37 H37            3.1540     3.1794     0.5978 H       
  38 H38            6.6618    -0.3646    -5.0605 H       
  39 H39            6.1517    -1.4535    -3.7469 H       
  40 H40            5.0514    -4.0382    -6.0322 H       
  41 H41            5.2117    -3.5978    -4.3141 H       
  42 H42            2.8582    -3.4090    -4.9183 H       
  43 H43            3.2589    -2.4125    -6.3409 H       
@<TRIPOS>BOND
   1    1    2 1
   2    1    6 1
   3    1   24 1
   4    1   25 1
   5    2    3 1
   6    2   26 1
   7    3    4 1
   8    3   27 1
   9    3   28 1
  10    4    5 1
  11    4    7 2
  12    5    6 1
  13    5    9 1
  14    6   29 1
  15    6   30 1
  16    7    8 1
  17    7   12 1
  18    8    9 2
  19    9   10 1
  20   10   11 ar
  21   10   19 ar
  22   11   16 ar
  23   11   31 1
  24   12   13 2
  25   12   15 am
  26   14   15 1
  27   14   20 1
  28   14   32 1
  29   14   33 1
  30   15   23 1
  31   16   17 ar
  32   16   34 1
  33   17   18 ar
  34   17   35 1
  35   18   19 ar
  36   18   36 1
  37   19   37 1
  38   20   21 1
  39   20   38 1
  40   20   39 1
  41   21   22 1
  42   22   23 1
  43   22   40 1
  44   22   41 1
  45   23   42 1
  46   23   43 1

#	End of record

