#	Name: ASD03731887
#	Creating user name:	WinNT
#	Creation time:	15. 06. 2019 20:46

#	Modifying user name:	WinNT
#	Modification time:	15. 06. 2019 20:46

#	Program:	/corina/corina34_cracker 3.40 0067  02.08.2006

@<TRIPOS>MOLECULE
ASD03731887
  39   41    0    0    0
SMALL
NO_CHARGES


@<TRIPOS>ATOM
   1 C1             2.9632    -3.6441    -4.5979 C.2     
   2 C2             2.1910    -3.7596    -3.3469 C.ar    
   3 C3             0.9184    -4.3382    -3.3596 C.ar    
   4 C4             0.2011    -4.4446    -2.1894 C.ar    
   5 C5             0.7404    -3.9772    -0.9961 C.ar    
   6 C6             2.0056    -3.4007    -0.9792 C.ar    
   7 C7             2.7320    -3.2961    -2.1440 C.ar    
   8 O8             2.4935    -4.0520    -5.6416 O.2     
   9 O9             4.1873    -3.0810    -4.5845 O.3     
  10 O10            0.0300    -4.0835     0.1549 O.3     
  11 C11           -1.1995    -4.6583     0.0948 C.ar    
  12 C12           -1.3151    -6.0397     0.0110 C.ar    
  13 C13           -2.5611    -6.6264    -0.0506 C.ar    
  14 C14           -3.7070    -5.8304    -0.0283 C.ar    
  15 C15           -3.5871    -4.4427     0.0564 C.ar    
  16 C16           -2.3379    -3.8633     0.1230 C.ar    
  17 N17           -6.2066    -5.8435    -0.4622 N.pl3   
  18 N18           -7.2329    -6.7938    -0.3870 N.2     
  19 C19           -6.7185    -7.9307     0.0080 C.2     
  20 C20           -5.3480    -7.7558     0.2009 C.2     
  21 C21           -5.0460    -6.4563    -0.0948 C.2     
  22 C22           -7.4797    -9.2140     0.2198 C.3     
  23 F23           -8.8088    -9.0393    -0.1803 F       
  24 F24           -6.8946   -10.2338    -0.5385 F       
  25 F25           -7.4421    -9.5603     1.5747 F       
  26 C26           -6.3533    -4.4438    -0.8691 C.3     
  27 H27            0.4985    -4.7008    -4.2862 H       
  28 H28           -0.7821    -4.8914    -2.1983 H       
  29 H29            2.4206    -3.0382    -0.0504 H       
  30 H30            3.7165    -2.8523    -2.1293 H       
  31 H31            4.6552    -3.0275    -5.4291 H       
  32 H32           -0.4277    -6.6551    -0.0063 H       
  33 H33           -2.6502    -7.7007    -0.1165 H       
  34 H34           -4.4719    -3.8236     0.0736 H       
  35 H35           -2.2444    -2.7897     0.1927 H       
  36 H36           -4.6498    -8.5127     0.5265 H       
  37 H37           -6.4462    -3.8157     0.0169 H       
  38 H38           -5.4774    -4.1380    -1.4411 H       
  39 H39           -7.2457    -4.3363    -1.4858 H       
@<TRIPOS>BOND
   1    1    2 1
   2    1    8 2
   3    1    9 1
   4    2    3 ar
   5    2    7 ar
   6    3    4 ar
   7    3   27 1
   8    4    5 ar
   9    4   28 1
  10    5    6 ar
  11    5   10 1
  12    6    7 ar
  13    6   29 1
  14    7   30 1
  15    9   31 1
  16   10   11 1
  17   11   12 ar
  18   11   16 ar
  19   12   13 ar
  20   12   32 1
  21   13   14 ar
  22   13   33 1
  23   14   15 ar
  24   14   21 1
  25   15   16 ar
  26   15   34 1
  27   16   35 1
  28   17   18 1
  29   17   21 1
  30   17   26 1
  31   18   19 2
  32   19   20 1
  33   19   22 1
  34   20   21 2
  35   20   36 1
  36   22   23 1
  37   22   24 1
  38   22   25 1
  39   26   37 1
  40   26   38 1
  41   26   39 1

#	End of record

