#	Name: ASD08178143
#	Creating user name:	WinNT
#	Creation time:	15. 06. 2019 21:18

#	Modifying user name:	WinNT
#	Modification time:	15. 06. 2019 21:18

#	Program:	/corina/corina34_cracker 3.40 0067  02.08.2006

@<TRIPOS>MOLECULE
ASD08178143
  46   48    0    0    0
SMALL
NO_CHARGES


@<TRIPOS>ATOM
   1 C1            -0.0191     1.5027     0.0207 C.ar    
   2 C2             0.0010    -0.0042     0.0166 C.3     
   3 C3            -0.8034    -0.5283     1.2078 C.3     
   4 C4            -0.7830    -2.0581     1.2036 C.3     
   5 C5            -1.5874    -2.5822     2.3949 C.3     
   6 C6            -1.5673    -4.0891     2.3907 C.2     
   7 N7            -0.6931    -4.8404     2.9770 N.2     
   8 N8            -0.8232    -6.0904     2.8736 N.2     
   9 C9            -1.8319    -6.5373     2.1815 C.2     
  10 S10           -2.7368    -5.1416     1.5913 S.3     
  11 N11           -2.1424    -7.8699     1.9543 N.pl3   
  12 C12            1.1728     2.2124     0.0064 C.ar    
  13 C13            1.1067     3.5974     0.0109 C.ar    
  14 C14           -0.1542     4.1903     0.0295 C.ar    
  15 N15           -1.2376     3.4283     0.0422 N.ar    
  16 N16           -1.1697     2.1466     0.0324 N.ar    
  17 N17           -0.2749     5.5795     0.0353 N.am    
  18 C18           -1.4926     6.1505    -0.0517 C.2     
  19 O19           -2.4744     5.4610    -0.2290 O.2     
  20 C20           -1.6342     7.6458     0.0713 C.3     
  21 C21           -3.0867     8.0253    -0.0606 C.ar    
  22 C22           -3.8892     8.0891     1.0632 C.ar    
  23 C23           -5.2215     8.4372     0.9422 C.ar    
  24 C24           -5.7512     8.7220    -0.3024 C.ar    
  25 C25           -4.9485     8.6592    -1.4261 C.ar    
  26 C26           -3.6151     8.3153    -1.3046 C.ar    
  27 H27           -0.4409    -0.3709    -0.9099 H       
  28 H28            1.0307    -0.3540     0.0913 H       
  29 H29           -0.3615    -0.1615     2.1343 H       
  30 H30           -1.8331    -0.1785     1.1331 H       
  31 H31           -1.2249    -2.4249     0.2772 H       
  32 H32            0.2467    -2.4079     1.2784 H       
  33 H33           -1.1455    -2.2155     3.3213 H       
  34 H34           -2.6171    -2.2324     2.3201 H       
  35 H35           -1.5828    -8.5687     2.3274 H       
  36 H36           -2.9192    -8.1029     1.4221 H       
  37 H37            2.1241     1.7012    -0.0074 H       
  38 H38            2.0044     4.1978     0.0007 H       
  39 H39            0.5176     6.1349     0.1018 H       
  40 H40           -1.2615     7.9672     1.0438 H       
  41 H41           -1.0588     8.1313    -0.7169 H       
  42 H42           -3.4753     7.8665     2.0356 H       
  43 H43           -5.8487     8.4863     1.8201 H       
  44 H44           -6.7923     8.9933    -0.3970 H       
  45 H45           -5.3624     8.8814    -2.3985 H       
  46 H46           -2.9879     8.2662    -2.1825 H       
@<TRIPOS>BOND
   1    1    2 1
   2    1   12 ar
   3    1   16 ar
   4    2    3 1
   5    2   27 1
   6    2   28 1
   7    3    4 1
   8    3   29 1
   9    3   30 1
  10    4    5 1
  11    4   31 1
  12    4   32 1
  13    5    6 1
  14    5   33 1
  15    5   34 1
  16    6    7 2
  17    6   10 1
  18    7    8 1
  19    8    9 2
  20    9   10 1
  21    9   11 1
  22   11   35 1
  23   11   36 1
  24   12   13 ar
  25   12   37 1
  26   13   14 ar
  27   13   38 1
  28   14   15 ar
  29   14   17 1
  30   15   16 ar
  31   17   18 am
  32   17   39 1
  33   18   19 2
  34   18   20 1
  35   20   21 1
  36   20   40 1
  37   20   41 1
  38   21   22 ar
  39   21   26 ar
  40   22   23 ar
  41   22   42 1
  42   23   24 ar
  43   23   43 1
  44   24   25 ar
  45   24   44 1
  46   25   26 ar
  47   25   45 1
  48   26   46 1

#	End of record

