#	Name: ASD02508185
#	Creating user name:	WinNT
#	Creation time:	15. 06. 2019 20:23

#	Modifying user name:	WinNT
#	Modification time:	15. 06. 2019 20:23

#	Program:	/corina/corina34_cracker 3.40 0067  02.08.2006

@<TRIPOS>MOLECULE
ASD02508185
  38   41    0    0    0
SMALL
NO_CHARGES


@<TRIPOS>ATOM
   1 C1             0.2731     0.6102    -0.3432 C.ar    
   2 C2             0.0241    -0.7485    -0.5401 C.ar    
   3 C3            -1.2516    -1.2731    -0.4348 C.ar    
   4 C4            -2.3138    -0.4450    -0.1281 C.ar    
   5 C5            -2.0878     0.9063     0.0711 C.ar    
   6 C6            -0.8206     1.4310    -0.0277 C.ar    
   7 S7            -3.9428    -1.1028     0.0079 S.o2    
   8 N8            -4.2119    -1.4180     1.6112 N.am    
   9 C9            -3.4099    -2.3411     2.2855 C.ar    
  10 N10            1.5998     0.9760    -0.4834 N.am    
  11 C11            2.4963     0.0315    -0.7844 C.2     
  12 S12            1.5897    -1.4854    -0.9078 S.3     
  13 O13           -4.8308    -0.0524    -0.3491 O.2     
  14 O14           -3.9234    -2.3618    -0.6508 O.2     
  15 C15            2.0135     2.3701    -0.3061 C.3     
  16 O16            3.6936     0.1831    -0.9424 O.2     
  17 C17           -2.9009    -2.0258     3.5268 C.ar    
  18 C18           -3.1345    -3.5812     1.6974 C.ar    
  19 C19           -2.3578    -4.4993     2.3311 C.ar    
  20 C20           -1.8172    -4.2095     3.5964 C.ar    
  21 C21           -2.0962    -2.9575     4.1995 C.ar    
  22 N22           -1.0499    -5.0984     4.2359 N.ar    
  23 C23           -0.5410    -4.8367     5.4151 C.ar    
  24 C24           -0.7719    -3.6239     6.0610 C.ar    
  25 C25           -1.5519    -2.6734     5.4668 C.ar    
  26 H26           -1.4169    -2.3286    -0.5925 H       
  27 H27           -2.9166     1.5559     0.3110 H       
  28 H28           -0.6664     2.4880     0.1319 H       
  29 H29           -4.9266    -0.9614     2.0819 H       
  30 H30            2.2697     2.5429     0.7392 H       
  31 H31            2.8827     2.5735    -0.9316 H       
  32 H32            1.1961     3.0311    -0.5940 H       
  33 H33           -3.1195    -1.0691     3.9778 H       
  34 H34           -3.5455    -3.8122     0.7258 H       
  35 H35           -2.1561    -5.4514     1.8629 H       
  36 H36            0.0735    -5.5813     5.8992 H       
  37 H37           -0.3388    -3.4378     7.0327 H       
  38 H38           -1.7412    -1.7276     5.9528 H       
@<TRIPOS>BOND
   1    1    2 ar
   2    1   10 1
   3    1    6 ar
   4    2    3 ar
   5    2   12 1
   6    3    4 ar
   7    3   26 1
   8    4    5 ar
   9    4    7 1
  10    5    6 ar
  11    5   27 1
  12    6   28 1
  13    7    8 am
  14    7   13 2
  15    7   14 2
  16    8    9 1
  17    8   29 1
  18    9   17 ar
  19    9   18 ar
  20   10   11 am
  21   10   15 1
  22   11   12 1
  23   11   16 2
  24   15   30 1
  25   15   31 1
  26   15   32 1
  27   17   21 ar
  28   17   33 1
  29   18   19 ar
  30   18   34 1
  31   19   20 ar
  32   19   35 1
  33   20   21 ar
  34   20   22 ar
  35   21   25 ar
  36   22   23 ar
  37   23   24 ar
  38   23   36 1
  39   24   25 ar
  40   24   37 1
  41   25   38 1

#	End of record

