#	Name: ASD02560085
#	Creating user name:	WinNT
#	Creation time:	15. 06. 2019 20:24

#	Modifying user name:	WinNT
#	Modification time:	15. 06. 2019 20:24

#	Program:	/corina/corina34_cracker 3.40 0067  02.08.2006

@<TRIPOS>MOLECULE
ASD02560085
  42   44    0    0    0
SMALL
NO_CHARGES


@<TRIPOS>ATOM
   1 C1             2.2588    -0.3612    -0.1946 C.3     
   2 C2             0.8380    -0.1460    -0.7154 C.3     
   3 C3             0.4028     1.2778    -0.4888 C.ar    
   4 C4             1.0192     2.0814     0.4562 C.ar    
   5 N5             2.0798     1.5926     1.2336 N.am    
   6 C6             2.3392     0.1464     1.2511 C.3     
   7 C7            -0.6388     1.7885    -1.2462 C.ar    
   8 C8            -1.0635     3.0905    -1.0606 C.ar    
   9 C9            -0.4498     3.8934    -0.1148 C.ar    
  10 C10            0.5902     3.3916     0.6431 C.ar    
  11 C11            2.8481     2.4354     1.9519 C.2     
  12 S12            3.4767     1.9347     3.5200 S.3     
  13 O13            3.1076     3.5414     1.5178 O.2     
  14 C14            4.3950     3.4248     3.9809 C.3     
  15 C15            5.0374     3.2222     5.3289 C.2     
  16 N16            5.7769     4.2063     5.8778 N.am    
  17 O17            4.8890     2.1735     5.9199 O.2     
  18 C18            6.3046     4.0501     7.1607 C.ar    
  19 C19            6.5490     2.7756     7.6598 C.ar    
  20 C20            7.0700     2.6175     8.9250 C.ar    
  21 C21            7.3533     3.7398     9.7079 C.ar    
  22 C22            7.1066     5.0201     9.2037 C.ar    
  23 C23            6.5903     5.1711     7.9353 C.ar    
  24 Cl24           6.2833     6.7602     7.3074 Cl      
  25 Cl25           1.3614     4.3959     1.8307 Cl      
  26 Cl26          -2.3689     3.7205    -2.0159 Cl      
  27 C27            7.8946     3.5788    11.0238 C.1     
  28 N28            8.3240     3.4510    12.0677 N.1     
  29 H29            2.5010    -1.4235    -0.2226 H       
  30 H30            2.9631     0.1923    -0.8156 H       
  31 H31            0.8090    -0.3655    -1.7827 H       
  32 H32            0.1575    -0.8177    -0.1920 H       
  33 H33            1.5886    -0.3560     1.8612 H       
  34 H34            3.3332    -0.0455     1.6550 H       
  35 H35           -1.1210     1.1662    -1.9856 H       
  36 H36           -0.7829     4.9105     0.0297 H       
  37 H37            5.1667     3.6208     3.2364 H       
  38 H38            3.7117     4.2727     4.0278 H       
  39 H39            5.9424     5.0230     5.3814 H       
  40 H40            6.3296     1.9083     7.0547 H       
  41 H41            7.2591     1.6270     9.3118 H       
  42 H42            7.3244     5.8897     9.8060 H       
@<TRIPOS>BOND
   1    1    2 1
   2    1    6 1
   3    1   29 1
   4    1   30 1
   5    2    3 1
   6    2   31 1
   7    2   32 1
   8    3    4 ar
   9    3    7 ar
  10    4    5 1
  11    4   10 ar
  12    5    6 1
  13    5   11 am
  14    6   33 1
  15    6   34 1
  16    7    8 ar
  17    7   35 1
  18    8    9 ar
  19    8   26 1
  20    9   10 ar
  21    9   36 1
  22   10   25 1
  23   11   12 1
  24   11   13 2
  25   12   14 1
  26   14   15 1
  27   14   37 1
  28   14   38 1
  29   15   16 am
  30   15   17 2
  31   16   18 1
  32   16   39 1
  33   18   19 ar
  34   18   23 ar
  35   19   20 ar
  36   19   40 1
  37   20   21 ar
  38   20   41 1
  39   21   22 ar
  40   21   27 1
  41   22   23 ar
  42   22   42 1
  43   23   24 1
  44   27   28 3

#	End of record

