#	Name: ASD01812579
#	Creating user name:	WinNT
#	Creation time:	15. 06. 2019 19:28

#	Modifying user name:	WinNT
#	Modification time:	15. 06. 2019 19:28

#	Program:	/corina/corina34_cracker 3.40 0067  02.08.2006

@<TRIPOS>MOLECULE
ASD01812579
  71   76    0    0    0
SMALL
NO_CHARGES


@<TRIPOS>ATOM
   1 C1            -1.0523   -10.0741    11.6422 C.3     
   2 C2            -0.7070   -10.1546    10.1775 C.ar    
   3 C3            -1.1003   -11.2568     9.4428 C.ar    
   4 C4            -0.7780   -11.3209     8.0956 C.ar    
   5 C5            -0.0689   -10.2692     7.5360 C.ar    
   6 C6             0.2906    -9.1993     8.3339 C.ar    
   7 N7            -0.0375    -9.1698     9.6106 N.ar    
   8 C8             1.0619    -8.0507     7.7364 C.3     
   9 C9             0.4340    -7.6542     6.3973 C.3     
  10 C10            1.1836    -6.4490     5.8249 C.3     
  11 N11            1.1082    -5.3293     6.7719 N.3     
  12 C12            1.6977    -4.1128     6.1968 C.3     
  13 C13            1.6977    -3.0170     7.2313 C.ar    
  14 C14            2.8569    -2.6618     7.8399 C.ar    
  15 C15            2.8820    -1.6409     8.8103 C.ar    
  16 C16            3.9847    -1.0704     9.6089 C.2     
  17 O17            5.1451    -1.4273     9.5453 O.2     
  18 N18            3.5231    -0.1001    10.4162 N.am    
  19 C19            2.0775     0.0349    10.2030 C.3     
  20 C20            1.7108    -0.9845     9.1540 C.ar    
  21 C21            0.5042    -1.3351     8.5386 C.ar    
  22 C22           -0.7000    -0.6872     8.8664 C.ar    
  23 C23           -1.8544    -1.0557     8.2465 C.ar    
  24 C24           -1.8624    -2.0681     7.2894 C.ar    
  25 C25           -0.7158    -2.7179     6.9462 C.ar    
  26 C26            0.4964    -2.3619     7.5587 C.ar    
  27 C27            4.3275     0.6893    11.3522 C.3     
  28 H28            3.6858     1.4003    11.8727 H       
  29 C29            4.9865    -0.2432    12.3705 C.3     
  30 C30            5.8266     0.5812    13.3480 C.3     
  31 C31            6.9083     1.3401    12.5766 C.3     
  32 C32            6.2492     2.2726    11.5583 C.3     
  33 C33            5.4091     1.4482    10.5808 C.3     
  34 H34            6.0507     0.7372    10.0604 H       
  35 O35            4.7935     2.3191     9.6298 O.3     
  36 C36            1.7471    -5.6703     8.0494 C.3     
  37 C37            1.0143    -6.8523     8.6882 C.3     
  38 C38            2.4612    -8.4553     7.5244 C.1     
  39 N39            3.5411    -8.7676     7.3608 N.1     
  40 H40           -2.0206    -9.5879    11.7610 H       
  41 H41           -1.0967   -11.0795    12.0609 H       
  42 H42           -0.2893    -9.4966    12.1642 H       
  43 H43           -1.6516   -12.0583     9.9118 H       
  44 H44           -1.0720   -12.1701     7.4966 H       
  45 H45            0.1995   -10.2859     6.4900 H       
  46 H46            0.5033    -8.4901     5.7012 H       
  47 H47           -0.6132    -7.3927     6.5497 H       
  48 H48            2.2275    -6.7155     5.6599 H       
  49 H49            0.7299    -6.1553     4.8783 H       
  50 H50            2.7217    -4.3178     5.8847 H       
  51 H51            1.1110    -3.7978     5.3338 H       
  52 H52            3.7734    -3.1691     7.5769 H       
  53 H53            1.5411    -0.1709    11.1293 H       
  54 H54            1.8430     1.0386     9.8484 H       
  55 H55           -0.7090     0.0988     9.6070 H       
  56 H56           -2.7776    -0.5562     8.5004 H       
  57 H57           -2.7920    -2.3420     6.8127 H       
  58 H58           -0.7381    -3.5009     6.2026 H       
  59 H59            4.2160    -0.7839    12.9201 H       
  60 H60            5.6282    -0.9542    11.8500 H       
  61 H61            5.1850     1.2922    13.8685 H       
  62 H62            6.2962    -0.0831    14.0735 H       
  63 H63            7.5068     1.9274    13.2730 H       
  64 H64            7.5499     0.6291    12.0562 H       
  65 H65            5.6076     2.9836    12.0788 H       
  66 H66            7.0198     2.8133    11.0088 H       
  67 H67            5.4211     2.8333     9.1035 H       
  68 H68            2.7884    -5.9405     7.8740 H       
  69 H69            1.7028    -4.8110     8.7185 H       
  70 H70           -0.0237    -6.5781     8.8766 H       
  71 H71            1.4983    -7.1151     9.6288 H       
@<TRIPOS>BOND
   1    1    2 1
   2    1   40 1
   3    1   41 1
   4    1   42 1
   5    2    7 ar
   6    2    3 ar
   7    3    4 ar
   8    3   43 1
   9    4    5 ar
  10    4   44 1
  11    5    6 ar
  12    5   45 1
  13    6    7 ar
  14    6    8 1
  15    8   37 1
  16    8    9 1
  17    8   38 1
  18    9   10 1
  19    9   46 1
  20    9   47 1
  21   10   11 1
  22   10   48 1
  23   10   49 1
  24   11   12 1
  25   11   36 1
  26   12   13 1
  27   12   50 1
  28   12   51 1
  29   13   26 ar
  30   13   14 ar
  31   14   15 ar
  32   14   52 1
  33   15   20 ar
  34   15   16 1
  35   16   17 2
  36   16   18 am
  37   18   19 1
  38   18   27 1
  39   19   20 1
  40   19   53 1
  41   19   54 1
  42   20   21 ar
  43   21   26 ar
  44   21   22 ar
  45   22   23 ar
  46   22   55 1
  47   23   24 ar
  48   23   56 1
  49   24   25 ar
  50   24   57 1
  51   25   26 ar
  52   25   58 1
  53   27   28 1
  54   27   33 1
  55   27   29 1
  56   29   30 1
  57   29   59 1
  58   29   60 1
  59   30   31 1
  60   30   61 1
  61   30   62 1
  62   31   32 1
  63   31   63 1
  64   31   64 1
  65   32   33 1
  66   32   65 1
  67   32   66 1
  68   33   34 1
  69   33   35 1
  70   35   67 1
  71   36   37 1
  72   36   68 1
  73   36   69 1
  74   37   70 1
  75   37   71 1
  76   38   39 3

#	End of record

