#	Name: ASD01150709
#	Creating user name:	WinNT
#	Creation time:	15. 06. 2019 19:04

#	Modifying user name:	WinNT
#	Modification time:	15. 06. 2019 19:04

#	Program:	/corina/corina34_cracker 3.40 0067  02.08.2006

@<TRIPOS>MOLECULE
ASD01150709
  42   45    0    0    0
SMALL
NO_CHARGES


@<TRIPOS>ATOM
   1 C1            -0.0179     1.5022    -0.0059 C.2     
   2 C2            -0.6711     1.1275    -1.3113 C.3     
   3 C3             3.6562     3.5776     0.0055 C.ar    
   4 C4             2.4838     4.3389    -0.0971 C.ar    
   5 C5             1.2364     3.6571    -0.1025 C.ar    
   6 C6             1.2413     2.2528    -0.0052 C.ar    
   7 C7             2.4690     1.5833     0.0929 C.ar    
   8 N8             3.5985     2.2456     0.0952 N.ar    
   9 C9             2.7377     5.7176    -0.1816 C.2     
  10 C10            4.0236     6.0684    -0.1511 C.2     
  11 S11            5.0510     4.6540    -0.0029 S.3     
  12 C12           -0.0348     4.4046    -0.2079 C.ar    
  13 C13           -0.3321     5.1224    -1.3678 C.ar    
  14 C14           -1.5200     5.8177    -1.4594 C.ar    
  15 C15           -2.4160     5.8047    -0.4051 C.ar    
  16 C16           -2.1274     5.0956     0.7476 C.ar    
  17 C17           -0.9459     4.3910     0.8499 C.ar    
  18 C18            4.5164     7.4601    -0.2264 C.ar    
  19 C19            5.8868     7.7215    -0.1862 C.ar    
  20 C20            6.3401     9.0225    -0.2574 C.ar    
  21 C21            5.4395    10.0670    -0.3680 C.ar    
  22 C22            4.0797     9.8148    -0.4084 C.ar    
  23 C23            3.6135     8.5179    -0.3439 C.ar    
  24 C24            2.4890     0.0800     0.1977 C.3     
  25 O25           -0.5368     1.1870     1.0445 O.2     
  26 H26           -0.1151     1.5724    -2.1366 H       
  27 H27           -0.6739     0.0428    -1.4180 H       
  28 H28           -1.6967     1.4965    -1.3235 H       
  29 H29            1.9441     6.4452    -0.2661 H       
  30 H30            0.3666     5.1337    -2.1913 H       
  31 H31           -1.7510     6.3737    -2.3560 H       
  32 H32           -3.3446     6.3507    -0.4820 H       
  33 H33           -2.8307     5.0902     1.5671 H       
  34 H34           -0.7240     3.8340     1.7482 H       
  35 H35            6.5908     6.9071    -0.0992 H       
  36 H36            7.4003     9.2262    -0.2264 H       
  37 H37            5.7995    11.0838    -0.4227 H       
  38 H38            3.3819    10.6346    -0.4945 H       
  39 H39            2.5520     8.3220    -0.3798 H       
  40 H40            2.4407    -0.3545    -0.8007 H       
  41 H41            3.4091    -0.2377     0.6882 H       
  42 H42            1.6317    -0.2549     0.7816 H       
@<TRIPOS>BOND
   1    1    2 1
   2    1    6 1
   3    1   25 2
   4    2   26 1
   5    2   27 1
   6    2   28 1
   7    3    4 ar
   8    3    8 ar
   9    3   11 1
  10    4    5 ar
  11    4    9 1
  12    5    6 ar
  13    5   12 1
  14    6    7 ar
  15    7    8 ar
  16    7   24 1
  17    9   10 2
  18    9   29 1
  19   10   11 1
  20   10   18 1
  21   12   13 ar
  22   12   17 ar
  23   13   14 ar
  24   13   30 1
  25   14   15 ar
  26   14   31 1
  27   15   16 ar
  28   15   32 1
  29   16   17 ar
  30   16   33 1
  31   17   34 1
  32   18   19 ar
  33   18   23 ar
  34   19   20 ar
  35   19   35 1
  36   20   21 ar
  37   20   36 1
  38   21   22 ar
  39   21   37 1
  40   22   23 ar
  41   22   38 1
  42   23   39 1
  43   24   40 1
  44   24   41 1
  45   24   42 1

#	End of record

