#	Name: ASD01010006
#	Creating user name:	WinNT
#	Creation time:	15. 06. 2019 18:56

#	Modifying user name:	WinNT
#	Modification time:	15. 06. 2019 18:56

#	Program:	/corina/corina34_cracker 3.40 0067  02.08.2006

@<TRIPOS>MOLECULE
ASD01010006
  21   21    0    0    0
SMALL
NO_CHARGES


@<TRIPOS>ATOM
   1 O1            -0.0162    -0.0003    -0.2986 O.2     
   2 C2            -0.0338     1.2146    -0.2909 C.2     
   3 O3             1.1135     1.9059    -0.4379 O.3     
   4 C4            -1.3112     1.9325    -0.1268 C.ar    
   5 C5            -1.3361     3.3296    -0.1174 C.ar    
   6 C6            -2.5333     3.9943     0.0359 C.ar    
   7 C7            -3.7137     3.2837     0.1808 C.ar    
   8 C8            -3.7034     1.9029     0.1733 C.ar    
   9 C9            -2.5085     1.2175     0.0148 C.ar    
  10 O10           -2.4976    -0.1395     0.0016 O.3     
  11 C11           -2.2776    -0.7589     1.1729 C.2     
  12 C12           -2.3636    -2.2610     1.2587 C.3     
  13 O13           -2.0108    -0.1118     2.1577 O.2     
  14 H14            1.9251     1.3916    -0.5463 H       
  15 H15           -0.4182     3.8876    -0.2297 H       
  16 H16           -2.5515     5.0741     0.0434 H       
  17 H17           -4.6476     3.8129     0.3008 H       
  18 H18           -4.6278     1.3561     0.2868 H       
  19 H19           -2.6125    -2.6673     0.2783 H       
  20 H20           -1.4039    -2.6618     1.5851 H       
  21 H21           -3.1364    -2.5404     1.9747 H       
@<TRIPOS>BOND
   1    1    2 2
   2    2    3 1
   3    2    4 1
   4    3   14 1
   5    4    5 ar
   6    4    9 ar
   7    5    6 ar
   8    5   15 1
   9    6    7 ar
  10    6   16 1
  11    7    8 ar
  12    7   17 1
  13    8    9 ar
  14    8   18 1
  15    9   10 1
  16   10   11 1
  17   11   12 1
  18   11   13 2
  19   12   19 1
  20   12   20 1
  21   12   21 1

#	End of record

