#	Name: ASD05730121
#	Creating user name:	WinNT
#	Creation time:	15. 06. 2019 21:02

#	Modifying user name:	WinNT
#	Modification time:	15. 06. 2019 21:02

#	Program:	/corina/corina34_cracker 3.40 0067  02.08.2006

@<TRIPOS>MOLECULE
ASD05730121
  65   69    0    0    0
SMALL
NO_CHARGES


@<TRIPOS>ATOM
   1 C1             0.0146     1.5028     0.0508 C.3     
   2 C2             0.0264    -0.0041     0.0317 C.ar    
   3 C3            -1.1610    -0.7047     0.1379 C.ar    
   4 C4            -1.1537    -2.0856     0.1212 C.ar    
   5 C5             0.0483    -2.7707    -0.0030 C.ar    
   6 C6             1.2392    -2.0639    -0.1099 C.ar    
   7 C7             1.2242    -0.6830    -0.0977 C.ar    
   8 N8             0.0594    -4.1686    -0.0198 N.pl3   
   9 C9             0.9778    -4.8428    -0.8012 C.ar    
  10 N10            1.0423    -6.1625    -0.7141 N.ar    
  11 C11            1.9119    -6.8462    -1.4497 C.ar    
  12 C12            2.7641    -6.1371    -2.3244 C.ar    
  13 C13            2.6565    -4.7389    -2.3801 C.ar    
  14 N14            1.7598    -4.1435    -1.6164 N.ar    
  15 N15            1.9839    -8.2135    -1.3635 N.am    
  16 C16            2.8659    -8.9069    -2.1083 C.2     
  17 C17            3.7679    -8.2078    -3.0285 C.2     
  18 C18            3.7011    -6.8305    -3.1225 C.2     
  19 C19            1.0900    -8.9284    -0.4491 C.3     
  20 O20            2.9147   -10.1204    -2.0166 O.2     
  21 C21            4.7349    -8.9656    -3.8455 C.2     
  22 O22            1.1842     1.9811     0.7205 O.3     
  23 C23            0.0031     2.0322    -1.3857 C.3     
  24 N24            0.0695     3.5006    -1.3618 N.3     
  25 C25            1.2820     3.9561    -0.6664 C.3     
  26 C26            1.2806     3.4074     0.7628 C.3     
  27 C27           -0.2021    -9.2951    -1.1818 C.3     
  28 N28            4.8814   -10.2609    -3.8370 N.2     
  29 C29            5.7969   -10.7627    -4.6345 C.2     
  30 C30            6.4784    -9.8782    -5.3691 C.2     
  31 S31            5.8722    -8.2661    -4.9949 S.3     
  32 S32            7.7576   -10.2589    -6.5195 S.o2    
  33 O33            8.2945   -11.4888    -6.0521 O.2     
  34 C34            6.8922   -10.5001    -8.0954 C.3     
  35 C35            6.1496    -9.2162    -8.4711 C.3     
  36 C36            7.9076   -10.8404    -9.1880 C.3     
  37 O37            8.5524    -9.0817    -6.5621 O.2     
  38 H38           -0.8742     1.8531     0.5756 H       
  39 H39           -2.0952    -0.1714     0.2344 H       
  40 H40           -2.0814    -2.6323     0.2049 H       
  41 H41            2.1754    -2.5935    -0.2066 H       
  42 H42            2.1498    -0.1327    -0.1812 H       
  43 H43           -0.5778    -4.6652     0.5173 H       
  44 H44            3.2915    -4.1627    -3.0367 H       
  45 H45            4.3551    -6.2934    -3.7935 H       
  46 H46            1.5796    -9.8371    -0.0989 H       
  47 H47            0.8559    -8.2903     0.4030 H       
  48 H48            0.8638     1.6377    -1.9259 H       
  49 H49           -0.9146     1.7173    -1.8824 H       
  50 H50            0.0242     3.8798    -2.2958 H       
  51 H51            2.1631     3.5923    -1.1951 H       
  52 H52            1.2978     5.0456    -0.6380 H       
  53 H53            0.4287     3.8137     1.3079 H       
  54 H54            2.2049     3.6949     1.2640 H       
  55 H55            0.0320    -9.9332    -2.0340 H       
  56 H56           -0.8671    -9.8270    -0.5015 H       
  57 H57           -0.6916    -8.3864    -1.5320 H       
  58 H58            5.9872   -11.8242    -4.6927 H       
  59 H59            6.1777   -11.3172    -7.9962 H       
  60 H60            6.8641    -8.3990    -8.5704 H       
  61 H61            5.6296    -9.3611    -9.4181 H       
  62 H62            5.4262    -8.9738    -7.6927 H       
  63 H63            8.4366   -11.7550    -8.9203 H       
  64 H64            7.3876   -10.9853   -10.1350 H       
  65 H65            8.6221   -10.0232    -9.2873 H       
@<TRIPOS>BOND
   1    1    2 1
   2    1   22 1
   3    1   23 1
   4    1   38 1
   5    2    3 ar
   6    2    7 ar
   7    3    4 ar
   8    3   39 1
   9    4    5 ar
  10    4   40 1
  11    5    6 ar
  12    5    8 1
  13    6    7 ar
  14    6   41 1
  15    7   42 1
  16    8    9 1
  17    8   43 1
  18    9   10 ar
  19    9   14 ar
  20   10   11 ar
  21   11   12 ar
  22   11   15 1
  23   12   13 ar
  24   12   18 1
  25   13   14 ar
  26   13   44 1
  27   15   16 am
  28   15   19 1
  29   16   17 1
  30   16   20 2
  31   17   18 2
  32   17   21 1
  33   18   45 1
  34   19   27 1
  35   19   46 1
  36   19   47 1
  37   21   28 2
  38   21   31 1
  39   22   26 1
  40   23   24 1
  41   23   48 1
  42   23   49 1
  43   24   25 1
  44   24   50 1
  45   25   26 1
  46   25   51 1
  47   25   52 1
  48   26   53 1
  49   26   54 1
  50   27   55 1
  51   27   56 1
  52   27   57 1
  53   28   29 1
  54   29   30 2
  55   29   58 1
  56   30   31 1
  57   30   32 1
  58   32   33 2
  59   32   34 1
  60   32   37 2
  61   34   35 1
  62   34   36 1
  63   34   59 1
  64   35   60 1
  65   35   61 1
  66   35   62 1
  67   36   63 1
  68   36   64 1
  69   36   65 1

#	End of record

