#	Name: ASD01209051
#	Creating user name:	WinNT
#	Creation time:	15. 06. 2019 19:10

#	Modifying user name:	WinNT
#	Modification time:	15. 06. 2019 19:10

#	Program:	/corina/corina34_cracker 3.40 0067  02.08.2006

@<TRIPOS>MOLECULE
ASD01209051
  56   60    0    0    0
SMALL
NO_CHARGES


@<TRIPOS>ATOM
   1 C1            -2.3135     1.6146    -0.8383 C.3     
   2 C2            -2.2200     0.0993    -1.0420 C.3     
   3 C3            -1.4490    -0.1843    -2.3348 C.3     
   4 C4            -2.1494     0.5166    -3.5017 C.3     
   5 C5            -2.9806     2.2461    -2.0630 C.3     
   6 C6            -1.4841    -0.5318     0.1417 C.3     
   7 C7            -1.5304    -2.0560     0.0170 C.3     
   8 C8            -0.7065    -2.6752     1.1166 C.2     
   9 N9             0.6325    -2.5222     1.1230 N.am    
  10 C10            1.4025    -3.1748     2.0802 C.2     
  11 N11           -2.9176    -2.5133     0.1296 N.pl3   
  12 C12           -3.6170    -3.2095    -0.8246 C.ar    
  13 C13           -4.9026    -3.4380    -0.2940 C.ar    
  14 C14           -4.9243    -2.8532     0.9942 C.2     
  15 N15           -3.7597    -2.3219     1.2316 N.2     
  16 O16           -1.2485    -3.3112     1.9957 O.2     
  17 O17           -2.2306     1.9181    -3.2344 O.3     
  18 C18           -3.3018    -3.6775    -2.0935 C.ar    
  19 C19           -4.2597    -4.3682    -2.8291 C.ar    
  20 C20           -5.5373    -4.5913    -2.2931 C.ar    
  21 C21           -5.8547    -4.1367    -1.0507 C.ar    
  22 C22           -7.1805    -5.5151     1.0308 C.3     
  23 C23           -8.4109    -6.0537     1.7636 C.3     
  24 C24           -7.5756    -6.9859     0.8838 C.3     
  25 S25            3.1557    -3.0771     2.2207 S.3     
  26 C26            3.1013    -4.1617     3.6088 C.2     
  27 C27            1.8268    -4.4876     3.8347 C.2     
  28 N28            0.9433    -3.9484     3.0155 N.2     
  29 F29            4.1664    -4.5900     4.3212 F       
  30 C30           -3.9410    -4.8529    -4.1383 C.1     
  31 N31           -3.6881    -5.2374    -5.1769 N.1     
  32 S32           -7.4631    -4.4257    -0.3918 S.o2    
  33 O33           -7.9002    -3.1445     0.0403 O.2     
  34 O34           -8.1453    -5.1223    -1.4256 O.2     
  35 H35           -2.9082     1.8267     0.0503 H       
  36 H36           -1.3125     2.0280    -0.7150 H       
  37 H37           -3.2228    -0.3213    -1.1158 H       
  38 H38           -0.4305     0.1928    -2.2417 H       
  39 H39           -1.4253    -1.2588    -2.5165 H       
  40 H40           -1.5812     0.3536    -4.4176 H       
  41 H41           -3.1539     0.1103    -3.6198 H       
  42 H42           -3.9960     1.8624    -2.1622 H       
  43 H43           -3.0112     3.3290    -1.9424 H       
  44 H44           -0.4463    -0.1987     0.1438 H       
  45 H45           -1.9649    -0.2286     1.0718 H       
  46 H46           -1.1271    -2.3537    -0.9508 H       
  47 H47            1.0593    -1.9570     0.4603 H       
  48 H48           -5.7663    -2.8515     1.6705 H       
  49 H49           -2.3189    -3.5061    -2.5071 H       
  50 H50           -6.2744    -5.1285    -2.8714 H       
  51 H51           -6.2979    -5.2881     1.6288 H       
  52 H52           -8.3377    -6.1813     2.8436 H       
  53 H53           -9.3902    -5.7534     1.3908 H       
  54 H54           -8.0053    -7.2989    -0.0678 H       
  55 H55           -6.9527    -7.7268     1.3850 H       
  56 H56            1.5365    -5.1472     4.6391 H       
@<TRIPOS>BOND
   1    1    2 1
   2    1    5 1
   3    1   35 1
   4    1   36 1
   5    2    3 1
   6    2    6 1
   7    2   37 1
   8    3    4 1
   9    3   38 1
  10    3   39 1
  11    4   17 1
  12    4   40 1
  13    4   41 1
  14    5   17 1
  15    5   42 1
  16    5   43 1
  17    6    7 1
  18    6   44 1
  19    6   45 1
  20    7    8 1
  21    7   11 1
  22    7   46 1
  23    8    9 am
  24    8   16 2
  25    9   10 1
  26    9   47 1
  27   10   25 1
  28   10   28 2
  29   11   12 1
  30   11   15 1
  31   12   13 ar
  32   12   18 ar
  33   13   14 1
  34   13   21 ar
  35   14   15 2
  36   14   48 1
  37   18   19 ar
  38   18   49 1
  39   19   20 ar
  40   19   30 1
  41   20   21 ar
  42   20   50 1
  43   21   32 1
  44   22   23 1
  45   22   32 1
  46   22   24 1
  47   22   51 1
  48   23   24 1
  49   23   52 1
  50   23   53 1
  51   24   54 1
  52   24   55 1
  53   25   26 1
  54   26   27 2
  55   26   29 1
  56   27   28 1
  57   27   56 1
  58   30   31 3
  59   32   33 2
  60   32   34 2

#	End of record

