#	Name: ASD03330466
#	Creating user name:	WinNT
#	Creation time:	15. 06. 2019 20:37

#	Modifying user name:	WinNT
#	Modification time:	15. 06. 2019 20:37

#	Program:	/corina/corina34_cracker 3.40 0067  02.08.2006

@<TRIPOS>MOLECULE
ASD03330466
  58   60    0    0    0
SMALL
NO_CHARGES


@<TRIPOS>ATOM
   1 C1            -0.2641     2.0908    -0.6959 C.3     
   2 N2            -0.1028     0.6536    -0.4347 N.3     
   3 C3             0.3544    -0.0586    -1.6416 C.3     
   4 C4             1.5425     0.6830    -2.1981 C.2     
   5 N5             1.8756     1.9498    -1.8396 N.pl3   
   6 C6             1.1126     2.7442    -0.8728 C.3     
   7 C7             2.4600     0.2674    -3.1079 C.2     
   8 N8             3.3402     1.2764    -3.2930 N.2     
   9 C9             2.9945     2.2912    -2.5320 C.2     
  10 C10            3.7035     3.5855    -2.4438 C.ar    
  11 C11            2.4914    -1.0473    -3.7734 C.2     
  12 O12            1.6388    -1.8770    -3.5211 O.2     
  13 C13            3.4961    -2.6367    -5.3230 C.3     
  14 N14            3.4649    -1.3300    -4.6615 N.am    
  15 C15           -1.3479     0.0693     0.0813 C.3     
  16 C16            4.6429     3.9347    -3.4166 C.ar    
  17 C17            4.2219    -3.6439    -4.4287 C.3     
  18 C18            3.4157    -3.8610    -3.1465 C.3     
  19 C19            4.3668    -4.9737    -5.1713 C.3     
  20 C20            5.6088    -3.1041    -4.0738 C.3     
  21 C21            4.2231    -2.5171    -6.6376 C.2     
  22 O22            4.8173    -1.4958    -6.9112 O.2     
  23 N23            4.2129    -3.5450    -7.5093 N.am    
  24 C24            4.9857    -3.4601    -8.7510 C.3     
  25 C25            5.3028     5.1395    -3.3353 C.ar    
  26 C26            5.0328     6.0140    -2.2788 C.ar    
  27 C27            4.0926     5.6641    -1.3055 C.ar    
  28 C28            3.4294     4.4613    -1.3908 C.ar    
  29 C29            5.7195     7.2677    -2.1933 C.1     
  30 N30            6.2643     8.2622    -2.1255 N.1     
  31 H31           -0.8509     2.2306    -1.6037 H       
  32 H32           -0.7808     2.5560     0.1437 H       
  33 H33            0.6444    -1.0765    -1.3811 H       
  34 H34           -0.4456    -0.0807    -2.3816 H       
  35 H35            0.9917     3.7611    -1.2463 H       
  36 H36            1.6364     2.7627     0.0829 H       
  37 H37            2.4764    -2.9781    -5.5015 H       
  38 H38            4.1449    -0.6681    -4.8628 H       
  39 H39           -2.1592     0.2657    -0.6196 H       
  40 H40           -1.2225    -1.0070     0.1996 H       
  41 H41           -1.5859     0.5156     1.0468 H       
  42 H42            4.8517     3.2588    -4.2327 H       
  43 H43            2.4276    -4.2456    -3.3993 H       
  44 H44            3.9328    -4.5785    -2.5094 H       
  45 H45            3.3124    -2.9137    -2.6174 H       
  46 H46            4.8429    -4.8008    -6.1365 H       
  47 H47            4.9796    -5.6547    -4.5808 H       
  48 H48            3.3813    -5.4129    -5.3258 H       
  49 H49            5.5055    -2.1567    -3.5447 H       
  50 H50            6.1258    -3.8216    -3.4367 H       
  51 H51            6.1831    -2.9494    -4.9872 H       
  52 H52            3.6940    -4.3410    -7.3144 H       
  53 H53            4.6354    -2.6122    -9.3397 H       
  54 H54            6.0411    -3.3264    -8.5137 H       
  55 H55            4.8554    -4.3784    -9.3235 H       
  56 H56            6.0295     5.4092    -4.0874 H       
  57 H57            3.8836     6.3394    -0.4890 H       
  58 H58            2.7027     4.1909    -0.6390 H       
@<TRIPOS>BOND
   1    1    2 1
   2    1    6 1
   3    1   31 1
   4    1   32 1
   5    2    3 1
   6    2   15 1
   7    3    4 1
   8    3   33 1
   9    3   34 1
  10    4    5 1
  11    4    7 2
  12    5    6 1
  13    5    9 1
  14    6   35 1
  15    6   36 1
  16    7    8 1
  17    7   11 1
  18    8    9 2
  19    9   10 1
  20   10   16 ar
  21   10   28 ar
  22   11   12 2
  23   11   14 am
  24   13   14 1
  25   13   17 1
  26   13   21 1
  27   13   37 1
  28   14   38 1
  29   15   39 1
  30   15   40 1
  31   15   41 1
  32   16   25 ar
  33   16   42 1
  34   17   18 1
  35   17   19 1
  36   17   20 1
  37   18   43 1
  38   18   44 1
  39   18   45 1
  40   19   46 1
  41   19   47 1
  42   19   48 1
  43   20   49 1
  44   20   50 1
  45   20   51 1
  46   21   22 2
  47   21   23 am
  48   23   24 1
  49   23   52 1
  50   24   53 1
  51   24   54 1
  52   24   55 1
  53   25   26 ar
  54   25   56 1
  55   26   27 ar
  56   26   29 1
  57   27   28 ar
  58   27   57 1
  59   28   58 1
  60   29   30 3

#	End of record

