#	Name: ASD03930063
#	Creating user name:	WinNT
#	Creation time:	15. 06. 2019 20:47

#	Modifying user name:	WinNT
#	Modification time:	15. 06. 2019 20:47

#	Program:	/corina/corina34_cracker 3.40 0067  02.08.2006

@<TRIPOS>MOLECULE
ASD03930063
  34   37    0    0    0
SMALL
NO_CHARGES


@<TRIPOS>ATOM
   1 C1            -0.1930     1.0376     0.0057 C.ar    
   2 C2            -0.0527    -0.3313    -0.0327 C.ar    
   3 C3             1.2014    -0.9277    -0.0357 C.ar    
   4 C4             2.3319    -0.1643    -0.0012 C.ar    
   5 C5             2.1957     1.2405     0.0149 C.ar    
   6 C6             0.9493     1.8460     0.0311 C.ar    
   7 C7             3.6934    -0.7975     0.0507 C.3     
   8 N8             4.7294     0.0156    -0.5922 N.am    
   9 S9             4.9640     1.5866    -0.0673 S.o2    
  10 C10            3.2976     2.2161    -0.0033 C.2     
  11 S11            1.1487     3.5918     0.0792 S.3     
  12 C12            2.8991     3.4652     0.0357 C.2     
  13 O13            5.4370     1.5154     1.2708 O.2     
  14 O14            5.6350     2.2812    -1.1097 O.2     
  15 C15            3.1096    -0.9299     2.4811 C.ar    
  16 C16            3.4575    -1.1281     3.8042 C.ar    
  17 C17            4.7686    -1.4107     4.1392 C.ar    
  18 C18            5.7316    -1.4954     3.1510 C.ar    
  19 C19            5.3837    -1.2967     1.8280 C.ar    
  20 C20            4.0726    -1.0142     1.4930 C.ar    
  21 C21            5.5457    -0.5378    -1.6755 C.3     
  22 H22           -1.1764     1.4842     0.0117 H       
  23 H23           -0.9351    -0.9535    -0.0607 H       
  24 H24            1.2826    -2.0042    -0.0652 H       
  25 H25            3.6488    -1.7662    -0.4470 H       
  26 H26            3.5673     4.3136     0.0411 H       
  27 H27            2.0845    -0.7135     2.2189 H       
  28 H28            2.7052    -1.0618     4.5762 H       
  29 H29            5.0406    -1.5648     5.1729 H       
  30 H30            6.7560    -1.7155     3.4128 H       
  31 H31            6.1361    -1.3626     1.0561 H       
  32 H32            5.0606    -0.3430    -2.6320 H       
  33 H33            6.5296    -0.0690    -1.6650 H       
  34 H34            5.6542    -1.6134    -1.5356 H       
@<TRIPOS>BOND
   1    1    2 ar
   2    1    6 ar
   3    1   22 1
   4    2    3 ar
   5    2   23 1
   6    3    4 ar
   7    3   24 1
   8    4    5 ar
   9    4    7 1
  10    5    6 ar
  11    5   10 1
  12    6   11 1
  13    7    8 1
  14    7   20 1
  15    7   25 1
  16    8    9 am
  17    8   21 1
  18    9   10 1
  19    9   13 2
  20    9   14 2
  21   10   12 2
  22   11   12 1
  23   12   26 1
  24   15   16 ar
  25   15   20 ar
  26   15   27 1
  27   16   17 ar
  28   16   28 1
  29   17   18 ar
  30   17   29 1
  31   18   19 ar
  32   18   30 1
  33   19   20 ar
  34   19   31 1
  35   21   32 1
  36   21   33 1
  37   21   34 1

#	End of record

