#	Name: ASD03430706
#	Creating user name:	WinNT
#	Creation time:	15. 06. 2019 20:41

#	Modifying user name:	WinNT
#	Modification time:	15. 06. 2019 20:41

#	Program:	/corina/corina34_cracker 3.40 0067  02.08.2006

@<TRIPOS>MOLECULE
ASD03430706
  58   64    0    0    0
SMALL
NO_CHARGES


@<TRIPOS>ATOM
   1 C1             2.4462     0.5456    -0.1056 C.ar    
   2 C2             1.9251    -0.7391    -0.1127 C.ar    
   3 C3             2.7589    -1.8255    -0.2738 C.ar    
   4 C4             4.1315    -1.6492    -0.4208 C.ar    
   5 C5             4.6506    -0.3584    -0.4175 C.ar    
   6 C6             3.8148     0.7342    -0.2596 C.ar    
   7 O7             4.7736    -2.8468    -0.5372 O.3     
   8 C8             2.5063    -3.3075    -0.3466 C.3     
   9 C9             3.8223    -3.8624    -0.9091 C.3     
  10 C10            0.9344    -4.5054     0.8418 C.ar    
  11 C11            2.1771    -3.8973     0.9926 C.ar    
  12 C12            1.3381    -3.6441    -1.2283 C.2     
  13 N13            0.4709    -4.3408    -0.4670 N.am    
  14 O14            1.2015    -3.3469    -2.3963 O.2     
  15 C15            2.8308    -3.9290     2.2050 C.ar    
  16 C16            2.2548    -4.5696     3.2872 C.ar    
  17 C17            1.0208    -5.1790     3.1503 C.ar    
  18 C18            0.3609    -5.1504     1.9374 C.ar    
  19 C19           -0.8075    -4.8649    -0.9541 C.3     
  20 C20           -1.9379    -4.2091    -0.2036 C.ar    
  21 C21           -3.0750    -4.9326     0.1036 C.ar    
  22 O22            1.6077     1.6076     0.0469 O.3     
  23 C23            2.2081     2.8532     0.4188 C.3     
  24 C24            3.4424     3.0738    -0.4661 C.3     
  25 O25            4.3486     1.9869    -0.2527 O.3     
  26 F26           -0.8441    -5.7483     1.8119 F       
  27 C27           -4.1120    -4.3311     0.7919 C.ar    
  28 C28           -4.0115    -3.0062     1.1735 C.ar    
  29 C29           -2.8740    -2.2830     0.8671 C.ar    
  30 C30           -1.8353    -2.8858     0.1826 C.ar    
  31 C31           -0.9434    -4.5696    -2.4256 C.ar    
  32 C32           -0.8887    -5.6001    -3.3453 C.ar    
  33 C33           -1.1286    -3.2688    -2.8553 C.ar    
  34 C34           -1.2533    -2.9979    -4.2051 C.ar    
  35 C35           -1.1924    -4.0278    -5.1253 C.ar    
  36 C36           -1.0134    -5.3293    -4.6951 C.ar    
  37 H37            0.8625    -0.8895     0.0088 H       
  38 H38            5.7130    -0.2076    -0.5390 H       
  39 H39            3.7679    -3.9634    -1.9931 H       
  40 H40            4.0714    -4.8155    -0.4425 H       
  41 H41            3.7946    -3.4533     2.3104 H       
  42 H42            2.7679    -4.5941     4.2372 H       
  43 H43            0.5715    -5.6796     3.9952 H       
  44 H44           -0.8427    -5.9426    -0.7950 H       
  45 H45           -3.1535    -5.9676    -0.1946 H       
  46 H46            1.4964     3.6645     0.2661 H       
  47 H47            2.5080     2.8186     1.4662 H       
  48 H48            3.1433     3.1010    -1.5139 H       
  49 H49            3.9248     4.0133    -0.1965 H       
  50 H50           -5.0007    -4.8961     1.0313 H       
  51 H51           -4.8220    -2.5361     1.7107 H       
  52 H52           -2.7957    -1.2479     1.1649 H       
  53 H53           -0.9465    -2.3208    -0.0568 H       
  54 H54           -0.7481    -6.6169    -3.0093 H       
  55 H55           -1.1761    -2.4642    -2.1364 H       
  56 H56           -1.3987    -1.9818    -4.5408 H       
  57 H57           -1.2903    -3.8162    -6.1798 H       
  58 H58           -0.9658    -6.1338    -5.4140 H       
@<TRIPOS>BOND
   1    1    2 ar
   2    1    6 ar
   3    1   22 1
   4    2    3 ar
   5    2   37 1
   6    3    4 ar
   7    3    8 1
   8    4    5 ar
   9    4    7 1
  10    5    6 ar
  11    5   38 1
  12    6   25 1
  13    7    9 1
  14    8    9 1
  15    8   11 1
  16    8   12 1
  17    9   39 1
  18    9   40 1
  19   10   11 ar
  20   10   13 1
  21   10   18 ar
  22   11   15 ar
  23   12   13 am
  24   12   14 2
  25   13   19 1
  26   15   16 ar
  27   15   41 1
  28   16   17 ar
  29   16   42 1
  30   17   18 ar
  31   17   43 1
  32   18   26 1
  33   19   31 1
  34   19   20 1
  35   19   44 1
  36   20   21 ar
  37   20   30 ar
  38   21   27 ar
  39   21   45 1
  40   22   23 1
  41   23   24 1
  42   23   46 1
  43   23   47 1
  44   24   25 1
  45   24   48 1
  46   24   49 1
  47   27   28 ar
  48   27   50 1
  49   28   29 ar
  50   28   51 1
  51   29   30 ar
  52   29   52 1
  53   30   53 1
  54   31   32 ar
  55   31   33 ar
  56   32   36 ar
  57   32   54 1
  58   33   34 ar
  59   33   55 1
  60   34   35 ar
  61   34   56 1
  62   35   36 ar
  63   35   57 1
  64   36   58 1

#	End of record

