#	Name: ASD03091538
#	Creating user name:	WinNT
#	Creation time:	15. 06. 2019 20:30

#	Modifying user name:	WinNT
#	Modification time:	15. 06. 2019 20:30

#	Program:	/corina/corina34_cracker 3.40 0067  02.08.2006

@<TRIPOS>MOLECULE
ASD03091538
  21   22    0    0    0
SMALL
NO_CHARGES


@<TRIPOS>ATOM
   1 C1            -0.0161     1.3335     0.0094 C.2     
   2 C2             0.0021    -0.0041     0.0020 C.2     
   3 C3             1.2765    -0.5926    -0.0133 C.ar    
   4 C4             2.3068     0.3562    -0.0181 C.ar    
   5 S5             1.6172     1.9752    -0.0028 S.3     
   6 C6             3.6415    -0.0648    -0.0326 C.ar    
   7 C7             3.9427    -1.4067    -0.0428 C.ar    
   8 C8             2.9238    -2.3512    -0.0386 C.ar    
   9 C9             1.6202    -1.9660    -0.0235 C.ar    
  10 C10           -1.2350     2.1522     0.0198 C.2     
  11 O11           -2.3267     1.6171     0.0222 O.2     
  12 O12           -1.1436     3.4975     0.0266 O.3     
  13 Cl13           4.9199     1.1096    -0.0385 Cl      
  14 C14           -2.3897     4.2428     0.0368 C.3     
  15 H15           -0.9037    -0.5922     0.0079 H       
  16 H16            4.9740    -1.7271    -0.0544 H       
  17 H17            3.1700    -3.4027    -0.0473 H       
  18 H18            0.8407    -2.7134    -0.0201 H       
  19 H19           -2.1740     5.3112     0.0415 H       
  20 H20           -2.9696     3.9932    -0.8518 H       
  21 H21           -2.9609     3.9835     0.9281 H       
@<TRIPOS>BOND
   1    1    2 2
   2    1    5 1
   3    1   10 1
   4    2    3 1
   5    2   15 1
   6    3    4 ar
   7    3    9 ar
   8    4    5 1
   9    4    6 ar
  10    6    7 ar
  11    6   13 1
  12    7    8 ar
  13    7   16 1
  14    8    9 ar
  15    8   17 1
  16    9   18 1
  17   10   11 2
  18   10   12 1
  19   12   14 1
  20   14   19 1
  21   14   20 1
  22   14   21 1

#	End of record

