#	Name: ASD01208593
#	Creating user name:	WinNT
#	Creation time:	15. 06. 2019 19:10

#	Modifying user name:	WinNT
#	Modification time:	15. 06. 2019 19:10

#	Program:	/corina/corina34_cracker 3.40 0067  02.08.2006

@<TRIPOS>MOLECULE
ASD01208593
  79   81    0    0    0
SMALL
NO_CHARGES


@<TRIPOS>ATOM
   1 O1            -3.4596     5.2342    -1.7021 O.3     
   2 C2            -2.7763     4.0946    -1.9436 C.2     
   3 N3            -1.4921     4.2694    -2.0588 N.2     
   4 C4            -1.2013     5.7072    -1.8963 C.3     
   5 C5            -2.6047     6.3409    -2.0551 C.3     
   6 N6            -4.7699     2.5291    -1.9525 N.pl3   
   7 C7            -3.4227     2.7800    -2.0643 C.2     
   8 C8            -2.7843     1.5835    -2.3091 C.2     
   9 C9            -3.7613     0.5874    -2.3468 C.2     
  10 C10           -4.9790     1.1898    -2.1249 C.2     
  11 C11           -6.2883     0.5052    -2.0801 C.ar    
  12 C12           -7.4530     1.2371    -1.8446 C.ar    
  13 C13           -8.6775     0.5918    -1.8039 C.ar    
  14 C14           -8.7475    -0.7807    -1.9965 C.ar    
  15 C15           -7.5922    -1.5121    -2.2309 C.ar    
  16 C16           -6.3638    -0.8737    -2.2789 C.ar    
  17 O17           -7.6663    -2.8560    -2.4189 O.3     
  18 Si18          -7.6733    -3.3072    -3.9863 Si      
  19 C19           -7.1077    -5.5382    -5.5402 C.3     
  20 C20           -7.4600    -5.1544    -4.1016 C.3     
  21 C21           -6.3340    -5.5973    -3.1652 C.3     
  22 C22          -10.4425    -3.1796    -3.8220 C.3     
  23 C23           -9.2934    -2.8192    -4.7658 C.3     
  24 C24           -9.3007    -1.3115    -5.0258 C.3     
  25 C25           -4.9433    -3.0744    -4.4387 C.3     
  26 C26           -6.2743    -2.4635    -4.8816 C.3     
  27 C27           -6.4459    -2.6535    -6.3900 C.3     
  28 O28           -9.8123     1.3035    -1.5746 O.3     
  29 C29          -10.8666     3.1693    -0.4575 C.3     
  30 C30           -9.6569     2.6892    -1.2619 C.3     
  31 C31           -9.5534     3.4960    -2.5577 C.3     
  32 O32          -12.0394     3.0944    -1.2706 O.3     
  33 C33          -13.2324     3.5226    -0.6107 C.3     
  34 C34           -2.7921     7.5102    -1.0864 C.3     
  35 C35           -4.2010     8.0849    -1.2470 C.3     
  36 H36           -0.7917     5.9119    -0.9071 H       
  37 H37           -0.5254     6.0580    -2.6761 H       
  38 H38           -2.7775     6.6560    -3.0842 H       
  39 H39           -5.4564     3.1913    -1.7766 H       
  40 H40           -1.7225     1.4425    -2.4472 H       
  41 H41           -3.5925    -0.4653    -2.5190 H       
  42 H42           -7.3993     2.3051    -1.6939 H       
  43 H43           -9.7041    -1.2810    -1.9635 H       
  44 H44           -5.4654    -1.4432    -2.4656 H       
  45 H45           -6.0882    -5.2222    -5.7612 H       
  46 H46           -7.1866    -6.6190    -5.6576 H       
  47 H47           -7.7973    -5.0469    -6.2266 H       
  48 H48           -8.3885    -5.6461    -3.8114 H       
  49 H49           -6.5440    -5.2485    -2.1541 H       
  50 H50           -6.2662    -6.6851    -3.1676 H       
  51 H51           -5.3896    -5.1736    -3.5069 H       
  52 H52          -10.3184    -2.6476    -2.8788 H       
  53 H53          -11.3904    -2.8941    -4.2781 H       
  54 H54          -10.4374    -4.2537    -3.6368 H       
  55 H55           -9.4176    -3.3512    -5.7091 H       
  56 H56           -9.3213    -0.7790    -4.0749 H       
  57 H57           -8.4031    -1.0338    -5.5784 H       
  58 H58          -10.1828    -1.0476    -5.6092 H       
  59 H59           -4.9348    -3.1794    -3.3538 H       
  60 H60           -4.8222    -4.0547    -4.8997 H       
  61 H61           -4.1246    -2.4242    -4.7472 H       
  62 H62           -6.2817    -1.3992    -4.6463 H       
  63 H63           -7.4639    -2.3891    -6.6761 H       
  64 H64           -5.7414    -2.0120    -6.9195 H       
  65 H65           -6.2546    -3.6949    -6.6491 H       
  66 H66          -10.9928     2.5369     0.4213 H       
  67 H67          -10.7078     4.2008    -0.1431 H       
  68 H68           -8.7503     2.8294    -0.6732 H       
  69 H69           -9.4349     4.5530    -2.3192 H       
  70 H70           -8.6916     3.1540    -3.1308 H       
  71 H71          -10.4600     3.3559    -3.1464 H       
  72 H72          -13.4077     2.8975     0.2649 H       
  73 H73          -13.1226     4.5614    -0.2994 H       
  74 H74          -14.0770     3.4355    -1.2943 H       
  75 H75           -2.6572     7.1596    -0.0632 H       
  76 H76           -2.0568     8.2845    -1.3050 H       
  77 H77           -4.3359     8.4355    -2.2702 H       
  78 H78           -4.9363     7.3105    -1.0284 H       
  79 H79           -4.3344     8.9179    -0.5569 H       
@<TRIPOS>BOND
   1    1    2 1
   2    1    5 1
   3    2    3 2
   4    2    7 1
   5    3    4 1
   6    4    5 1
   7    4   36 1
   8    4   37 1
   9    5   34 1
  10    5   38 1
  11    6    7 1
  12    6   10 1
  13    6   39 1
  14    7    8 2
  15    8    9 1
  16    8   40 1
  17    9   10 2
  18    9   41 1
  19   10   11 1
  20   11   12 ar
  21   11   16 ar
  22   12   13 ar
  23   12   42 1
  24   13   14 ar
  25   13   28 1
  26   14   15 ar
  27   14   43 1
  28   15   16 ar
  29   15   17 1
  30   16   44 1
  31   17   18 1
  32   18   20 1
  33   18   23 1
  34   18   26 1
  35   19   20 1
  36   19   45 1
  37   19   46 1
  38   19   47 1
  39   20   21 1
  40   20   48 1
  41   21   49 1
  42   21   50 1
  43   21   51 1
  44   22   23 1
  45   22   52 1
  46   22   53 1
  47   22   54 1
  48   23   24 1
  49   23   55 1
  50   24   56 1
  51   24   57 1
  52   24   58 1
  53   25   26 1
  54   25   59 1
  55   25   60 1
  56   25   61 1
  57   26   27 1
  58   26   62 1
  59   27   63 1
  60   27   64 1
  61   27   65 1
  62   28   30 1
  63   29   30 1
  64   29   32 1
  65   29   66 1
  66   29   67 1
  67   30   31 1
  68   30   68 1
  69   31   69 1
  70   31   70 1
  71   31   71 1
  72   32   33 1
  73   33   72 1
  74   33   73 1
  75   33   74 1
  76   34   35 1
  77   34   75 1
  78   34   76 1
  79   35   77 1
  80   35   78 1
  81   35   79 1

#	End of record

