#	Name: ASD01028684
#	Creating user name:	WinNT
#	Creation time:	15. 06. 2019 18:57

#	Modifying user name:	WinNT
#	Modification time:	15. 06. 2019 18:57

#	Program:	/corina/corina34_cracker 3.40 0067  02.08.2006

@<TRIPOS>MOLECULE
ASD01028684
  31   32    0    0    0
SMALL
NO_CHARGES


@<TRIPOS>ATOM
   1 C1            -0.0184     1.5028     0.0103 C.2     
   2 C2             0.0021    -0.0041     0.0020 C.3     
   3 O3             1.0236     2.1234     0.0037 O.2     
   4 N4            -1.1946     2.1607     0.0195 N.am    
   5 N5             4.8719    -1.8233     2.1405 N.ar    
   6 C6             5.0003    -2.0561     3.4241 C.ar    
   7 C7             3.9442    -1.8661     4.3130 C.ar    
   8 C8             2.7363    -1.4257     3.8522 C.ar    
   9 C9             2.6022    -1.1763     2.4732 C.ar    
  10 C10            1.3915    -0.7222     1.9266 C.ar    
  11 C11            1.3021    -0.4920     0.5875 C.ar    
  12 C12            2.3966    -0.7022    -0.2486 C.ar    
  13 C13            3.5851    -1.1424     0.2476 C.ar    
  14 C14            3.7168    -1.3909     1.6248 C.ar    
  15 C15           -1.2145     3.6256     0.0275 C.3     
  16 O16           -2.4111     1.4361     0.0213 O.3     
  17 C17           -2.9043     1.1316     1.3275 C.3     
  18 F18           -1.0647    -0.4891     0.7662 F       
  19 F19           -0.1191    -0.4649    -1.3134 F       
  20 H20            5.9498    -2.4047     3.8027 H       
  21 H21            4.0807    -2.0672     5.3653 H       
  22 H22            1.9069    -1.2734     4.5270 H       
  23 H23            0.5361    -0.5560     2.5646 H       
  24 H24            2.3002    -0.5131    -1.3075 H       
  25 H25            4.4236    -1.3006    -0.4144 H       
  26 H26           -1.2243     3.9944    -0.9981 H       
  27 H27           -2.1068     3.9740     0.5475 H       
  28 H28           -0.3271     3.9982     0.5392 H       
  29 H29           -2.1700     0.5286     1.8616 H       
  30 H30           -3.0808     2.0579     1.8743 H       
  31 H31           -3.8383     0.5760     1.2428 H       
@<TRIPOS>BOND
   1    1    2 1
   2    1    3 2
   3    1    4 am
   4    2   11 1
   5    2   18 1
   6    2   19 1
   7    4   15 1
   8    4   16 1
   9    5    6 ar
  10    5   14 ar
  11    6    7 ar
  12    6   20 1
  13    7    8 ar
  14    7   21 1
  15    8    9 ar
  16    8   22 1
  17    9   10 ar
  18    9   14 ar
  19   10   11 ar
  20   10   23 1
  21   11   12 ar
  22   12   13 ar
  23   12   24 1
  24   13   14 ar
  25   13   25 1
  26   15   26 1
  27   15   27 1
  28   15   28 1
  29   16   17 1
  30   17   29 1
  31   17   30 1
  32   17   31 1

#	End of record

