#	Name: ASD04590656
#	Creating user name:	WinNT
#	Creation time:	15. 06. 2019 20:51

#	Modifying user name:	WinNT
#	Modification time:	15. 06. 2019 20:51

#	Program:	/corina/corina34_cracker 3.40 0067  02.08.2006

@<TRIPOS>MOLECULE
ASD04590656
  85   90    0    0    0
SMALL
NO_CHARGES


@<TRIPOS>ATOM
   1 N1            -2.8467    -3.4369    -1.3100 N.ar    
   2 C2            -1.6364    -2.8979    -1.2378 C.ar    
   3 N3            -0.5337    -3.6115    -1.3977 N.ar    
   4 C4            -0.6016    -4.9171    -1.6408 C.ar    
   5 C5            -1.8730    -5.5198    -1.7235 C.ar    
   6 C6            -3.0040    -4.7286    -1.5483 C.ar    
   7 N7             0.3508    -5.8845    -1.8440 N.pl3   
   8 C8            -0.2476    -7.1144    -2.0597 C.ar    
   9 C9            -1.6414    -6.9442    -1.9951 C.ar    
  10 C10            0.2538    -8.3871    -2.3089 C.ar    
  11 N11           -0.5631    -9.4074    -2.4800 N.ar    
  12 C12           -1.8776    -9.2800    -2.4252 C.ar    
  13 C13           -2.4628    -8.0558    -2.1839 C.ar    
  14 N14           -1.5233    -1.5405    -0.9866 N.pl3   
  15 C15           -2.6679    -0.7464    -0.9172 C.ar    
  16 C16            1.7967    -5.6489    -1.8347 C.3     
  17 C17            2.1722    -4.6332    -2.9280 C.3     
  18 C18            2.8125    -3.4280    -2.2087 C.3     
  19 C19            3.3314    -4.0150    -0.8726 C.3     
  20 C20            2.2219    -5.0254    -0.4893 C.3     
  21 N21           -3.8475    -1.2727    -1.2043 N.ar    
  22 C22           -4.9565    -0.5594    -1.1515 C.ar    
  23 C23           -4.9221     0.7790    -0.7903 C.ar    
  24 C24           -3.6971     1.3682    -0.4808 C.ar    
  25 C25           -2.5570     0.5879    -0.5415 C.ar    
  26 N26           -6.1029     1.5293    -0.7375 N.3     
  27 C27           -7.2656     0.7077    -1.1017 C.3     
  28 C28           -8.5413     1.5405    -0.9551 C.3     
  29 N29           -8.4493     2.7284    -1.8153 N.3     
  30 C30           -7.2865     3.5500    -1.4511 C.3     
  31 C31           -6.0108     2.7172    -1.5977 C.3     
  32 C32           -9.6882     3.5158    -1.7599 C.3     
  33 C33           -9.5235     4.7855    -2.5975 C.3     
  34 Cl34           1.9699    -8.6343    -2.3960 Cl      
  35 O35           -9.2919     4.4294    -3.9619 O.3     
  36 Si36          -9.0995     5.7069    -4.9575 Si      
  37 C37           -8.8069     5.1016    -6.6950 C.3     
  38 C38          -10.6346     6.7618    -4.9177 C.3     
  39 C39           -7.6375     6.7164    -4.3970 C.3     
  40 C40          -10.0075     4.2725    -7.1553 C.3     
  41 C41           -8.6264     6.3000    -7.6289 C.3     
  42 C42           -7.5462     4.2352    -6.7276 C.3     
  43 H43           -3.9920    -5.1610    -1.6055 H       
  44 H44           -2.5025   -10.1484    -2.5724 H       
  45 H45           -3.5376    -7.9590    -2.1408 H       
  46 H46           -0.6482    -1.1421    -0.8589 H       
  47 H47            2.3285    -6.5863    -1.9974 H       
  48 H48            2.8869    -5.0775    -3.6207 H       
  49 H49            1.2786    -4.3157    -3.4654 H       
  50 H50            3.6389    -3.0281    -2.7963 H       
  51 H51            2.0669    -2.6552    -2.0218 H       
  52 H52            4.2840    -4.5243    -1.0185 H       
  53 H53            3.4212    -3.2347    -0.1168 H       
  54 H54            1.3809    -4.5105    -0.0247 H       
  55 H55            2.6173    -5.7913     0.1780 H       
  56 H56           -5.9015    -1.0232    -1.3928 H       
  57 H57           -3.6404     2.4086    -0.1966 H       
  58 H58           -1.5914     1.0117    -0.3082 H       
  59 H59           -7.1659     0.3740    -2.1346 H       
  60 H60           -7.3193    -0.1589    -0.4428 H       
  61 H61           -9.4024     0.9420    -1.2525 H       
  62 H62           -8.6553     1.8514     0.0833 H       
  63 H63           -7.2328     4.4166    -2.1100 H       
  64 H64           -7.3862     3.8837    -0.4182 H       
  65 H65           -5.1497     3.3157    -1.3003 H       
  66 H66           -5.8968     2.4063    -2.6362 H       
  67 H67          -10.5131     2.9235    -2.1562 H       
  68 H68           -9.9001     3.7876    -0.7259 H       
  69 H69          -10.4299     5.3869    -2.5279 H       
  70 H70           -8.6764     5.3603    -2.2232 H       
  71 H71          -10.8058     7.1159    -3.9012 H       
  72 H72          -10.5060     7.6155    -5.5831 H       
  73 H73          -11.4900     6.1711    -5.2456 H       
  74 H74           -6.7394     6.0992    -4.4203 H       
  75 H75           -7.5090     7.5702    -5.0624 H       
  76 H76           -7.8088     7.0705    -3.3805 H       
  77 H77          -10.9056     4.8897    -7.1320 H       
  78 H78           -9.8363     3.9184    -8.1718 H       
  79 H79          -10.1361     3.4188    -6.4899 H       
  80 H80           -7.7711     6.8906    -7.3010 H       
  81 H81           -8.4552     5.9459    -8.6454 H       
  82 H82           -9.5246     6.9172    -7.6056 H       
  83 H83           -7.6747     3.3815    -6.0623 H       
  84 H84           -7.3750     3.8811    -7.7442 H       
  85 H85           -6.6908     4.8259    -6.3997 H       
@<TRIPOS>BOND
   1    1    2 ar
   2    1    6 ar
   3    2    3 ar
   4    2   14 1
   5    3    4 ar
   6    4    5 ar
   7    4    7 1
   8    5    6 ar
   9    5    9 1
  10    6   43 1
  11    7    8 1
  12    7   16 1
  13    8    9 ar
  14    8   10 ar
  15    9   13 ar
  16   10   11 ar
  17   10   34 1
  18   11   12 ar
  19   12   13 ar
  20   12   44 1
  21   13   45 1
  22   14   15 1
  23   14   46 1
  24   15   21 ar
  25   15   25 ar
  26   16   17 1
  27   16   20 1
  28   16   47 1
  29   17   18 1
  30   17   48 1
  31   17   49 1
  32   18   19 1
  33   18   50 1
  34   18   51 1
  35   19   20 1
  36   19   52 1
  37   19   53 1
  38   20   54 1
  39   20   55 1
  40   21   22 ar
  41   22   23 ar
  42   22   56 1
  43   23   24 ar
  44   23   26 1
  45   24   25 ar
  46   24   57 1
  47   25   58 1
  48   26   27 1
  49   26   31 1
  50   27   28 1
  51   27   59 1
  52   27   60 1
  53   28   29 1
  54   28   61 1
  55   28   62 1
  56   29   30 1
  57   29   32 1
  58   30   31 1
  59   30   63 1
  60   30   64 1
  61   31   65 1
  62   31   66 1
  63   32   33 1
  64   32   67 1
  65   32   68 1
  66   33   35 1
  67   33   69 1
  68   33   70 1
  69   35   36 1
  70   36   37 1
  71   36   38 1
  72   36   39 1
  73   37   40 1
  74   37   41 1
  75   37   42 1
  76   38   71 1
  77   38   72 1
  78   38   73 1
  79   39   74 1
  80   39   75 1
  81   39   76 1
  82   40   77 1
  83   40   78 1
  84   40   79 1
  85   41   80 1
  86   41   81 1
  87   41   82 1
  88   42   83 1
  89   42   84 1
  90   42   85 1

#	End of record

