#	Name: ASD01410724
#	Creating user name:	WinNT
#	Creation time:	15. 06. 2019 19:18

#	Modifying user name:	WinNT
#	Modification time:	15. 06. 2019 19:18

#	Program:	/corina/corina34_cracker 3.40 0067  02.08.2006

@<TRIPOS>MOLECULE
ASD01410724
  40   42    0    0    0
SMALL
NO_CHARGES


@<TRIPOS>ATOM
   1 N1            -0.0159     1.3182     0.0093 N.ar    
   2 C2             0.0021    -0.0041     0.0020 C.ar    
   3 C3             1.2065    -0.7205    -0.0129 C.ar    
   4 C4             2.3994    -0.0463    -0.0206 C.ar    
   5 C5             2.3688     1.3679    -0.0132 C.ar    
   6 C6             3.5534     2.1180    -0.0209 C.ar    
   7 C7             3.4951     3.4780    -0.0139 C.ar    
   8 C8             2.2648     4.1414     0.0008 C.ar    
   9 C9             1.0838     3.4340     0.0092 C.ar    
  10 C10            1.1159     2.0298     0.0023 C.ar    
  11 O11            3.5779    -0.7170    -0.0345 O.3     
  12 C12           -0.2356     4.1620     0.0251 C.3     
  13 O13            2.2342     5.4994     0.0074 O.3     
  14 C14            3.4925     6.1767    -0.0014 C.3     
  15 S15           -1.4450    -2.4972     0.0031 S.3     
  16 C16           -1.2776    -0.7434     0.0103 C.2     
  17 N17           -2.4626    -0.2029     0.0245 N.2     
  18 C18           -3.4901    -1.0171     0.0303 C.2     
  19 C19           -3.1990    -2.3244     0.0209 C.2     
  20 C20           -4.9104    -0.5134     0.0471 C.3     
  21 C21           -5.4475    -0.4544    -1.3843 C.3     
  22 C22           -5.7777    -1.4607     0.8786 C.3     
  23 H23            1.1944    -1.8004    -0.0179 H       
  24 H24            4.5104     1.6176    -0.0319 H       
  25 H25            4.4103     4.0513    -0.0196 H       
  26 H26            3.9116    -0.9074    -0.9219 H       
  27 H27           -0.5636     4.3420    -0.9987 H       
  28 H28           -0.9786     3.5560     0.5435 H       
  29 H29           -0.1188     5.1145     0.5419 H       
  30 H30            3.3253     7.2538     0.0052 H       
  31 H31            4.0643     5.8923     0.8819 H       
  32 H32            4.0475     5.9006    -0.8979 H       
  33 H33           -3.9152    -3.1328     0.0238 H       
  34 H34           -4.9371     0.4837     0.4866 H       
  35 H35           -5.4208    -1.4515    -1.8238 H       
  36 H36           -6.4748    -0.0901    -1.3722 H       
  37 H37           -4.8296     0.2205    -1.9767 H       
  38 H38           -6.8049    -1.0964     0.8907 H       
  39 H39           -5.7509    -2.4578     0.4391 H       
  40 H40           -5.3950    -1.5028     1.8984 H       
@<TRIPOS>BOND
   1    1    2 ar
   2    1   10 ar
   3    2    3 ar
   4    2   16 1
   5    3    4 ar
   6    3   23 1
   7    4    5 ar
   8    4   11 1
   9    5    6 ar
  10    5   10 ar
  11    6    7 ar
  12    6   24 1
  13    7    8 ar
  14    7   25 1
  15    8    9 ar
  16    8   13 1
  17    9   10 ar
  18    9   12 1
  19   11   26 1
  20   12   27 1
  21   12   28 1
  22   12   29 1
  23   13   14 1
  24   14   30 1
  25   14   31 1
  26   14   32 1
  27   15   16 1
  28   15   19 1
  29   16   17 2
  30   17   18 1
  31   18   19 2
  32   18   20 1
  33   19   33 1
  34   20   21 1
  35   20   22 1
  36   20   34 1
  37   21   35 1
  38   21   36 1
  39   21   37 1
  40   22   38 1
  41   22   39 1
  42   22   40 1

#	End of record

