#	Name: ASD01411218
#	Creating user name:	WinNT
#	Creation time:	15. 06. 2019 19:19

#	Modifying user name:	WinNT
#	Modification time:	15. 06. 2019 19:19

#	Program:	/corina/corina34_cracker 3.40 0067  02.08.2006

@<TRIPOS>MOLECULE
ASD01411218
  71   74    0    0    0
SMALL
NO_CHARGES


@<TRIPOS>ATOM
   1 C1             2.6729     5.4979    -1.4681 C.ar    
   2 C2             3.5756     5.4537    -2.5214 C.ar    
   3 C3             4.5714     4.4969    -2.5182 C.ar    
   4 N4             4.6724     3.6294    -1.5295 N.ar    
   5 C5             3.8313     3.6396    -0.5084 C.ar    
   6 C6             2.8055     4.5740    -0.4459 C.ar    
   7 C7             4.5489     0.4393     0.1890 C.ar    
   8 C8             4.9238     1.7685     0.3440 C.ar    
   9 O9             3.9720     2.7288     0.4872 O.3     
  10 C10            5.5069    -0.5434     0.0433 C.ar    
  11 C11            6.8542    -0.2099     0.0511 C.ar    
  12 C12            7.2394     1.1304     0.2067 C.ar    
  13 C13            6.2620     2.1177     0.3535 C.ar    
  14 N14            7.8214    -1.2031    -0.0952 N.am    
  15 C15            8.1267    -1.6710    -1.3217 C.2     
  16 C16            7.4948    -1.0536    -2.5425 C.3     
  17 O17            8.9101    -2.5889    -1.4428 O.2     
  18 C18            7.7659    -1.9393    -3.7603 C.3     
  19 C19            8.0918     0.3351    -2.7788 C.3     
  20 C20            9.6016     0.2114    -2.9934 C.3     
  21 C21            9.8728    -0.6743    -4.2112 C.3     
  22 C22            9.2757    -2.0630    -3.9749 C.3     
  23 C23           11.3826    -0.7981    -4.4258 C.3     
  24 C24            8.5060    -1.7382     1.0843 C.3     
  25 C25            8.1934    -3.2058     1.2238 C.ar    
  26 C26            9.1646    -4.0784     1.6748 C.ar    
  27 C27            8.8762    -5.4295     1.8030 C.ar    
  28 O28            9.8298    -6.2899     2.2469 O.3     
  29 C29            7.6126    -5.9005     1.4778 C.ar    
  30 C30            8.0281    -0.9941     2.3328 C.3     
  31 C31            6.6447    -5.0236     1.0271 C.ar    
  32 C32            6.9328    -3.6770     0.9056 C.ar    
  33 C33            9.4623    -7.6667     2.3541 C.3     
  34 C34            8.6676     1.4945     0.2168 C.2     
  35 O35            9.5125     0.6451     0.0139 O.2     
  36 O36            9.0364     2.7693     0.4510 O.3     
  37 C37            1.8497     4.5820     0.7192 C.3     
  38 F38            0.9158     5.6096     0.5492 F       
  39 F39            1.1842     3.3531     0.7848 F       
  40 F40            2.5619     4.7905     1.9052 F       
  41 H41            1.8877     6.2390    -1.4443 H       
  42 H42            3.4999     6.1599    -3.3350 H       
  43 H43            5.2761     4.4581    -3.3357 H       
  44 H44            3.5021     0.1733     0.1870 H       
  45 H45            5.2077    -1.5742    -0.0766 H       
  46 H46            6.5507     3.1514     0.4737 H       
  47 H47            6.4191    -0.9654    -2.3896 H       
  48 H48            7.3405    -2.9286    -3.5919 H       
  49 H49            7.3088    -1.4927    -4.6433 H       
  50 H50            7.6347     0.7817    -3.6618 H       
  51 H51            7.8987     0.9661    -1.9112 H       
  52 H52           10.0270     1.2007    -3.1618 H       
  53 H53           10.0587    -0.2352    -2.1104 H       
  54 H54            9.4157    -0.2277    -5.0942 H       
  55 H55            9.7328    -2.5096    -3.0919 H       
  56 H56            9.4688    -2.6940    -4.8425 H       
  57 H57           11.8397    -1.2447    -3.5428 H       
  58 H58           11.5757    -1.4291    -5.2934 H       
  59 H59           11.8079     0.1913    -4.5942 H       
  60 H60            9.5820    -1.6050     0.9715 H       
  61 H61           10.1477    -3.7093     1.9270 H       
  62 H62            7.3858    -6.9518     1.5764 H       
  63 H63            6.9522    -1.1273     2.4456 H       
  64 H64            8.5375    -1.3922     3.2104 H       
  65 H65            8.2542     0.0674     2.2319 H       
  66 H66            5.6609    -5.3899     0.7734 H       
  67 H67            6.1747    -2.9931     0.5535 H       
  68 H68            8.6299    -7.7674     3.0506 H       
  69 H69            9.1637    -8.0404     1.3747 H       
  70 H70           10.3129    -8.2425     2.7188 H       
  71 H71            9.9844     2.9598     0.4476 H       
@<TRIPOS>BOND
   1    1    2 ar
   2    1    6 ar
   3    1   41 1
   4    2    3 ar
   5    2   42 1
   6    3    4 ar
   7    3   43 1
   8    4    5 ar
   9    5    6 ar
  10    5    9 1
  11    6   37 1
  12    7    8 ar
  13    7   10 ar
  14    7   44 1
  15    8    9 1
  16    8   13 ar
  17   10   11 ar
  18   10   45 1
  19   11   12 ar
  20   11   14 1
  21   12   13 ar
  22   12   34 1
  23   13   46 1
  24   14   15 am
  25   14   24 1
  26   15   17 2
  27   15   16 1
  28   16   18 1
  29   16   19 1
  30   16   47 1
  31   18   22 1
  32   18   48 1
  33   18   49 1
  34   19   20 1
  35   19   50 1
  36   19   51 1
  37   20   21 1
  38   20   52 1
  39   20   53 1
  40   21   22 1
  41   21   23 1
  42   21   54 1
  43   22   55 1
  44   22   56 1
  45   23   57 1
  46   23   58 1
  47   23   59 1
  48   24   30 1
  49   24   25 1
  50   24   60 1
  51   25   26 ar
  52   25   32 ar
  53   26   27 ar
  54   26   61 1
  55   27   28 1
  56   27   29 ar
  57   28   33 1
  58   29   31 ar
  59   29   62 1
  60   30   63 1
  61   30   64 1
  62   30   65 1
  63   31   32 ar
  64   31   66 1
  65   32   67 1
  66   33   68 1
  67   33   69 1
  68   33   70 1
  69   34   35 2
  70   34   36 1
  71   36   71 1
  72   37   38 1
  73   37   39 1
  74   37   40 1

#	End of record

