#	Name: ASD01883440
#	Creating user name:	WinNT
#	Creation time:	15. 06. 2019 19:46

#	Modifying user name:	WinNT
#	Modification time:	15. 06. 2019 19:46

#	Program:	/corina/corina34_cracker 3.40 0067  02.08.2006

@<TRIPOS>MOLECULE
ASD01883440
  57   59    0    0    0
SMALL
NO_CHARGES


@<TRIPOS>ATOM
   1 N1            -0.1904     1.2385    -0.5883 N.am    
   2 C2            -0.8381     0.8450    -1.7006 C.2     
   3 C3            -2.1192     0.2531    -1.5989 C.2     
   4 C4            -2.6880     0.0899    -0.3245 C.2     
   5 C5            -1.9614     0.5214     0.8007 C.2     
   6 C6            -0.7393     1.0754     0.6435 C.2     
   7 O7            -0.3217     0.9988    -2.7945 O.2     
   8 C8            -2.8227    -0.1709    -2.7720 C.1     
   9 N9            -3.3807    -0.5073    -3.7025 N.1     
  10 N10           -3.9324    -0.4809    -0.1794 N.pl3   
  11 C11           -5.0584     0.3023     0.3475 C.3     
  12 C12           -5.6721    -0.4516     1.5314 C.3     
  13 C13           -6.0442    -1.8691     1.0908 C.3     
  14 C14           -4.7838    -2.6139     0.6449 C.3     
  15 C15           -4.1613    -1.8829    -0.5543 C.3     
  16 C16            1.1357     1.8495    -0.7080 C.3     
  17 C17            0.9875     3.3651    -0.8555 C.3     
  18 C18            2.3725     4.0032    -0.9806 C.3     
  19 C19            2.2212     5.5012    -1.2526 C.3     
  20 C20            3.1484     3.7973     0.3219 C.3     
  21 O21           -6.6467    -2.5648     2.1840 O.3     
  22 C22           -7.4938    -3.5820     1.8764 C.ar    
  23 C23           -7.6539    -3.9778     0.5564 C.ar    
  24 C24           -8.5156    -5.0120     0.2463 C.ar    
  25 C25           -9.2184    -5.6524     1.2501 C.ar    
  26 C26           -9.0610    -5.2595     2.5664 C.ar    
  27 C27           -8.1957    -4.2300     2.8824 C.ar    
  28 C28          -10.1578    -6.7803     0.9090 C.3     
  29 H29           -2.3790     0.4063     1.7900 H       
  30 H30           -0.1911     1.4028     1.5145 H       
  31 H31           -4.7015     1.2770     0.6803 H       
  32 H32           -5.8093     0.4325    -0.4318 H       
  33 H33           -4.9488    -0.5017     2.3453 H       
  34 H34           -6.5668     0.0705     1.8708 H       
  35 H35           -6.7487    -1.8182     0.2606 H       
  36 H36           -4.0688    -2.6437     1.4671 H       
  37 H37           -5.0461    -3.6309     0.3534 H       
  38 H38           -4.8404    -1.9330    -1.4054 H       
  39 H39           -3.2114    -2.3502    -0.8141 H       
  40 H40            1.7203     1.6267     0.1845 H       
  41 H41            1.6434     1.4471    -1.5847 H       
  42 H42            0.4029     3.5879    -1.7481 H       
  43 H43            0.4799     3.7676     0.0211 H       
  44 H44            2.9142     3.5374    -1.8038 H       
  45 H45            1.6795     5.9671    -0.4295 H       
  46 H46            3.2078     5.9558    -1.3417 H       
  47 H47            1.6684     5.6480    -2.1805 H       
  48 H48            3.2562     2.7301     0.5157 H       
  49 H49            4.1351     4.2518     0.2328 H       
  50 H50            2.6067     4.2631     1.1451 H       
  51 H51           -7.1055    -3.4776    -0.2281 H       
  52 H52           -8.6409    -5.3203    -0.7812 H       
  53 H53           -9.6115    -5.7609     3.3486 H       
  54 H54           -8.0731    -3.9234     3.9107 H       
  55 H55           -9.6155    -7.7255     0.9354 H       
  56 H56          -10.9711    -6.8077     1.6342 H       
  57 H57          -10.5663    -6.6236    -0.0894 H       
@<TRIPOS>BOND
   1    1    2 am
   2    1   16 1
   3    1    6 1
   4    2    3 1
   5    2    7 2
   6    3    4 2
   7    3    8 1
   8    4    5 1
   9    4   10 1
  10    5    6 2
  11    5   29 1
  12    6   30 1
  13    8    9 3
  14   10   11 1
  15   10   15 1
  16   11   12 1
  17   11   31 1
  18   11   32 1
  19   12   13 1
  20   12   33 1
  21   12   34 1
  22   13   14 1
  23   13   21 1
  24   13   35 1
  25   14   15 1
  26   14   36 1
  27   14   37 1
  28   15   38 1
  29   15   39 1
  30   16   17 1
  31   16   40 1
  32   16   41 1
  33   17   18 1
  34   17   42 1
  35   17   43 1
  36   18   19 1
  37   18   20 1
  38   18   44 1
  39   19   45 1
  40   19   46 1
  41   19   47 1
  42   20   48 1
  43   20   49 1
  44   20   50 1
  45   21   22 1
  46   22   23 ar
  47   22   27 ar
  48   23   24 ar
  49   23   51 1
  50   24   25 ar
  51   24   52 1
  52   25   26 ar
  53   25   28 1
  54   26   27 ar
  55   26   53 1
  56   27   54 1
  57   28   55 1
  58   28   56 1
  59   28   57 1

#	End of record

