#	Name: ASD06590081
#	Creating user name:	WinNT
#	Creation time:	15. 06. 2019 21:06

#	Modifying user name:	WinNT
#	Modification time:	15. 06. 2019 21:06

#	Program:	/corina/corina34_cracker 3.40 0067  02.08.2006

@<TRIPOS>MOLECULE
ASD06590081
 307  307    0    0    0
SMALL
NO_CHARGES


@<TRIPOS>ATOM
   1 C1            -8.0756    19.9533     6.7721 C.2     
   2 O2            -8.5416    20.7415     5.9769 O.2     
   3 N3            -8.1471    21.8015     8.3432 N.am    
   4 C4            -7.7835    20.3913     8.1842 C.3     
   5 C5            -8.5986    19.5411     9.1608 C.3     
   6 C6            -8.3983    20.0661    10.5839 C.3     
   7 O7            -9.9834    19.6156     8.8161 O.3     
   8 C8            -9.6330    17.7190     5.0964 C.2     
   9 O9           -10.2565    17.7380     6.1365 O.2     
  10 N10           -7.8240    18.6841     6.3946 N.am    
  11 C11           -8.2144    18.2263     5.0589 C.3     
  12 C12           -7.2812    17.0987     4.6133 C.3     
  13 C13           -5.8815    17.6359     4.4603 C.2     
  14 O14           -5.6364    18.7846     4.7628 O.2     
  15 N15           -4.9021    16.8400     3.9873 N.am    
  16 C16          -11.7956    15.7574     2.8968 C.2     
  17 O17          -10.8817    15.4877     2.1463 O.2     
  18 N18          -10.2087    17.2441     3.9742 N.am    
  19 C19          -11.5878    16.7509     4.0106 C.3     
  20 C20          -12.5538    17.9242     3.8343 C.3     
  21 C21          -14.6175    13.6952     1.6893 C.2     
  22 O22          -15.3842    14.1006     2.5370 O.2     
  23 N23          -12.9969    15.1684     2.7345 N.am    
  24 C24          -13.1990    14.2025     1.6517 C.3     
  25 C25          -16.4769    10.9363     0.1746 C.2     
  26 O26          -15.4695    10.4279    -0.2701 O.2     
  27 N27          -15.0341    12.7911     0.7807 N.am    
  28 C28          -16.4131    12.2979     0.8172 C.3     
  29 C29          -17.3209    13.2649     0.0544 C.3     
  30 C30          -17.3536    14.6123     0.7785 C.3     
  31 C31          -18.2614    15.5793     0.0157 C.3     
  32 N32          -18.2927    16.8695     0.7090 N.pl3   
  33 C33          -19.0477    17.9022     0.2055 C.2     
  34 N34          -19.7356    17.7335    -0.8887 N.2     
  35 N35          -19.0771    19.1130     0.8561 N.pl3   
  36 C36          -19.1086     8.7139    -1.0494 C.2     
  37 O37          -19.9655     9.5609    -0.9108 O.2     
  38 N38          -17.6532    10.2836     0.0940 N.am    
  39 C39          -17.7152     8.9599    -0.5307 C.3     
  40 C40          -17.3600     7.8904     0.5041 C.3     
  41 O41          -18.3547     7.8712     1.5299 O.3     
  42 C42          -21.6716     6.8088    -1.2352 C.2     
  43 O43          -21.2823     6.6011    -0.1054 O.2     
  44 N44          -19.4025     7.5527    -1.6672 N.am    
  45 C45          -20.7234     7.3575    -2.2700 C.3     
  46 C46          -20.6120     6.3708    -3.4340 C.3     
  47 C47          -19.7817     6.9821    -4.5330 C.2     
  48 O48          -19.2603     8.0595    -4.3682 O.2     
  49 O49          -19.6215     6.3297    -5.6951 O.3     
  50 C50          -24.9814     5.2569    -1.2446 C.2     
  51 O51          -24.9989     5.1706    -2.4542 O.2     
  52 N52          -22.9522     6.5487    -1.5652 N.am    
  53 C53          -23.8740     6.0152    -0.5592 C.3     
  54 C54          -24.4704     7.1693     0.2490 C.3     
  55 C55          -23.3409     8.0131     0.8431 C.3     
  56 O56          -25.2745     7.9842    -0.6063 O.3     
  57 C57          -28.2484     3.9201    -0.2944 C.2     
  58 O58          -28.2209     4.4694     0.7866 O.2     
  59 N59          -25.9523     4.6747    -0.5133 N.am    
  60 C60          -27.0289     3.9375    -1.1796 C.3     
  61 C61          -26.5734     2.5019    -1.4485 C.3     
  62 C62          -25.4132     2.5133    -2.4459 C.3     
  63 C63          -24.9577     1.0777    -2.7149 C.3     
  64 N64          -23.8467     1.0887    -3.6699 N.pl3   
  65 C65          -23.2687    -0.0943    -4.0656 C.2     
  66 N66          -22.2803    -0.0845    -4.9152 N.2     
  67 N67          -23.7332    -1.2876    -3.5651 N.pl3   
  68 C68          -31.4051     2.0801    -0.1830 C.2     
  69 O69          -31.0552     1.3163    -1.0577 O.2     
  70 N70          -29.3695     3.2941    -0.7039 N.am    
  71 C71          -30.5550     3.2772     0.1566 C.3     
  72 C72          -31.3642     4.5567    -0.0647 C.3     
  73 C73          -30.5458     5.7640     0.3973 C.3     
  74 C74          -31.3428     7.0243     0.1793 C.2     
  75 O75          -32.4558     6.9629    -0.2986 O.2     
  76 N76          -30.8188     8.2197     0.5154 N.am    
  77 C77          -34.8113     0.9686     0.5417 C.2     
  78 O78          -35.1111     2.0313     1.0434 O.2     
  79 N79          -32.5543     1.8583     0.4854 N.am    
  80 C80          -33.3807     0.6946     0.1553 C.3     
  81 C81          -32.8705    -0.5273     0.9218 C.3     
  82 C82          -31.4623    -0.8808     0.4389 C.3     
  83 C83          -30.9597    -2.0843     1.1939 C.2     
  84 O84          -31.6589    -2.6077     2.0354 O.2     
  85 N85          -29.7333    -2.5789     0.9341 N.am    
  86 C86          -37.8600    -1.0057     0.9553 C.2     
  87 O87          -37.2641    -2.0548     0.8317 O.2     
  88 N88          -35.7577     0.0327     0.3297 N.am    
  89 C89          -37.1484     0.2990     0.7054 C.3     
  90 C90          -37.8476     1.0523    -0.4281 C.3     
  91 C91          -37.2131     2.4089    -0.5960 C.ar    
  92 C92          -36.1448     2.5691    -1.4590 C.ar    
  93 C93          -35.5612     3.8116    -1.6143 C.ar    
  94 C94          -36.0482     4.8991    -0.9038 C.ar    
  95 O95          -35.4761     6.1225    -1.0552 O.3     
  96 C96          -37.1205     4.7358    -0.0389 C.ar    
  97 C97          -37.7040     3.4923     0.1090 C.ar    
  98 C98          -41.3297    -2.0907     1.3388 C.2     
  99 O99          -41.7635    -1.0066     1.0113 O.2     
 100 N100         -39.1586    -1.0068     1.3160 N.am    
 101 C101         -39.8503    -2.2751     1.5589 C.3     
 102 C102         -39.6011    -2.7240     3.0003 C.3     
 103 C103         -38.1142    -3.0313     3.1889 C.3     
 104 C104         -37.8651    -3.4801     4.6302 C.3     
 105 N105         -36.4414    -3.7743     4.8109 N.pl3   
 106 C106         -35.9768    -4.1983     6.0334 C.2     
 107 N107         -36.8030    -4.3386     7.0317 N.2     
 108 N108         -34.6407    -4.4744     6.2030 N.pl3   
 109 C109         -44.3675    -3.9804     2.0897 C.2     
 110 O110         -43.7661    -4.7845     2.7700 O.2     
 111 N111         -42.1706    -3.1306     1.5060 N.am    
 112 C112         -43.6088    -2.9513     1.2920 C.3     
 113 C113         -43.9283    -3.1212    -0.1946 C.3     
 114 C114         -43.2577    -2.0006    -0.9917 C.3     
 115 C115         -43.5772    -2.1705    -2.4783 C.3     
 116 C116         -42.9066    -1.0499    -3.2754 C.3     
 117 N117         -43.2134    -1.2131    -4.7027 N.3     
 118 C118         -47.8109    -5.2278     2.1097 C.2     
 119 O119         -48.2314    -4.3777     1.3538 O.2     
 120 N120         -45.7143    -4.0073     2.0472 N.am    
 121 C121         -46.4477    -5.0738     2.7335 C.3     
 122 C122         -46.6013    -4.7165     4.2132 C.3     
 123 C123         -47.3494    -5.8397     4.9341 C.3     
 124 C124         -46.4897    -7.1054     4.9366 C.3     
 125 C125         -47.6384    -5.4167     6.3757 C.3     
 126 C126         -50.7431    -7.3220     2.7258 C.2     
 127 O127         -50.2539    -7.8123     3.7159 O.2     
 128 N128         -48.5627    -6.3101     2.3920 N.am    
 129 C129         -49.9150    -6.4267     1.8405 C.3     
 130 C130         -49.8424    -7.0257     0.4345 C.3     
 131 O131         -52.0241    -7.5747     2.4145 O.3     
 132 C132          -7.5487    22.5489     9.2917 C.2     
 133 O133          -6.7091    22.0541    10.0136 O.2     
 134 C134          -4.8436    38.6002    18.5776 C.3     
 135 C135          -4.4637    37.1274    18.4116 C.3     
 136 C136          -5.2834    36.5144    17.2744 C.3     
 137 C137          -4.9036    35.0416    17.1084 C.3     
 138 C138          -5.7233    34.4286    15.9712 C.3     
 139 C139          -5.3435    32.9558    15.8052 C.3     
 140 C140          -6.1632    32.3428    14.6680 C.3     
 141 C141          -5.7834    30.8700    14.5020 C.3     
 142 C142          -6.6031    30.2570    13.3648 C.3     
 143 C143          -6.2233    28.7842    13.1988 C.3     
 144 C144          -7.0430    28.1712    12.0616 C.3     
 145 C145          -6.6632    26.6984    11.8956 C.3     
 146 C146          -7.4829    26.0854    10.7584 C.3     
 147 C147          -7.1031    24.6126    10.5924 C.3     
 148 C148          -7.9228    23.9996     9.4552 C.3     
 149 H149          -8.8186    22.1972     7.7658 H       
 150 H150          -6.7209    20.2645     8.3915 H       
 151 H151          -8.2657    18.5047     9.1057 H       
 152 H152          -8.7313    21.1026    10.6390 H       
 153 H153          -8.9791    19.4605    11.2797 H       
 154 H154          -7.3421    20.0093    10.8469 H       
 155 H155         -10.3480    20.5108     8.8439 H       
 156 H156          -7.3845    18.0739     7.0073 H       
 157 H157          -8.1437    19.0558     4.3553 H       
 158 H158          -7.2863    16.3059     5.3613 H       
 159 H159          -7.6235    16.6996     3.6585 H       
 160 H160          -5.0981    15.9213     3.7454 H       
 161 H161          -4.0012    17.1858     3.8889 H       
 162 H162          -9.7101    17.2288     3.1423 H       
 163 H163         -11.7752    16.2668     4.9691 H       
 164 H164         -13.5798    17.5573     3.8615 H       
 165 H165         -12.4035    18.6428     4.6400 H       
 166 H166         -12.3663    18.4083     2.8759 H       
 167 H167         -13.7278    15.3840     3.3347 H       
 168 H168         -12.5107    13.3667     1.7773 H       
 169 H169         -13.0115    14.6867     0.6933 H       
 170 H170         -14.4209    12.4669     0.1027 H       
 171 H171         -16.7463    12.2270     1.8526 H       
 172 H172         -16.9358    13.4045    -0.9557 H       
 173 H173         -18.3294    12.8542     0.0053 H       
 174 H174         -17.7387    14.4727     1.7886 H       
 175 H175         -16.3451    15.0230     0.8276 H       
 176 H176         -17.8763    15.7188    -0.9944 H       
 177 H177         -19.2699    15.1686    -0.0334 H       
 178 H178         -17.7808    16.9950     1.5233 H       
 179 H179         -20.2683    18.4622    -1.2439 H       
 180 H180         -18.5652    19.2386     1.6704 H       
 181 H181         -19.6098    19.8417     0.5009 H       
 182 H182         -18.4589    10.6902     0.4497 H       
 183 H183         -17.0065     8.9149    -1.3576 H       
 184 H184         -17.3192     6.9150     0.0193 H       
 185 H185         -16.3890     8.1185     0.9438 H       
 186 H186         -18.1935     7.2151     2.2218 H       
 187 H187         -18.7394     6.8462    -1.7128 H       
 188 H188         -21.0996     8.3122    -2.6376 H       
 189 H189         -20.1374     5.4527    -3.0878 H       
 190 H190         -21.6080     6.1438    -3.8144 H       
 191 H191         -19.0803     6.7616    -6.3701 H       
 192 H192         -23.2635     6.7147    -2.4687 H       
 193 H193         -23.3340     5.3446     0.1091 H       
 194 H194         -25.0867     6.7688     1.0539 H       
 195 H195         -22.7246     8.4136     0.0382 H       
 196 H196         -23.7658     8.8353     1.4189 H       
 197 H197         -22.7275     7.3916     1.4955 H       
 198 H198         -24.7903     8.3747    -1.3466 H       
 199 H199         -25.9383     4.7437     0.4541 H       
 200 H200         -27.2723     4.4244    -2.1239 H       
 201 H201         -26.2458     2.0438    -0.5153 H       
 202 H202         -27.4030     1.9291    -1.8629 H       
 203 H203         -25.7408     2.9715    -3.3791 H       
 204 H204         -24.5835     3.0862    -2.0316 H       
 205 H205         -24.6300     0.6196    -1.7817 H       
 206 H206         -25.7873     0.5049    -3.1292 H       
 207 H207         -23.5190     1.9306    -4.0230 H       
 208 H208         -21.8725    -0.9192    -5.1944 H       
 209 H209         -24.4688    -1.2948    -2.9328 H       
 210 H210         -23.3254    -2.1222    -3.8443 H       
 211 H211         -29.3914     2.8548    -1.5685 H       
 212 H212         -30.2456     3.2189     1.2002 H       
 213 H213         -31.5977     4.6601    -1.1244 H       
 214 H214         -32.2901     4.5047     0.5080 H       
 215 H215         -30.3122     5.6606     1.4570 H       
 216 H216         -29.6199     5.8161    -0.1754 H       
 217 H217         -29.9287     8.2688     0.8977 H       
 218 H218         -31.3318     9.0308     0.3751 H       
 219 H219         -32.8341     2.4692     1.1849 H       
 220 H220         -33.3244     0.5010    -0.9159 H       
 221 H221         -32.8431    -0.3020     1.9879 H       
 222 H222         -33.5375    -1.3712     0.7458 H       
 223 H223         -31.4897    -1.1061    -0.6272 H       
 224 H224         -30.7953    -0.0368     0.6149 H       
 225 H225         -29.1740    -2.1602     0.2611 H       
 226 H226         -29.4097    -3.3535     1.4201 H       
 227 H227         -35.5180    -0.8173    -0.0716 H       
 228 H228         -37.1705     0.9043     1.6116 H       
 229 H229         -37.7483     0.4875    -1.3551 H       
 230 H230         -38.9038     1.1724    -0.1872 H       
 231 H231         -35.7661     1.7222    -2.0118 H       
 232 H232         -34.7263     3.9361    -2.2879 H       
 233 H233         -35.8701     6.6567    -1.7584 H       
 234 H234         -37.5012     5.5808     0.5156 H       
 235 H235         -38.5416     3.3655     0.7788 H       
 236 H236         -39.6352    -0.1677     1.4148 H       
 237 H237         -39.4724    -3.0325     0.8721 H       
 238 H238         -39.8976    -1.9292     3.6847 H       
 239 H239         -40.1865    -3.6197     3.2082 H       
 240 H240         -37.8177    -3.8260     2.5045 H       
 241 H241         -37.5289    -2.1356     2.9810 H       
 242 H242         -38.1616    -2.6853     5.3147 H       
 243 H243         -38.4504    -4.3758     4.8382 H       
 244 H244         -35.8265    -3.6699     4.0680 H       
 245 H245         -36.4753    -4.6377     7.8942 H       
 246 H246         -34.0258    -4.3700     5.4601 H       
 247 H247         -34.3129    -4.7735     7.0655 H       
 248 H248         -41.8236    -3.9977     1.7680 H       
 249 H249         -43.9024    -1.9525     1.6149 H       
 250 H250         -43.5546    -4.0856    -0.5386 H       
 251 H251         -45.0074    -3.0762    -0.3417 H       
 252 H252         -43.6314    -1.0362    -0.6477 H       
 253 H253         -42.1786    -2.0456    -0.8445 H       
 254 H254         -43.2035    -3.1350    -2.8223 H       
 255 H255         -44.6563    -2.1255    -2.6254 H       
 256 H256         -43.2803    -0.0855    -2.9314 H       
 257 H257         -41.8275    -1.0949    -3.1283 H       
 258 H258         -44.2101    -1.2395    -4.8576 H       
 259 H259         -42.7815    -0.4845    -5.2510 H       
 260 H260         -46.1980    -3.3205     1.5622 H       
 261 H261         -45.8979    -6.0104     2.6410 H       
 262 H262         -45.6155    -4.5908     4.6609 H       
 263 H263         -47.1637    -3.7874     4.3062 H       
 264 H264         -48.2889    -6.0396     4.4188 H       
 265 H265         -45.5801    -6.9256     5.5097 H       
 266 H266         -47.0491    -7.9236     5.3900 H       
 267 H267         -46.2275    -7.3685     3.9118 H       
 268 H268         -48.2509    -4.5150     6.3740 H       
 269 H269         -48.1714    -6.2169     6.8893 H       
 270 H270         -46.6989    -5.2168     6.8910 H       
 271 H271         -48.2085    -7.0119     2.9603 H       
 272 H272         -50.3738    -5.4392     1.7915 H       
 273 H273         -49.2435    -6.3782    -0.2058 H       
 274 H274         -49.3836    -8.0133     0.4835 H       
 275 H275         -50.8485    -7.1125     0.0242 H       
 276 H276         -52.5150    -8.1547     3.0126 H       
 277 H277          -4.2596    39.0369    19.3878 H       
 278 H278          -4.6365    39.1355    17.6510 H       
 279 H279          -5.9052    38.6774    18.8124 H       
 280 H280          -3.4021    37.0502    18.1768 H       
 281 H281          -4.6708    36.5921    19.3382 H       
 282 H282          -6.3451    36.5916    17.5092 H       
 283 H283          -5.0764    37.0497    16.3478 H       
 284 H284          -3.8420    34.9644    16.8736 H       
 285 H285          -5.1107    34.5063    18.0350 H       
 286 H286          -6.7850    34.5058    16.2060 H       
 287 H287          -5.5163    34.9639    15.0446 H       
 288 H288          -4.2819    32.8786    15.5704 H       
 289 H289          -5.5506    32.4205    16.7318 H       
 290 H290          -7.2248    32.4200    14.9028 H       
 291 H291          -5.9562    32.8781    13.7414 H       
 292 H292          -4.7218    30.7928    14.2672 H       
 293 H293          -5.9904    30.3347    15.4286 H       
 294 H294          -7.6647    30.3342    13.5996 H       
 295 H295          -6.3961    30.7923    12.4381 H       
 296 H296          -5.1617    28.7070    12.9640 H       
 297 H297          -6.4303    28.2489    14.1254 H       
 298 H298          -8.1046    28.2484    12.2964 H       
 299 H299          -6.8360    28.7065    11.1349 H       
 300 H300          -5.6016    26.6212    11.6608 H       
 301 H301          -6.8702    26.1631    12.8222 H       
 302 H302          -8.5445    26.1626    10.9932 H       
 303 H303          -7.2759    26.6207     9.8317 H       
 304 H304          -6.0415    24.5354    10.3576 H       
 305 H305          -7.3101    24.0773    11.5190 H       
 306 H306          -7.7158    24.5349     8.5285 H       
 307 H307          -8.9844    24.0768     9.6900 H       
@<TRIPOS>BOND
   1    1    2 2
   2    1    4 1
   3    1   10 am
   4    3  132 am
   5    3    4 1
   6    3  149 1
   7    4    5 1
   8    4  150 1
   9    5    6 1
  10    5    7 1
  11    5  151 1
  12    6  152 1
  13    6  153 1
  14    6  154 1
  15    7  155 1
  16    8    9 2
  17    8   11 1
  18    8   18 am
  19   10   11 1
  20   10  156 1
  21   11   12 1
  22   11  157 1
  23   12   13 1
  24   12  158 1
  25   12  159 1
  26   13   14 2
  27   13   15 am
  28   15  160 1
  29   15  161 1
  30   16   17 2
  31   16   19 1
  32   16   23 am
  33   18   19 1
  34   18  162 1
  35   19   20 1
  36   19  163 1
  37   20  164 1
  38   20  165 1
  39   20  166 1
  40   21   22 2
  41   21   24 1
  42   21   27 am
  43   23   24 1
  44   23  167 1
  45   24  168 1
  46   24  169 1
  47   25   26 2
  48   25   28 1
  49   25   38 am
  50   27   28 1
  51   27  170 1
  52   28   29 1
  53   28  171 1
  54   29   30 1
  55   29  172 1
  56   29  173 1
  57   30   31 1
  58   30  174 1
  59   30  175 1
  60   31   32 1
  61   31  176 1
  62   31  177 1
  63   32   33 1
  64   32  178 1
  65   33   34 2
  66   33   35 1
  67   34  179 1
  68   35  180 1
  69   35  181 1
  70   36   37 2
  71   36   39 1
  72   36   44 am
  73   38   39 1
  74   38  182 1
  75   39   40 1
  76   39  183 1
  77   40   41 1
  78   40  184 1
  79   40  185 1
  80   41  186 1
  81   42   43 2
  82   42   45 1
  83   42   52 am
  84   44   45 1
  85   44  187 1
  86   45   46 1
  87   45  188 1
  88   46   47 1
  89   46  189 1
  90   46  190 1
  91   47   48 2
  92   47   49 1
  93   49  191 1
  94   50   51 2
  95   50   53 1
  96   50   59 am
  97   52   53 1
  98   52  192 1
  99   53   54 1
 100   53  193 1
 101   54   55 1
 102   54   56 1
 103   54  194 1
 104   55  195 1
 105   55  196 1
 106   55  197 1
 107   56  198 1
 108   57   58 2
 109   57   60 1
 110   57   70 am
 111   59   60 1
 112   59  199 1
 113   60   61 1
 114   60  200 1
 115   61   62 1
 116   61  201 1
 117   61  202 1
 118   62   63 1
 119   62  203 1
 120   62  204 1
 121   63   64 1
 122   63  205 1
 123   63  206 1
 124   64   65 1
 125   64  207 1
 126   65   66 2
 127   65   67 1
 128   66  208 1
 129   67  209 1
 130   67  210 1
 131   68   69 2
 132   68   71 1
 133   68   79 am
 134   70   71 1
 135   70  211 1
 136   71   72 1
 137   71  212 1
 138   72   73 1
 139   72  213 1
 140   72  214 1
 141   73   74 1
 142   73  215 1
 143   73  216 1
 144   74   75 2
 145   74   76 am
 146   76  217 1
 147   76  218 1
 148   77   78 2
 149   77   80 1
 150   77   88 am
 151   79   80 1
 152   79  219 1
 153   80   81 1
 154   80  220 1
 155   81   82 1
 156   81  221 1
 157   81  222 1
 158   82   83 1
 159   82  223 1
 160   82  224 1
 161   83   84 2
 162   83   85 am
 163   85  225 1
 164   85  226 1
 165   86   87 2
 166   86   89 1
 167   86  100 am
 168   88   89 1
 169   88  227 1
 170   89   90 1
 171   89  228 1
 172   90   91 1
 173   90  229 1
 174   90  230 1
 175   91   92 ar
 176   91   97 ar
 177   92   93 ar
 178   92  231 1
 179   93   94 ar
 180   93  232 1
 181   94   95 1
 182   94   96 ar
 183   95  233 1
 184   96   97 ar
 185   96  234 1
 186   97  235 1
 187   98   99 2
 188   98  101 1
 189   98  111 am
 190  100  101 1
 191  100  236 1
 192  101  102 1
 193  101  237 1
 194  102  103 1
 195  102  238 1
 196  102  239 1
 197  103  104 1
 198  103  240 1
 199  103  241 1
 200  104  105 1
 201  104  242 1
 202  104  243 1
 203  105  106 1
 204  105  244 1
 205  106  107 2
 206  106  108 1
 207  107  245 1
 208  108  246 1
 209  108  247 1
 210  109  110 2
 211  109  112 1
 212  109  120 am
 213  111  112 1
 214  111  248 1
 215  112  113 1
 216  112  249 1
 217  113  114 1
 218  113  250 1
 219  113  251 1
 220  114  115 1
 221  114  252 1
 222  114  253 1
 223  115  116 1
 224  115  254 1
 225  115  255 1
 226  116  117 1
 227  116  256 1
 228  116  257 1
 229  117  258 1
 230  117  259 1
 231  118  119 2
 232  118  121 1
 233  118  128 am
 234  120  121 1
 235  120  260 1
 236  121  122 1
 237  121  261 1
 238  122  123 1
 239  122  262 1
 240  122  263 1
 241  123  124 1
 242  123  125 1
 243  123  264 1
 244  124  265 1
 245  124  266 1
 246  124  267 1
 247  125  268 1
 248  125  269 1
 249  125  270 1
 250  126  127 2
 251  126  129 1
 252  126  131 1
 253  128  129 1
 254  128  271 1
 255  129  130 1
 256  129  272 1
 257  130  273 1
 258  130  274 1
 259  130  275 1
 260  131  276 1
 261  132  133 2
 262  132  148 1
 263  134  135 1
 264  134  277 1
 265  134  278 1
 266  134  279 1
 267  135  136 1
 268  135  280 1
 269  135  281 1
 270  136  137 1
 271  136  282 1
 272  136  283 1
 273  137  138 1
 274  137  284 1
 275  137  285 1
 276  138  139 1
 277  138  286 1
 278  138  287 1
 279  139  140 1
 280  139  288 1
 281  139  289 1
 282  140  141 1
 283  140  290 1
 284  140  291 1
 285  141  142 1
 286  141  292 1
 287  141  293 1
 288  142  143 1
 289  142  294 1
 290  142  295 1
 291  143  144 1
 292  143  296 1
 293  143  297 1
 294  144  145 1
 295  144  298 1
 296  144  299 1
 297  145  146 1
 298  145  300 1
 299  145  301 1
 300  146  147 1
 301  146  302 1
 302  146  303 1
 303  147  148 1
 304  147  304 1
 305  147  305 1
 306  148  306 1
 307  148  307 1

#	End of record

