#	Name: ASD00170398
#	Creating user name:	WinNT
#	Creation time:	15. 06. 2019 18:32

#	Modifying user name:	WinNT
#	Modification time:	15. 06. 2019 18:32

#	Program:	/corina/corina34_cracker 3.40 0067  02.08.2006

@<TRIPOS>MOLECULE
ASD00170398
  33   35    0    0    0
SMALL
NO_CHARGES


@<TRIPOS>ATOM
   1 C1             0.0026     0.7815     0.3497 C.2     
   2 C2             0.1718    -0.5409     0.5363 C.2     
   3 S3            -1.4042    -1.3052     0.7361 S.3     
   4 C4            -2.1879     0.2583     0.5475 C.2     
   5 N5            -1.2918     1.1692     0.3680 N.2     
   6 N6            -3.5551     0.4784     0.5900 N.pl3   
   7 C7             1.3405     1.4307     0.1805 C.ar    
   8 C8             2.3395     0.4688     0.2685 C.ar    
   9 C9             1.6522    -0.8523     0.5016 C.3     
  10 C10            1.6824     2.7659    -0.0363 C.ar    
  11 C11            3.0135     3.1245    -0.1625 C.ar    
  12 C12            4.0096     2.1580    -0.0737 C.ar    
  13 C13            3.6693     0.8263     0.1429 C.ar    
  14 O14            3.3481     4.4255    -0.3743 O.3     
  15 C15            2.2755     5.3663    -0.4555 C.3     
  16 O16            5.3171     2.5146    -0.1988 O.3     
  17 C17            5.8713     2.4966    -1.5158 C.3     
  18 O18            4.6415    -0.1207     0.2305 O.3     
  19 C19            5.1682    -0.3914     1.5311 C.3     
  20 H20           -4.1617    -0.2648     0.7334 H       
  21 H21           -3.9057     1.3756     0.4763 H       
  22 H22            1.9697    -1.2794     1.4529 H       
  23 H23            1.8733    -1.5410    -0.3138 H       
  24 H24            0.9103     3.5178    -0.1059 H       
  25 H25            1.6163     5.0954    -1.2803 H       
  26 H26            1.7125     5.3569     0.4778 H       
  27 H27            2.6796     6.3642    -0.6261 H       
  28 H28            5.8246     1.4837    -1.9158 H       
  29 H29            5.3020     3.1678    -2.1588 H       
  30 H30            6.9101     2.8245    -1.4773 H       
  31 H31            5.9510    -1.1461     1.4562 H       
  32 H32            5.5847     0.5237     1.9520 H       
  33 H33            4.3705    -0.7582     2.1770 H       
@<TRIPOS>BOND
   1    1    2 2
   2    1    7 1
   3    1    5 1
   4    2    3 1
   5    2    9 1
   6    3    4 1
   7    4    5 2
   8    4    6 1
   9    6   20 1
  10    6   21 1
  11    7    8 ar
  12    7   10 ar
  13    8    9 1
  14    8   13 ar
  15    9   22 1
  16    9   23 1
  17   10   11 ar
  18   10   24 1
  19   11   12 ar
  20   11   14 1
  21   12   13 ar
  22   12   16 1
  23   13   18 1
  24   14   15 1
  25   15   25 1
  26   15   26 1
  27   15   27 1
  28   16   17 1
  29   17   28 1
  30   17   29 1
  31   17   30 1
  32   18   19 1
  33   19   31 1
  34   19   32 1
  35   19   33 1

#	End of record

