#	Name: ASD05720320
#	Creating user name:	WinNT
#	Creation time:	15. 06. 2019 21:02

#	Modifying user name:	WinNT
#	Modification time:	15. 06. 2019 21:02

#	Program:	/corina/corina34_cracker 3.40 0067  02.08.2006

@<TRIPOS>MOLECULE
ASD05720320
  66   70    0    0    0
SMALL
NO_CHARGES


@<TRIPOS>ATOM
   1 N1             0.4688     2.1737    -0.0227 N.am    
   2 C2             0.2400     0.7262     0.0832 C.3     
   3 C3             1.0796     0.1778     1.2413 C.3     
   4 C4             2.5445     0.5690     1.0340 C.3     
   5 C5             2.6707     2.0942     1.0259 C.3     
   6 C6             1.8492     2.6644    -0.1346 C.3     
   7 C7            -0.5682     3.0346    -0.0230 C.2     
   8 O8            -1.7055     2.6159     0.0650 O.2     
   9 O9            -0.3439     4.3585    -0.1207 O.3     
  10 C10            5.9930    -2.2808     1.1314 C.ar    
  11 N11            4.9748    -1.4569     0.9482 N.ar    
  12 C12            4.3921    -0.8574     1.9830 C.ar    
  13 C13            4.8777    -1.1143     3.2819 C.ar    
  14 C14            5.9655    -1.9997     3.4275 C.ar    
  15 N15            6.4829    -2.5522     2.3342 N.ar    
  16 N16            3.2003     0.2998     3.4856 N.2     
  17 N17            3.3555     0.0180     2.1226 N.pl3   
  18 C18            4.0879    -0.3590     4.1748 C.2     
  19 O19            8.6448    -3.4696    -1.7692 O.3     
  20 C20            8.2415    -4.4584    -0.8179 C.3     
  21 C21            7.6773    -3.7637     0.4242 C.3     
  22 N22            6.5656    -2.8875     0.0269 N.3     
  23 C23            7.0157    -1.8856    -0.9504 C.3     
  24 C24            7.5865    -2.5992    -2.1787 C.3     
  25 C25            6.5178    -2.3071     4.7652 C.ar    
  26 C26            7.0069    -3.5847     5.0432 C.ar    
  27 C27            7.5205    -3.8680     6.2897 C.ar    
  28 C28            7.5517    -2.8830     7.2707 C.ar    
  29 C29            7.0653    -1.6094     6.9967 C.ar    
  30 C30            6.5561    -1.3185     5.7501 C.ar    
  31 N31            8.0721    -3.1734     8.5337 N.am    
  32 C32            9.1226    -4.0092     8.6538 C.2     
  33 N33            9.6842    -4.2165     9.8613 N.am    
  34 O34            9.5636    -4.5761     7.6728 O.2     
  35 C35           10.8261    -5.1250     9.9918 C.3     
  36 C36           -1.5079     5.2265    -0.1146 C.3     
  37 H37           -0.8160     0.5363     0.2754 H       
  38 H38            0.5375     0.2402    -0.8460 H       
  39 H39            0.7205     0.5968     2.1813 H       
  40 H40            0.9937    -0.9085     1.2703 H       
  41 H41            2.8957     0.1705     0.0822 H       
  42 H42            2.2967     2.4952     1.9679 H       
  43 H43            3.7173     2.3720     0.9017 H       
  44 H44            2.2779     2.3365    -1.0816 H       
  45 H45            1.8549     3.7533    -0.0861 H       
  46 H46            4.2002    -0.3320     5.2486 H       
  47 H47            7.4747    -5.0958    -1.2583 H       
  48 H48            9.1022    -5.0650    -0.5363 H       
  49 H49            7.3161    -4.5135     1.1281 H       
  50 H50            8.4595    -3.1684     0.8951 H       
  51 H51            6.1715    -1.2645    -1.2498 H       
  52 H52            7.7873    -1.2603    -0.5014 H       
  53 H53            7.9735    -1.8612    -2.8813 H       
  54 H54            6.8006    -3.1825    -2.6587 H       
  55 H55            6.9823    -4.3504     4.2820 H       
  56 H56            7.8990    -4.8563     6.5054 H       
  57 H57            7.0904    -0.8464     7.7607 H       
  58 H58            6.1826    -0.3279     5.5365 H       
  59 H59            7.6776    -2.7736     9.3245 H       
  60 H60            9.3324    -3.7642    10.6439 H       
  61 H61           10.5363    -6.1225     9.6614 H       
  62 H62           11.6501    -4.7636     9.3767 H       
  63 H63           11.1413    -5.1649    11.0344 H       
  64 H64           -2.1526     4.9757    -0.9569 H       
  65 H65           -2.0577     5.0905     0.8168 H       
  66 H66           -1.1873     6.2648    -0.1989 H       
@<TRIPOS>BOND
   1    1    2 1
   2    1    6 1
   3    1    7 am
   4    2    3 1
   5    2   37 1
   6    2   38 1
   7    3    4 1
   8    3   39 1
   9    3   40 1
  10    4    5 1
  11    4   17 1
  12    4   41 1
  13    5    6 1
  14    5   42 1
  15    5   43 1
  16    6   44 1
  17    6   45 1
  18    7    8 2
  19    7    9 1
  20    9   36 1
  21   10   11 ar
  22   10   15 ar
  23   10   22 1
  24   11   12 ar
  25   12   13 ar
  26   12   17 1
  27   13   14 ar
  28   13   18 1
  29   14   15 ar
  30   14   25 1
  31   16   17 1
  32   16   18 2
  33   18   46 1
  34   19   20 1
  35   19   24 1
  36   20   21 1
  37   20   47 1
  38   20   48 1
  39   21   22 1
  40   21   49 1
  41   21   50 1
  42   22   23 1
  43   23   24 1
  44   23   51 1
  45   23   52 1
  46   24   53 1
  47   24   54 1
  48   25   26 ar
  49   25   30 ar
  50   26   27 ar
  51   26   55 1
  52   27   28 ar
  53   27   56 1
  54   28   29 ar
  55   28   31 1
  56   29   30 ar
  57   29   57 1
  58   30   58 1
  59   31   32 am
  60   31   59 1
  61   32   33 am
  62   32   34 2
  63   33   35 1
  64   33   60 1
  65   35   61 1
  66   35   62 1
  67   35   63 1
  68   36   64 1
  69   36   65 1
  70   36   66 1

#	End of record

