#	Name: ASD02820011
#	Creating user name:	WinNT
#	Creation time:	15. 06. 2019 20:26

#	Modifying user name:	WinNT
#	Modification time:	15. 06. 2019 20:26

#	Program:	/corina/corina34_cracker 3.40 0067  02.08.2006

@<TRIPOS>MOLECULE
ASD02820011
  65   69    0    0    0
SMALL
NO_CHARGES


@<TRIPOS>ATOM
   1 C1             4.3037     1.4414    -1.1959 C.2     
   2 C2             4.6274     2.8422    -0.8705 C.ar    
   3 C3             3.6422     3.6299    -0.2486 C.ar    
   4 N4             2.4147     3.0407     0.0322 N.pl3   
   5 C5             2.3757     1.5995     0.3086 C.3     
   6 N6             3.2049     0.8757    -0.6548 N.am    
   7 C7             5.8719     3.3942    -1.1629 C.ar    
   8 C8             6.1238     4.7118    -0.8411 C.ar    
   9 C9             5.1495     5.4860    -0.2307 C.ar    
  10 C10            3.9105     4.9509     0.0657 C.ar    
  11 C11            2.8914     1.3445     1.7015 C.ar    
  12 C12            2.6217     2.2475     2.7135 C.ar    
  13 C13            3.0936     2.0163     3.9908 C.ar    
  14 C14            3.8384     0.8766     4.2583 C.ar    
  15 C15            4.1071    -0.0279     3.2416 C.ar    
  16 C16            3.6284     0.2054     1.9666 C.ar    
  17 O17            5.0165     0.8044    -1.9475 O.2     
  18 C18            2.8350    -0.4886    -1.0397 C.3     
  19 C19            1.9612    -0.4449    -2.2668 C.ar    
  20 C20            4.9161    -1.2666     3.5285 C.3     
  21 O21            5.0553    -2.0327     2.3303 O.3     
  22 O22            4.3042     0.6471     5.5142 O.3     
  23 C23            3.9894     1.6214     6.5110 C.3     
  24 C24            5.7631    -3.1896     2.4164 C.ar    
  25 C25            7.8509    -4.3606     2.2896 C.ar    
  26 C26            7.1337    -3.1833     2.2015 C.ar    
  27 C27            5.1173    -4.3780     2.7251 C.ar    
  28 C28            5.8390    -5.5527     2.8120 C.ar    
  29 C29            7.2040    -5.5447     2.5917 C.ar    
  30 C30            7.8393    -1.8932     1.8716 C.3     
  31 C31            3.6296    -4.3874     2.9658 C.3     
  32 C32            0.4520    -0.3652    -4.5281 C.ar    
  33 C33           -0.1840    -0.3929    -3.3012 C.ar    
  34 C34            0.5799    -0.4334    -2.1451 C.ar    
  35 C35            2.5264    -0.4101    -3.5273 C.ar    
  36 N36            1.7682    -0.3719    -4.6057 N.ar    
  37 H37            1.6021     3.5703     0.0454 H       
  38 H38            1.3472     1.2460     0.2369 H       
  39 H39            6.6346     2.7949    -1.6379 H       
  40 H40            7.0879     5.1434    -1.0662 H       
  41 H41            5.3604     6.5164     0.0149 H       
  42 H42            3.1558     5.5598     0.5412 H       
  43 H43            2.0420     3.1345     2.5048 H       
  44 H44            2.8833     2.7222     4.7807 H       
  45 H45            3.8340    -0.5006     1.1756 H       
  46 H46            3.7363    -1.0622    -1.2558 H       
  47 H47            2.2904    -0.9617    -0.2226 H       
  48 H48            5.9025    -0.9799     3.8931 H       
  49 H49            4.4087    -1.8647     4.2853 H       
  50 H50            4.4200     1.3173     7.4651 H       
  51 H51            4.4011     2.5872     6.2179 H       
  52 H52            2.9070     1.7029     6.6104 H       
  53 H53            8.9179    -4.3562     2.1223 H       
  54 H54            5.3368    -6.4780     3.0527 H       
  55 H55            7.7665    -6.4641     2.6598 H       
  56 H56            7.8528    -1.7525     0.7908 H       
  57 H57            7.3132    -1.0613     2.3397 H       
  58 H58            8.8624    -1.9327     2.2457 H       
  59 H59            3.1102    -4.5621     2.0236 H       
  60 H60            3.3806    -5.1808     3.6705 H       
  61 H61            3.3221    -3.4261     3.3775 H       
  62 H62           -0.1359    -0.3336    -5.4335 H       
  63 H63           -1.2625    -0.3869    -3.2440 H       
  64 H64            0.1104    -0.4557    -1.1727 H       
  65 H65            3.6014    -0.4140    -3.6304 H       
@<TRIPOS>BOND
   1    1    2 1
   2    1    6 am
   3    1   17 2
   4    2    3 ar
   5    2    7 ar
   6    3    4 1
   7    3   10 ar
   8    4    5 1
   9    4   37 1
  10    5    6 1
  11    5   11 1
  12    5   38 1
  13    6   18 1
  14    7    8 ar
  15    7   39 1
  16    8    9 ar
  17    8   40 1
  18    9   10 ar
  19    9   41 1
  20   10   42 1
  21   11   12 ar
  22   11   16 ar
  23   12   13 ar
  24   12   43 1
  25   13   14 ar
  26   13   44 1
  27   14   15 ar
  28   14   22 1
  29   15   16 ar
  30   15   20 1
  31   16   45 1
  32   18   19 1
  33   18   46 1
  34   18   47 1
  35   19   35 ar
  36   19   34 ar
  37   20   21 1
  38   20   48 1
  39   20   49 1
  40   21   24 1
  41   22   23 1
  42   23   50 1
  43   23   51 1
  44   23   52 1
  45   24   27 ar
  46   24   26 ar
  47   25   26 ar
  48   25   29 ar
  49   25   53 1
  50   26   30 1
  51   27   28 ar
  52   27   31 1
  53   28   29 ar
  54   28   54 1
  55   29   55 1
  56   30   56 1
  57   30   57 1
  58   30   58 1
  59   31   59 1
  60   31   60 1
  61   31   61 1
  62   32   33 ar
  63   32   36 ar
  64   32   62 1
  65   33   34 ar
  66   33   63 1
  67   34   64 1
  68   35   36 ar
  69   35   65 1

#	End of record

