#	Name: ASD01900139
#	Creating user name:	WinNT
#	Creation time:	15. 06. 2019 19:51

#	Modifying user name:	WinNT
#	Modification time:	15. 06. 2019 19:51

#	Program:	/corina/corina34_cracker 3.40 0067  02.08.2006

@<TRIPOS>MOLECULE
ASD01900139
  41   43    0    0    0
SMALL
NO_CHARGES


@<TRIPOS>ATOM
   1 C1            -0.0230     1.3768    -0.1250 C.2     
   2 C2            -0.0231     0.2081    -0.8034 C.2     
   3 C3             1.3170    -0.1184    -1.0639 C.2     
   4 C4             2.0764     0.8803    -0.5245 C.2     
   5 O5             1.2438     1.7787     0.0410 O.3     
   6 C6             3.5401     0.9616    -0.5544 C.2     
   7 N7             4.1687     2.0069     0.0189 N.am    
   8 O8             4.1873     0.0852    -1.0969 O.2     
   9 C9             5.5666     2.0310     0.0873 C.ar    
  10 C10            6.2463     3.2361    -0.0301 C.ar    
  11 C11            7.6291     3.2591     0.0377 C.ar    
  12 C12            8.3354     2.0726     0.2237 C.ar    
  13 C13            7.6523     0.8706     0.3405 C.ar    
  14 C14            6.2726     0.8502     0.2783 C.ar    
  15 N15            9.7356     2.0931     0.2922 N.am    
  16 C16           10.4422     0.9909    -0.0274 C.2     
  17 O17            8.2968     4.4380    -0.0774 O.3     
  18 C18            7.5081     5.6145    -0.2667 C.3     
  19 C19           11.9073     0.9720     0.1619 C.ar    
  20 O20            9.8739     0.0120    -0.4714 O.2     
  21 C21           12.6430    -0.1689    -0.1683 C.ar    
  22 C22           14.0127    -0.1788     0.0115 C.ar    
  23 C23           14.6544     0.9367     0.5173 C.ar    
  24 C24           13.9309     2.0700     0.8462 C.ar    
  25 C25           12.5640     2.0964     0.6662 C.ar    
  26 Cl26          11.8381    -1.5703    -0.8023 Cl      
  27 H27           -0.9003     1.9026     0.2219 H       
  28 H28           -0.8910    -0.3667    -1.0910 H       
  29 H29            1.6776    -0.9906    -1.5889 H       
  30 H30            3.6525     2.7424     0.3840 H       
  31 H31            5.6969     4.1546    -0.1745 H       
  32 H32            8.1996    -0.0493     0.4842 H       
  33 H33            5.7426    -0.0864     0.3694 H       
  34 H34           10.1957     2.9007     0.5696 H       
  35 H35            6.9250     5.5175    -1.1825 H       
  36 H36            6.8348     5.7408     0.5811 H       
  37 H37            8.1630     6.4825    -0.3432 H       
  38 H38           14.5833    -1.0597    -0.2431 H       
  39 H39           15.7253     0.9235     0.6566 H       
  40 H40           14.4390     2.9375     1.2408 H       
  41 H41           12.0013     2.9816     0.9235 H       
@<TRIPOS>BOND
   1    1    2 2
   2    1    5 1
   3    1   27 1
   4    2    3 1
   5    2   28 1
   6    3    4 2
   7    3   29 1
   8    4    5 1
   9    4    6 1
  10    6    7 am
  11    6    8 2
  12    7    9 1
  13    7   30 1
  14    9   10 ar
  15    9   14 ar
  16   10   11 ar
  17   10   31 1
  18   11   12 ar
  19   11   17 1
  20   12   13 ar
  21   12   15 1
  22   13   14 ar
  23   13   32 1
  24   14   33 1
  25   15   16 am
  26   15   34 1
  27   16   19 1
  28   16   20 2
  29   17   18 1
  30   18   35 1
  31   18   36 1
  32   18   37 1
  33   19   21 ar
  34   19   25 ar
  35   21   22 ar
  36   21   26 1
  37   22   23 ar
  38   22   38 1
  39   23   24 ar
  40   23   39 1
  41   24   25 ar
  42   24   40 1
  43   25   41 1

#	End of record

