#	Name: ASD01915078
#	Creating user name:	WinNT
#	Creation time:	15. 06. 2019 20:04

#	Modifying user name:	WinNT
#	Modification time:	15. 06. 2019 20:04

#	Program:	/corina/corina34_cracker 3.40 0067  02.08.2006

@<TRIPOS>MOLECULE
ASD01915078
  45   48    0    0    0
SMALL
NO_CHARGES


@<TRIPOS>ATOM
   1 C1            -0.0168     1.3908     0.0097 C.ar    
   2 C2             0.0021    -0.0041     0.0020 C.ar    
   3 N3            -1.1446    -0.6911     0.0097 N.ar    
   4 C4            -2.3175    -0.0898     0.0245 C.ar    
   5 C5            -2.4077     1.3022     0.0324 C.ar    
   6 C6            -1.2660     2.0496     0.0306 C.ar    
   7 C7             1.3294     1.9570    -0.0001 C.2     
   8 C8             2.3061     1.0536    -0.0143 C.2     
   9 S9             1.6657    -0.5776    -0.0169 S.3     
  10 C10            1.5863     3.4166     0.0045 C.ar    
  11 C11            1.2162     4.1887     1.1050 C.ar    
  12 S12            4.0236     1.4470    -0.0295 S.o2    
  13 O13            4.6882     0.3211    -0.5861 O.2     
  14 O14            4.1303     2.7574    -0.5686 O.2     
  15 C15            4.5488     1.5552     1.6489 C.ar    
  16 C16            5.0220     0.4305     2.2987 C.ar    
  17 C17            4.4927     2.7660     2.3137 C.ar    
  18 C18            4.9050     2.8516     3.6302 C.ar    
  19 C19            5.3733     1.7251     4.2828 C.ar    
  20 C20            5.4336     0.5146     3.6154 C.ar    
  21 C21            1.4576     5.5472     1.1041 C.ar    
  22 C22            2.0657     6.1440     0.0128 C.ar    
  23 C23            2.4348     5.3821    -1.0827 C.ar    
  24 C24            2.2041     4.0218    -1.0894 C.ar    
  25 Cl25           2.3660     7.8538     0.0180 Cl      
  26 Cl26           5.8913     1.8318     5.9362 Cl      
  27 N27           -3.4797    -0.8528     0.0319 N.pl3   
  28 C28           -4.7867    -0.1976    -0.0622 C.3     
  29 C29           -3.3975    -2.3119     0.1339 C.3     
  30 H30           -3.3738     1.7847     0.0442 H       
  31 H31           -1.3169     3.1283     0.0369 H       
  32 H32            0.7411     3.7243     1.9565 H       
  33 H33            5.0696    -0.5142     1.7774 H       
  34 H34            4.1271     3.6452     1.8042 H       
  35 H35            4.8618     3.7977     4.1493 H       
  36 H36            5.7988    -0.3651     4.1244 H       
  37 H37            1.1713     6.1461     1.9560 H       
  38 H38            2.9082     5.8527    -1.9317 H       
  39 H39            2.4924     3.4284    -1.9444 H       
  40 H40           -5.0718    -0.1045    -1.1101 H       
  41 H41           -5.5310    -0.7942     0.4652 H       
  42 H42           -4.7296     0.7933     0.3882 H       
  43 H43           -3.4161    -2.6044     1.1837 H       
  44 H44           -4.2455    -2.7607    -0.3834 H       
  45 H45           -2.4696    -2.6563    -0.3229 H       
@<TRIPOS>BOND
   1    1    2 ar
   2    1    7 1
   3    1    6 ar
   4    2    3 ar
   5    2    9 1
   6    3    4 ar
   7    4    5 ar
   8    4   27 1
   9    5    6 ar
  10    5   30 1
  11    6   31 1
  12    7    8 2
  13    7   10 1
  14    8    9 1
  15    8   12 1
  16   10   11 ar
  17   10   24 ar
  18   11   21 ar
  19   11   32 1
  20   12   13 2
  21   12   14 2
  22   12   15 1
  23   15   16 ar
  24   15   17 ar
  25   16   20 ar
  26   16   33 1
  27   17   18 ar
  28   17   34 1
  29   18   19 ar
  30   18   35 1
  31   19   20 ar
  32   19   26 1
  33   20   36 1
  34   21   22 ar
  35   21   37 1
  36   22   23 ar
  37   22   25 1
  38   23   24 ar
  39   23   38 1
  40   24   39 1
  41   27   28 1
  42   27   29 1
  43   28   40 1
  44   28   41 1
  45   28   42 1
  46   29   43 1
  47   29   44 1
  48   29   45 1

#	End of record

