#	Name: ASD01470024
#	Creating user name:	WinNT
#	Creation time:	15. 06. 2019 19:21

#	Modifying user name:	WinNT
#	Modification time:	15. 06. 2019 19:21

#	Program:	/corina/corina34_cracker 3.40 0067  02.08.2006

@<TRIPOS>MOLECULE
ASD01470024
  83   88    0    0    0
SMALL
NO_CHARGES


@<TRIPOS>ATOM
   1 N1            -1.5808     1.9417     0.3257 N.am    
   2 C2            -0.2445     1.5451    -0.1098 C.3     
   3 C3             0.4013     0.5976     0.9110 C.3     
   4 C4             0.0010    -0.8504     0.6736 C.3     
   5 C5            -1.3961    -0.9530     0.0844 C.3     
   6 N6            -2.3633    -0.2270     0.9086 N.am    
   7 C7            -2.4722     1.1114     0.8429 C.2     
   8 O8            -3.4890     1.6038     1.2922 O.2     
   9 C9            -3.2268    -0.9723     1.8279 C.3     
  10 C10           -1.9568     3.3507     0.1865 C.3     
  11 C11           -1.6648     4.0781     1.4736 C.ar    
  12 C12           -2.5982    -0.9989     3.1973 C.ar    
  13 C13           -2.7561     0.0674     4.0342 C.ar    
  14 C14           -2.1723     0.0414     5.3058 C.ar    
  15 C15           -1.4284    -1.0846     5.7080 C.ar    
  16 C16           -1.2848    -2.1581     4.8322 C.ar    
  17 C17           -1.8682    -2.1113     3.5980 C.ar    
  18 C18           -0.3945     4.5660     1.7183 C.ar    
  19 C19           -0.1224     5.2345     2.8981 C.ar    
  20 C20           -1.1193     5.4168     3.8359 C.ar    
  21 C21           -2.3969     4.9278     3.5933 C.ar    
  22 C22           -2.6680     4.2616     2.4052 C.ar    
  23 C23           -2.1379     0.9769     6.4253 C.2     
  24 N24           -1.4373     0.4314     7.3781 N.2     
  25 N25           -0.9848    -0.8307     6.9795 N.pl3   
  26 C26           -0.3446     0.8366    -1.4622 C.3     
  27 O27            1.8226     0.7084     0.8129 O.3     
  28 C28            0.4253     1.6168    -2.4963 C.ar    
  29 C29            1.7347     1.2792    -2.7834 C.ar    
  30 C30            2.4410     1.9950    -3.7319 C.ar    
  31 C31            1.8377     3.0480    -4.3938 C.ar    
  32 C32            0.5280     3.3851    -4.1074 C.ar    
  33 C33           -0.1796     2.6666    -3.1619 C.ar    
  34 C34           -1.8040    -2.4257     0.0083 C.3     
  35 O35            0.0365    -1.5544     1.9166 O.3     
  36 C36           -0.8926    -3.1506    -0.9483 C.ar    
  37 C37            0.2969    -3.6897    -0.4953 C.ar    
  38 C38            1.1329    -4.3546    -1.3727 C.ar    
  39 C39            0.7792    -4.4807    -2.7031 C.ar    
  40 C40           -0.4108    -3.9423    -3.1559 C.ar    
  41 C41           -1.2488    -3.2812    -2.2775 C.ar    
  42 N42           -3.4076     5.1101     4.5400 N.pl3   
  43 C43           -3.1533     5.9152     5.7372 C.3     
  44 C44           -4.7219     4.4961     4.3357 C.3     
  45 H45            0.3768     2.4343    -0.2174 H       
  46 H46            0.0896     0.8913     1.9133 H       
  47 H47            0.7121    -1.3084    -0.0139 H       
  48 H48           -1.3935    -0.5318    -0.9210 H       
  49 H49           -4.2013    -0.4872     1.8847 H       
  50 H50           -3.3495    -1.9926     1.4645 H       
  51 H51           -1.3835     3.8015    -0.6236 H       
  52 H52           -3.0210     3.4224    -0.0380 H       
  53 H53           -3.3281     0.9267     3.7168 H       
  54 H54           -0.7163    -3.0268     5.1295 H       
  55 H55           -1.7544    -2.9462     2.9224 H       
  56 H56            0.3872     4.4245     0.9866 H       
  57 H57            0.8711     5.6141     3.0862 H       
  58 H58           -0.9061     5.9386     4.7571 H       
  59 H59           -3.6601     3.8802     2.2134 H       
  60 H60           -2.6092     1.9480     6.4579 H       
  61 H61           -0.4439    -1.4302     7.5169 H       
  62 H62            0.0732    -0.1667    -1.3786 H       
  63 H63           -1.3907     0.7707    -1.7612 H       
  64 H64            2.3049     0.1388     1.4278 H       
  65 H65            2.2060     0.4565    -2.2663 H       
  66 H66            3.4642     1.7317    -3.9557 H       
  67 H67            2.3897     3.6077    -5.1344 H       
  68 H68            0.0568     4.2080    -4.6242 H       
  69 H69           -1.2029     2.9299    -2.9382 H       
  70 H70           -1.7246    -2.8762     0.9977 H       
  71 H71           -2.8330    -2.5000    -0.3433 H       
  72 H72            0.9056    -1.5607     2.3405 H       
  73 H73            0.5733    -3.5912     0.5441 H       
  74 H74            2.0626    -4.7752    -1.0190 H       
  75 H75            1.4326    -4.9995    -3.3888 H       
  76 H76           -0.6870    -4.0406    -4.1953 H       
  77 H77           -2.1785    -2.8606    -2.6313 H       
  78 H78           -3.4525     6.9467     5.5517 H       
  79 H79           -3.7274     5.5150     6.5729 H       
  80 H80           -2.0907     5.8828     5.9779 H       
  81 H81           -4.7510     4.0169     3.3571 H       
  82 H82           -4.8991     3.7505     5.1108 H       
  83 H83           -5.4937     5.2641     4.3872 H       
@<TRIPOS>BOND
   1    1    2 1
   2    1   10 1
   3    1    7 am
   4    2    3 1
   5    2   26 1
   6    2   45 1
   7    3    4 1
   8    3   27 1
   9    3   46 1
  10    4    5 1
  11    4   35 1
  12    4   47 1
  13    5    6 1
  14    5   34 1
  15    5   48 1
  16    6    7 am
  17    6    9 1
  18    7    8 2
  19    9   12 1
  20    9   49 1
  21    9   50 1
  22   10   11 1
  23   10   51 1
  24   10   52 1
  25   11   18 ar
  26   11   22 ar
  27   12   13 ar
  28   12   17 ar
  29   13   14 ar
  30   13   53 1
  31   14   15 ar
  32   14   23 1
  33   15   16 ar
  34   15   25 1
  35   16   17 ar
  36   16   54 1
  37   17   55 1
  38   18   19 ar
  39   18   56 1
  40   19   20 ar
  41   19   57 1
  42   20   21 ar
  43   20   58 1
  44   21   22 ar
  45   21   42 1
  46   22   59 1
  47   23   24 2
  48   23   60 1
  49   24   25 1
  50   25   61 1
  51   26   28 1
  52   26   62 1
  53   26   63 1
  54   27   64 1
  55   28   29 ar
  56   28   33 ar
  57   29   30 ar
  58   29   65 1
  59   30   31 ar
  60   30   66 1
  61   31   32 ar
  62   31   67 1
  63   32   33 ar
  64   32   68 1
  65   33   69 1
  66   34   36 1
  67   34   70 1
  68   34   71 1
  69   35   72 1
  70   36   37 ar
  71   36   41 ar
  72   37   38 ar
  73   37   73 1
  74   38   39 ar
  75   38   74 1
  76   39   40 ar
  77   39   75 1
  78   40   41 ar
  79   40   76 1
  80   41   77 1
  81   42   43 1
  82   42   44 1
  83   43   78 1
  84   43   79 1
  85   43   80 1
  86   44   81 1
  87   44   82 1
  88   44   83 1

#	End of record

