#	Name: ASD02568001
#	Creating user name:	WinNT
#	Creation time:	15. 06. 2019 20:25

#	Modifying user name:	WinNT
#	Modification time:	15. 06. 2019 20:25

#	Program:	/corina/corina34_cracker 3.40 0067  02.08.2006

@<TRIPOS>MOLECULE
ASD02568001
  49   52    0    0    0
SMALL
NO_CHARGES


@<TRIPOS>ATOM
   1 N1            -0.0048     1.3371    -0.0003 N.pl3   
   2 C2             0.0077    -0.0073     0.0077 C.2     
   3 N3             1.1025    -0.7154     0.0308 N.2     
   4 C4             2.3193    -0.1386     0.0488 C.2     
   5 C5             2.3890     1.3335     0.0416 C.ar    
   6 C6             3.6028     2.0167     0.0584 C.ar    
   7 C7             3.6047     3.3946     0.0501 C.ar    
   8 C8             2.4097     4.1002     0.0252 C.ar    
   9 C9             1.2009     3.4371     0.0088 C.ar    
  10 C10            1.1781     2.0490     0.0163 C.ar    
  11 O11            3.3335    -0.8145     0.0708 O.2     
  12 C12           -1.3125    -0.7338    -0.0107 C.3     
  13 N13           -1.0739    -2.1833     0.0016 N.3     
  14 C14           -0.4605    -2.6050     1.2680 C.3     
  15 C15           -2.3168    -2.9235    -0.2536 C.3     
  16 C16           -1.9976    -4.3793    -0.4771 C.2     
  17 O17           -0.8426    -4.7450    -0.5343 O.2     
  18 N18           -2.9955    -5.2748    -0.6136 N.am    
  19 C19           -4.3941    -4.8707    -0.4144 C.3     
  20 C20           -5.0762    -5.9484     0.4386 C.3     
  21 C21           -5.0746    -7.2659    -0.3364 C.3     
  22 C22           -3.6873    -7.5882    -0.8257 C.ar    
  23 C23           -3.3820    -8.8974    -1.1596 C.ar    
  24 C24           -2.1194    -9.2243    -1.6142 C.ar    
  25 C25           -1.1508    -8.2449    -1.7393 C.ar    
  26 C26           -1.4467    -6.9381    -1.4076 C.ar    
  27 C27           -2.7170    -6.6058    -0.9537 C.ar    
  28 H28           -0.8512     1.8105    -0.0218 H       
  29 H29            4.5346     1.4711     0.0782 H       
  30 H30            4.5429     3.9295     0.0635 H       
  31 H31            2.4269     5.1800     0.0190 H       
  32 H32            0.2762     3.9948    -0.0098 H       
  33 H33           -1.8936    -0.4537     0.8679 H       
  34 H34           -1.8632    -0.4639    -0.9118 H       
  35 H35           -1.1244    -2.3530     2.0950 H       
  36 H36           -0.2948    -3.6822     1.2504 H       
  37 H37            0.4928    -2.0928     1.3983 H       
  38 H38           -2.9812    -2.8250     0.6049 H       
  39 H39           -2.8056    -2.5185    -1.1396 H       
  40 H40           -4.4313    -3.9120     0.1029 H       
  41 H41           -4.8961    -4.7905    -1.3786 H       
  42 H42           -4.5300    -6.0740     1.3735 H       
  43 H43           -6.1031    -5.6506     0.6505 H       
  44 H44           -5.4213    -8.0673     0.3160 H       
  45 H45           -5.7468    -7.1817    -1.1903 H       
  46 H46           -4.1345    -9.6661    -1.0637 H       
  47 H47           -1.8877   -10.2471    -1.8722 H       
  48 H48           -0.1644    -8.5023    -2.0957 H       
  49 H49           -0.6913    -6.1724    -1.5048 H       
@<TRIPOS>BOND
   1    1    2 1
   2    1   10 1
   3    1   28 1
   4    2    3 2
   5    2   12 1
   6    3    4 1
   7    4    5 1
   8    4   11 2
   9    5    6 ar
  10    5   10 ar
  11    6    7 ar
  12    6   29 1
  13    7    8 ar
  14    7   30 1
  15    8    9 ar
  16    8   31 1
  17    9   10 ar
  18    9   32 1
  19   12   13 1
  20   12   33 1
  21   12   34 1
  22   13   14 1
  23   13   15 1
  24   14   35 1
  25   14   36 1
  26   14   37 1
  27   15   16 1
  28   15   38 1
  29   15   39 1
  30   16   17 2
  31   16   18 am
  32   18   19 1
  33   18   27 1
  34   19   20 1
  35   19   40 1
  36   19   41 1
  37   20   21 1
  38   20   42 1
  39   20   43 1
  40   21   22 1
  41   21   44 1
  42   21   45 1
  43   22   23 ar
  44   22   27 ar
  45   23   24 ar
  46   23   46 1
  47   24   25 ar
  48   24   47 1
  49   25   26 ar
  50   25   48 1
  51   26   27 ar
  52   26   49 1

#	End of record

