#	Name: ASD02500261
#	Creating user name:	WinNT
#	Creation time:	15. 06. 2019 20:22

#	Modifying user name:	WinNT
#	Modification time:	15. 06. 2019 20:22

#	Program:	/corina/corina34_cracker 3.40 0067  02.08.2006

@<TRIPOS>MOLECULE
ASD02500261
  59   63    0    0    0
SMALL
NO_CHARGES


@<TRIPOS>ATOM
   1 N1            -1.5761     3.9794     2.2806 N.ar    
   2 C2            -2.7287     4.4945     2.6333 C.ar    
   3 C3            -3.4774     3.9664     3.6831 C.ar    
   4 C4            -3.0137     2.8832     4.3736 C.ar    
   5 C5            -1.7757     2.3323     3.9917 C.ar    
   6 C6            -1.2349     1.2194     4.6549 C.ar    
   7 C7            -0.0342     0.7161     4.2557 C.ar    
   8 C8             0.6657     1.2913     3.1973 C.ar    
   9 C9             0.1709     2.3709     2.5323 C.ar    
  10 C10           -1.0655     2.9192     2.9149 C.ar    
  11 S11            1.0773     3.0791     1.1976 S.o2    
  12 O12            1.1721     4.4704     1.4705 O.2     
  13 O13            2.2118     2.2474     0.9970 O.2     
  14 N14            0.1433     2.9319    -0.1619 N.am    
  15 C15           -0.2551     1.6731    -0.5988 C.ar    
  16 C16           -1.5857     1.4435    -0.9277 C.ar    
  17 C17           -1.9820     0.1914    -1.3628 C.ar    
  18 C18           -1.0346    -0.8394    -1.4688 C.ar    
  19 C19            0.3007    -0.5923    -1.1340 C.ar    
  20 C20            0.6822     0.6483    -0.7108 C.ar    
  21 O21           -3.2795    -0.0393    -1.6850 O.3     
  22 C22           -4.1859     1.0574    -1.5517 C.3     
  23 C23           -1.4453    -2.1758    -1.9302 C.2     
  24 O24           -2.3546    -2.7592    -1.3715 O.2     
  25 N25           -0.8138    -2.7526    -2.9718 N.am    
  26 C26           -1.2958    -4.0251    -3.5272 C.3     
  27 C27           -1.5488    -3.8400    -5.0285 C.3     
  28 N28           -0.3662    -3.2075    -5.6296 N.am    
  29 C29            0.1158    -1.9351    -5.0742 C.3     
  30 C30            0.3655    -2.1173    -3.5765 C.3     
  31 C31            0.2653    -3.7844    -6.6712 C.2     
  32 O32           -0.0605    -4.8966    -7.0395 O.2     
  33 S33            3.2181    -2.3529    -8.7861 S.3     
  34 N34            2.6475    -1.2967    -7.7835 N.2     
  35 N35            1.6886    -1.8062    -7.1168 N.2     
  36 C36            1.3511    -3.0669    -7.3642 C.2     
  37 C37            2.1419    -3.6227    -8.3489 C.2     
  38 H38           -3.1079     5.3513     2.0962 H       
  39 H39           -4.4234     4.4135     3.9507 H       
  40 H40           -3.5807     2.4613     5.1902 H       
  41 H41           -1.7678     0.7653     5.4772 H       
  42 H42            0.3810    -0.1401     4.7664 H       
  43 H43            1.6164     0.8741     2.9000 H       
  44 H44           -0.1259     3.7235    -0.6535 H       
  45 H45           -2.3091     2.2409    -0.8435 H       
  46 H46            1.0318    -1.3831    -1.2141 H       
  47 H47            1.7153     0.8352    -0.4574 H       
  48 H48           -5.1873     0.7382    -1.8405 H       
  49 H49           -4.1971     1.3956    -0.5155 H       
  50 H50           -3.8647     1.8748    -2.1973 H       
  51 H51           -0.5431    -4.7988    -3.3757 H       
  52 H52           -2.2237    -4.3120    -3.0325 H       
  53 H53           -1.7203    -4.8110    -5.4930 H       
  54 H54           -2.4200    -3.2019    -5.1767 H       
  55 H55            1.0437    -1.6481    -5.5690 H       
  56 H56           -0.6369    -1.1614    -5.2257 H       
  57 H57            0.5344    -1.1447    -3.1143 H       
  58 H58            1.2391    -2.7521    -3.4286 H       
  59 H59            2.0958    -4.6234    -8.7525 H       
@<TRIPOS>BOND
   1    1    2 ar
   2    1   10 ar
   3    2    3 ar
   4    2   38 1
   5    3    4 ar
   6    3   39 1
   7    4    5 ar
   8    4   40 1
   9    5    6 ar
  10    5   10 ar
  11    6    7 ar
  12    6   41 1
  13    7    8 ar
  14    7   42 1
  15    8    9 ar
  16    8   43 1
  17    9   10 ar
  18    9   11 1
  19   11   12 2
  20   11   13 2
  21   11   14 am
  22   14   15 1
  23   14   44 1
  24   15   16 ar
  25   15   20 ar
  26   16   17 ar
  27   16   45 1
  28   17   18 ar
  29   17   21 1
  30   18   19 ar
  31   18   23 1
  32   19   20 ar
  33   19   46 1
  34   20   47 1
  35   21   22 1
  36   22   48 1
  37   22   49 1
  38   22   50 1
  39   23   24 2
  40   23   25 am
  41   25   26 1
  42   25   30 1
  43   26   27 1
  44   26   51 1
  45   26   52 1
  46   27   28 1
  47   27   53 1
  48   27   54 1
  49   28   29 1
  50   28   31 am
  51   29   30 1
  52   29   55 1
  53   29   56 1
  54   30   57 1
  55   30   58 1
  56   31   32 2
  57   31   36 1
  58   33   34 1
  59   33   37 1
  60   34   35 2
  61   35   36 1
  62   36   37 2
  63   37   59 1

#	End of record

