#	Name: ASD01870271
#	Creating user name:	WinNT
#	Creation time:	15. 06. 2019 19:38

#	Modifying user name:	WinNT
#	Modification time:	15. 06. 2019 19:38

#	Program:	/corina/corina34_cracker 3.40 0067  02.08.2006

@<TRIPOS>MOLECULE
ASD01870271
  34   36    0    0    0
SMALL
NO_CHARGES


@<TRIPOS>ATOM
   1 C1             0.2072     1.5129     1.6712 C.ar    
   2 N2             0.2389     0.2083     1.8680 N.ar    
   3 C3             1.3499    -0.4921     1.7386 C.ar    
   4 C4             2.5355     0.1193     1.3890 C.ar    
   5 C5             2.5478     1.5009     1.1707 C.ar    
   6 C6             1.3474     2.2036     1.3185 C.ar    
   7 C7             3.7982     2.2009     0.7933 C.2     
   8 N8             4.9501     1.5619     0.6402 N.2     
   9 C9             3.8425     3.5286     0.5766 C.2     
  10 S10            5.4972     3.9625     0.1534 S.3     
  11 C11            5.9798     2.2760     0.3081 C.2     
  12 N12            7.2630     1.7868     0.1038 N.am    
  13 C13            7.5353     0.3561     0.2619 C.3     
  14 C14            8.2581     2.6282    -0.2401 C.2     
  15 C15            9.6425     2.1259    -0.3584 C.ar    
  16 O16            8.0166     3.8005    -0.4530 O.2     
  17 C17            9.8811     0.8310    -0.8232 C.ar    
  18 C18           10.7179     2.9461    -0.0114 C.ar    
  19 C19           12.0078     2.4716    -0.1245 C.ar    
  20 C20           12.2377     1.1847    -0.5815 C.ar    
  21 C21           11.1756     0.3681    -0.9319 C.ar    
  22 Br22          14.0097     0.5424    -0.7347 Br      
  23 H23           -0.7253     2.0461     1.7835 H       
  24 H24            1.3305    -1.5583     1.9092 H       
  25 H25            3.4411    -0.4600     1.2856 H       
  26 H26            1.3141     3.2712     1.1587 H       
  27 H27            3.0080     4.2103     0.6492 H       
  28 H28            7.4188    -0.1444    -0.6994 H       
  29 H29            8.5547     0.2179     0.6222 H       
  30 H30            6.8351    -0.0698     0.9805 H       
  31 H31            9.0536     0.1932    -1.0968 H       
  32 H32           10.5400     3.9501     0.3445 H       
  33 H33           12.8405     3.1050     0.1437 H       
  34 H34           11.3614    -0.6334    -1.2909 H       
@<TRIPOS>BOND
   1    1    2 ar
   2    1    6 ar
   3    1   23 1
   4    2    3 ar
   5    3    4 ar
   6    3   24 1
   7    4    5 ar
   8    4   25 1
   9    5    6 ar
  10    5    7 1
  11    6   26 1
  12    7    9 2
  13    7    8 1
  14    8   11 2
  15    9   10 1
  16    9   27 1
  17   10   11 1
  18   11   12 1
  19   12   13 1
  20   12   14 am
  21   13   28 1
  22   13   29 1
  23   13   30 1
  24   14   15 1
  25   14   16 2
  26   15   18 ar
  27   15   17 ar
  28   17   21 ar
  29   17   31 1
  30   18   19 ar
  31   18   32 1
  32   19   20 ar
  33   19   33 1
  34   20   21 ar
  35   20   22 1
  36   21   34 1

#	End of record

