#	Name: ASD01916253
#	Creating user name:	WinNT
#	Creation time:	15. 06. 2019 20:07

#	Modifying user name:	WinNT
#	Modification time:	15. 06. 2019 20:07

#	Program:	/corina/corina34_cracker 3.40 0067  02.08.2006

@<TRIPOS>MOLECULE
ASD01916253
  34   36    0    0    0
SMALL
NO_CHARGES


@<TRIPOS>ATOM
   1 C1            -0.0525     1.3263    -0.2459 C.ar    
   2 C2             0.0330    -0.0535    -0.1710 C.ar    
   3 C3             1.2282    -0.6576     0.1719 C.ar    
   4 C4             2.3516     0.1248     0.4433 C.ar    
   5 C5             2.2627     1.5152     0.3671 C.ar    
   6 C6             1.0608     2.1111     0.0228 C.ar    
   7 O7             0.9713     3.4650    -0.0522 O.3     
   8 C8             1.4673     4.0768    -1.1597 C.ar    
   9 C9             1.4021     5.4593    -1.3008 C.ar    
  10 N10            1.8965     6.0171    -2.3936 N.ar    
  11 C11            2.4446     5.2816    -3.3398 C.ar    
  12 N12            2.5248     3.9697    -3.2434 N.ar    
  13 C13            2.0585     3.3374    -2.1790 C.ar    
  14 F14           -1.0543    -0.8113    -0.4332 F       
  15 C15            3.6313    -0.5174     0.8107 C.2     
  16 N16            3.7147    -1.8605     0.8841 N.am    
  17 O17            4.6085     0.1660     1.0467 O.2     
  18 C18            4.9438    -2.4700     1.1260 C.ar    
  19 C19            5.0449    -3.8552     1.0849 C.ar    
  20 C20            6.2719    -4.4497     1.3271 C.ar    
  21 C21            7.3596    -3.6350     1.6030 C.ar    
  22 C22            7.1879    -2.2613     1.6281 C.ar    
  23 N23            6.0059    -1.7233     1.3876 N.ar    
  24 F24            8.2432    -1.4615     1.8962 F       
  25 H25           -0.9873     1.7936    -0.5186 H       
  26 H26            1.2925    -1.7342     0.2300 H       
  27 H27            3.1289     2.1253     0.5765 H       
  28 H28            0.9540     6.0682    -0.5295 H       
  29 H29            2.8391     5.7679    -4.2197 H       
  30 H30            2.1279     2.2621    -2.1065 H       
  31 H31            2.9188    -2.4029     0.7685 H       
  32 H32            4.1774    -4.4606     0.8673 H       
  33 H33            6.3792    -5.5241     1.3019 H       
  34 H34            8.3301    -4.0673     1.7966 H       
@<TRIPOS>BOND
   1    1    2 ar
   2    1    6 ar
   3    1   25 1
   4    2    3 ar
   5    2   14 1
   6    3    4 ar
   7    3   26 1
   8    4    5 ar
   9    4   15 1
  10    5    6 ar
  11    5   27 1
  12    6    7 1
  13    7    8 1
  14    8    9 ar
  15    8   13 ar
  16    9   10 ar
  17    9   28 1
  18   10   11 ar
  19   11   12 ar
  20   11   29 1
  21   12   13 ar
  22   13   30 1
  23   15   16 am
  24   15   17 2
  25   16   18 1
  26   16   31 1
  27   18   19 ar
  28   18   23 ar
  29   19   20 ar
  30   19   32 1
  31   20   21 ar
  32   20   33 1
  33   21   22 ar
  34   21   34 1
  35   22   23 ar
  36   22   24 1

#	End of record

