#	Name: ASD01884967
#	Creating user name:	WinNT
#	Creation time:	15. 06. 2019 19:49

#	Modifying user name:	WinNT
#	Modification time:	15. 06. 2019 19:49

#	Program:	/corina/corina34_cracker 3.40 0067  02.08.2006

@<TRIPOS>MOLECULE
ASD01884967
  45   48    0    0    0
SMALL
NO_CHARGES


@<TRIPOS>ATOM
   1 C1            -0.0166     1.3745     0.0096 C.ar    
   2 C2             0.0021    -0.0041     0.0020 C.ar    
   3 C3            -1.1977    -0.7168     0.0101 C.ar    
   4 C4            -2.4129    -0.0322     0.0259 C.ar    
   5 C5            -2.4266     1.3463     0.0334 C.ar    
   6 C6            -1.2307     2.0546     0.0307 C.ar    
   7 C7            -1.1808    -2.1979     0.0015 C.2     
   8 C8            -1.6661    -2.9078     1.0839 C.2     
   9 C9            -0.6726    -2.9008    -1.1182 C.2     
  10 C10           -0.6580    -4.2468    -1.1239 C.2     
  11 N11           -1.1301    -4.9559    -0.0570 N.pl3   
  12 C12           -1.6366    -4.3121     1.0463 C.2     
  13 C13           -1.2372    -6.2874     0.2082 C.2     
  14 N14           -1.7690    -6.4109     1.3968 N.2     
  15 N15           -2.0099    -5.2521     1.9012 N.2     
  16 C16           -0.8196    -7.4134    -0.7022 C.3     
  17 Cl17           1.4751     2.2624     0.0001 Cl      
  18 C18            0.2448    -8.3828    -0.1843 C.3     
  19 C19           -1.2128    -8.8346    -0.2942 C.3     
  20 N20           -1.2475     3.4502     0.0383 N.pl3   
  21 C21           -2.5249     4.1674     0.0493 C.3     
  22 C22           -3.0232     4.2996     1.4898 C.3     
  23 C23           -2.3329     5.5603    -0.5539 C.3     
  24 C24           -2.2180    -2.1864     2.2864 C.3     
  25 F25           -3.6073    -2.0743     2.1659 F       
  26 F26           -1.9071    -2.9059     3.4452 F       
  27 F27           -1.6521    -0.9094     2.3645 F       
  28 H28            0.9443    -0.5318    -0.0105 H       
  29 H29           -3.3426    -0.5817     0.0318 H       
  30 H30           -3.3675     1.8764     0.0452 H       
  31 H31           -0.2957    -2.3549    -1.9705 H       
  32 H32           -0.2685    -4.7723    -1.9832 H       
  33 H33           -0.8116    -7.1790    -1.7666 H       
  34 H34            0.9528    -8.7865    -0.9081 H       
  35 H35            0.6430    -8.2062     0.8149 H       
  36 H36           -1.7736    -8.9552     0.6327 H       
  37 H37           -1.4638    -9.5355    -1.0903 H       
  38 H38           -0.4133     3.9453     0.0364 H       
  39 H39           -3.2570     3.6144    -0.5392 H       
  40 H40           -2.2910     4.8526     2.0782 H       
  41 H41           -3.9736     4.8332     1.4979 H       
  42 H42           -3.1600     3.3072     1.9195 H       
  43 H43           -1.9779     5.4661    -1.5801 H       
  44 H44           -3.2833     6.0939    -0.5457 H       
  45 H45           -1.6007     6.1133     0.0346 H       
@<TRIPOS>BOND
   1    1    2 ar
   2    1   17 1
   3    1    6 ar
   4    2    3 ar
   5    2   28 1
   6    3    4 ar
   7    3    7 1
   8    4    5 ar
   9    4   29 1
  10    5    6 ar
  11    5   30 1
  12    6   20 1
  13    7    8 2
  14    7    9 1
  15    8   24 1
  16    8   12 1
  17    9   10 2
  18    9   31 1
  19   10   11 1
  20   10   32 1
  21   11   12 1
  22   11   13 1
  23   12   15 2
  24   13   14 2
  25   13   16 1
  26   14   15 1
  27   16   18 1
  28   16   19 1
  29   16   33 1
  30   18   19 1
  31   18   34 1
  32   18   35 1
  33   19   36 1
  34   19   37 1
  35   20   21 1
  36   20   38 1
  37   21   22 1
  38   21   23 1
  39   21   39 1
  40   22   40 1
  41   22   41 1
  42   22   42 1
  43   23   43 1
  44   23   44 1
  45   23   45 1
  46   24   25 1
  47   24   26 1
  48   24   27 1

#	End of record

