#	Name: ASD01512006
#	Creating user name:	WinNT
#	Creation time:	15. 06. 2019 19:21

#	Modifying user name:	WinNT
#	Modification time:	15. 06. 2019 19:21

#	Program:	/corina/corina34_cracker 3.40 0067  02.08.2006

@<TRIPOS>MOLECULE
ASD01512006
  69   74    0    0    0
SMALL
NO_CHARGES


@<TRIPOS>ATOM
   1 C1             0.1158     2.0526    -0.3137 C.ar    
   2 C2             0.1742     1.2554     0.8204 C.ar    
   3 C3             1.3748     0.7205     1.2381 C.ar    
   4 C4             2.5335     0.9803     0.5206 C.ar    
   5 C5             2.4803     1.7877    -0.6297 C.ar    
   6 C6             1.2542     2.3217    -1.0386 C.ar    
   7 N7             3.8556     0.6068     0.6685 N.pl3   
   8 C8             4.5550     1.1766    -0.3614 C.2     
   9 N9             3.7410     1.8692    -1.1206 N.2     
  10 C10            4.4062    -0.2402     1.7295 C.3     
  11 C11            6.0089     1.0325    -0.5838 C.ar    
  12 C12            6.7226     2.0579    -1.1990 C.ar    
  13 C13            8.0850     1.9152    -1.4038 C.ar    
  14 C14            8.7386     0.7400    -0.9912 C.ar    
  15 C15            8.0063    -0.2805    -0.3739 C.ar    
  16 C16            6.6671    -0.1328    -0.1702 C.ar    
  17 C17            8.7005    -1.5421     0.0705 C.3     
  18 N18            9.0601     2.7156    -1.9671 N.pl3   
  19 C19           10.2354     2.0367    -1.8873 C.2     
  20 N20           10.0479     0.8818    -1.3169 N.2     
  21 C21           11.5625     2.5474    -2.3862 C.3     
  22 C22           12.3226     3.2047    -1.2324 C.3     
  23 C23           13.6130     3.8321    -1.7635 C.3     
  24 C24            8.8639     4.0479    -2.5439 C.3     
  25 C25            8.6415     3.9244    -4.0293 C.ar    
  26 C26            7.3750     3.6546    -4.5162 C.ar    
  27 C27            7.1652     3.5404    -5.8753 C.ar    
  28 C28            8.2329     3.6975    -6.7583 C.ar    
  29 C29            9.5072     3.9693    -6.2616 C.ar    
  30 C30            9.7035     4.0868    -4.9008 C.ar    
  31 C31            8.0143     3.5755    -8.2188 C.ar    
  32 C32            8.7257     2.6171    -8.9633 C.ar    
  33 C33            8.5094     2.5138   -10.3383 C.ar    
  34 C34            7.6030     3.3486   -10.9576 C.ar    
  35 C35            6.9031     4.2920   -10.2233 C.ar    
  36 C36            7.0996     4.4049    -8.8617 C.ar    
  37 C37            9.6941     1.7275    -8.2953 C.2     
  38 O38            9.7912     1.7353    -7.0843 O.2     
  39 O39           10.4712     0.9060    -9.0282 O.3     
  40 H40           -0.8315     2.4617    -0.6326 H       
  41 H41           -0.7268     1.0525     1.3802 H       
  42 H42            1.4130     0.1011     2.1220 H       
  43 H43            1.2009     2.9434    -1.9201 H       
  44 H44            4.4534    -1.2724     1.3827 H       
  45 H45            5.4086     0.1033     1.9852 H       
  46 H46            3.7664    -0.1816     2.6100 H       
  47 H47            6.2170     2.9585    -1.5146 H       
  48 H48            6.1073    -0.9237     0.3067 H       
  49 H49            9.0508    -1.4222     1.0957 H       
  50 H50            8.0025    -2.3778     0.0205 H       
  51 H51            9.5503    -1.7387    -0.5832 H       
  52 H52           12.1473     1.7159    -2.7795 H       
  53 H53           11.3963     3.2802    -3.1758 H       
  54 H54           11.7010     3.9785    -0.7819 H       
  55 H55           12.5663     2.4521    -0.4825 H       
  56 H56           14.2346     3.0582    -2.2139 H       
  57 H57           13.3693     4.5846    -2.5134 H       
  58 H58           14.1544     4.3003    -0.9414 H       
  59 H59            7.9947     4.5184    -2.0843 H       
  60 H60            9.7479     4.6579    -2.3584 H       
  61 H61            6.5490     3.5328    -3.8312 H       
  62 H62            6.1761     3.3294    -6.2542 H       
  63 H63           10.3379     4.0919    -6.9407 H       
  64 H64           10.6899     4.2976    -4.5148 H       
  65 H65            9.0518     1.7808   -10.9170 H       
  66 H66            7.4381     3.2665   -12.0218 H       
  67 H67            6.1960     4.9407   -10.7188 H       
  68 H68            6.5500     5.1429    -8.2963 H       
  69 H69           11.0907     0.3416    -8.5458 H       
@<TRIPOS>BOND
   1    1    2 ar
   2    1    6 ar
   3    1   40 1
   4    2    3 ar
   5    2   41 1
   6    3    4 ar
   7    3   42 1
   8    4    5 ar
   9    4    7 1
  10    5    6 ar
  11    5    9 1
  12    6   43 1
  13    7    8 1
  14    7   10 1
  15    8    9 2
  16    8   11 1
  17   10   44 1
  18   10   45 1
  19   10   46 1
  20   11   12 ar
  21   11   16 ar
  22   12   13 ar
  23   12   47 1
  24   13   14 ar
  25   13   18 1
  26   14   15 ar
  27   14   20 1
  28   15   16 ar
  29   15   17 1
  30   16   48 1
  31   17   49 1
  32   17   50 1
  33   17   51 1
  34   18   19 1
  35   18   24 1
  36   19   20 2
  37   19   21 1
  38   21   22 1
  39   21   52 1
  40   21   53 1
  41   22   23 1
  42   22   54 1
  43   22   55 1
  44   23   56 1
  45   23   57 1
  46   23   58 1
  47   24   25 1
  48   24   59 1
  49   24   60 1
  50   25   26 ar
  51   25   30 ar
  52   26   27 ar
  53   26   61 1
  54   27   28 ar
  55   27   62 1
  56   28   29 ar
  57   28   31 1
  58   29   30 ar
  59   29   63 1
  60   30   64 1
  61   31   32 ar
  62   31   36 ar
  63   32   33 ar
  64   32   37 1
  65   33   34 ar
  66   33   65 1
  67   34   35 ar
  68   34   66 1
  69   35   36 ar
  70   35   67 1
  71   36   68 1
  72   37   38 2
  73   37   39 1
  74   39   69 1

#	End of record

