#	Name: ASD00870003
#	Creating user name:	WinNT
#	Creation time:	15. 06. 2019 18:53

#	Modifying user name:	WinNT
#	Modification time:	15. 06. 2019 18:53

#	Program:	/corina/corina34_cracker 3.40 0067  02.08.2006

@<TRIPOS>MOLECULE
ASD00870003
  23   22    0    0    0
SMALL
NO_CHARGES


@<TRIPOS>ATOM
   1 C1            -0.0184     1.5028     0.0103 C.2     
   2 C2             0.0021    -0.0041     0.0020 C.3     
   3 O3             1.3556    -0.4620    -0.0134 O.3     
   4 C4            -0.7002    -0.5305     1.2552 C.3     
   5 O5            -0.0945     0.0411     2.4164 O.3     
   6 O6             1.0197     2.1211     0.0037 O.2     
   7 O7            -1.1898     2.1580     0.0194 O.3     
   8 P8            -0.5826    -0.2919     3.9140 P.3     
   9 O9            -2.0304    -0.0100     4.0352 O.2     
  10 O10           -0.3097    -1.8459     4.2344 O.3     
  11 O11            0.2315     0.6226     4.9596 O.3     
  12 P12            1.9586    -1.3762    -1.1935 P.3     
  13 O13            1.1224    -2.5864    -1.3563 O.2     
  14 O14            1.9665    -0.5402    -2.5693 O.3     
  15 O15            3.4636    -1.8101    -0.8205 O.3     
  16 H16           -0.5153    -0.3696    -0.8850 H       
  17 H17           -1.7547    -0.2563     1.2231 H       
  18 H18           -0.6082    -1.6159     1.2944 H       
  19 H19           -1.1523     3.1243     0.0245 H       
  20 H20            0.6207    -2.1025     4.1738 H       
  21 H21           -0.0116     0.4748     5.8838 H       
  22 H22            2.4963     0.2680    -2.5355 H       
  23 H23            3.8902    -2.3639    -1.4886 H       
@<TRIPOS>BOND
   1    1    2 1
   2    1    6 2
   3    1    7 1
   4    2    3 1
   5    2    4 1
   6    2   16 1
   7    3   12 1
   8    4    5 1
   9    4   17 1
  10    4   18 1
  11    5    8 1
  12    7   19 1
  13    8    9 2
  14    8   10 1
  15    8   11 1
  16   10   20 1
  17   11   21 1
  18   12   13 2
  19   12   14 1
  20   12   15 1
  21   14   22 1
  22   15   23 1

#	End of record

