#	Name: ASD01884328
#	Creating user name:	WinNT
#	Creation time:	15. 06. 2019 19:48

#	Modifying user name:	WinNT
#	Modification time:	15. 06. 2019 19:48

#	Program:	/corina/corina34_cracker 3.40 0067  02.08.2006

@<TRIPOS>MOLECULE
ASD01884328
  61   63    0    0    0
SMALL
NO_CHARGES


@<TRIPOS>ATOM
   1 C1            -0.0168     1.3884     0.0097 C.2     
   2 C2             0.0021    -0.0041     0.0020 C.2     
   3 C3            -1.2095    -0.6965     0.0104 C.2     
   4 C4            -2.3831    -0.0157     0.0252 C.2     
   5 N5            -2.4093     1.3392     0.0327 N.am    
   6 C6            -1.2693     2.0558     0.0312 C.2     
   7 O7            -1.3129     3.2741     0.0380 O.2     
   8 C8            -3.6983     2.0352     0.0483 C.3     
   9 C9            -4.1338     2.2698     1.4962 C.3     
  10 C10            1.2059     2.1337     0.0020 C.1     
  11 N11            2.1759     2.7249    -0.0041 N.1     
  12 C12            1.3105    -0.7515    -0.0155 C.3     
  13 N13            1.6901    -1.1066     1.3585 N.3     
  14 C14            2.8290    -2.0352     1.3670 C.3     
  15 C15            3.2431    -2.3172     2.8131 C.3     
  16 N16            2.1012    -2.8822     3.5456 N.3     
  17 C17            0.9623    -1.9536     3.5371 C.3     
  18 C18            0.5482    -1.6716     2.0910 C.3     
  19 C19           -5.4800     2.9967     1.5124 C.3     
  20 C20           -5.9753     3.1206     2.9547 C.3     
  21 C21           -5.3132     4.3926     0.9087 C.3     
  22 C22            2.4808    -3.2373     4.9196 C.3     
  23 C23            1.2440    -3.5790     5.7100 C.ar    
  24 C24            0.7852    -4.8822     5.7462 C.ar    
  25 C25           -0.3495    -5.1957     6.4713 C.ar    
  26 C26           -1.0250    -4.2058     7.1599 C.ar    
  27 C27           -0.5657    -2.9023     7.1241 C.ar    
  28 C28            0.5716    -2.5898     6.4035 C.ar    
  29 C29           -0.8500    -6.6166     6.5104 C.3     
  30 F30           -0.2608    -7.2892     7.5863 F       
  31 F31           -2.2405    -6.6171     6.6652 F       
  32 F32           -0.5136    -7.2626     5.3159 F       
  33 H33           -1.2130    -1.7765     0.0046 H       
  34 H34           -3.3137    -0.5638     0.0308 H       
  35 H35           -3.5999     2.9937    -0.4613 H       
  36 H36           -4.4456     1.4275    -0.4619 H       
  37 H37           -4.2323     1.3113     2.0058 H       
  38 H38           -3.3866     2.8775     2.0064 H       
  39 H39            1.2023    -1.6595    -0.6087 H       
  40 H40            2.0835    -0.1207    -0.4544 H       
  41 H41            2.5411    -2.9683     0.8826 H       
  42 H42            3.6659    -1.5892     0.8295 H       
  43 H43            4.0692    -3.0283     2.8228 H       
  44 H44            3.5569    -1.3883     3.2893 H       
  45 H45            0.1254    -2.3996     4.0746 H       
  46 H46            1.2502    -1.0205     4.0215 H       
  47 H47           -0.2779    -0.9605     2.0813 H       
  48 H48            0.2344    -2.6005     1.6148 H       
  49 H49           -6.2051     2.4317     0.9266 H       
  50 H50           -5.2502     3.6856     3.5406 H       
  51 H51           -6.9344     3.6385     2.9663 H       
  52 H52           -6.0942     2.1261     3.3848 H       
  53 H53           -4.9604     4.3043    -0.1188 H       
  54 H54           -6.2723     4.9105     0.9203 H       
  55 H55           -4.5881     4.9575     1.4946 H       
  56 H56            3.1494    -4.0979     4.9010 H       
  57 H57            2.9883    -2.3929     5.3861 H       
  58 H58            1.3128    -5.6556     5.2078 H       
  59 H59           -1.9117    -4.4506     7.7258 H       
  60 H60           -1.0937    -2.1288     7.6619 H       
  61 H61            0.9303    -1.5715     6.3755 H       
@<TRIPOS>BOND
   1    1    2 2
   2    1   10 1
   3    1    6 1
   4    2    3 1
   5    2   12 1
   6    3    4 2
   7    3   33 1
   8    4    5 1
   9    4   34 1
  10    5    6 am
  11    5    8 1
  12    6    7 2
  13    8    9 1
  14    8   35 1
  15    8   36 1
  16    9   19 1
  17    9   37 1
  18    9   38 1
  19   10   11 3
  20   12   13 1
  21   12   39 1
  22   12   40 1
  23   13   14 1
  24   13   18 1
  25   14   15 1
  26   14   41 1
  27   14   42 1
  28   15   16 1
  29   15   43 1
  30   15   44 1
  31   16   17 1
  32   16   22 1
  33   17   18 1
  34   17   45 1
  35   17   46 1
  36   18   47 1
  37   18   48 1
  38   19   20 1
  39   19   21 1
  40   19   49 1
  41   20   50 1
  42   20   51 1
  43   20   52 1
  44   21   53 1
  45   21   54 1
  46   21   55 1
  47   22   23 1
  48   22   56 1
  49   22   57 1
  50   23   24 ar
  51   23   28 ar
  52   24   25 ar
  53   24   58 1
  54   25   29 1
  55   25   26 ar
  56   26   27 ar
  57   26   59 1
  58   27   28 ar
  59   27   60 1
  60   28   61 1
  61   29   30 1
  62   29   31 1
  63   29   32 1

#	End of record

