#	Name: ASD09080123
#	Creating user name:	WinNT
#	Creation time:	15. 06. 2019 21:20

#	Modifying user name:	WinNT
#	Modification time:	15. 06. 2019 21:20

#	Program:	/corina/corina34_cracker 3.40 0067  02.08.2006

@<TRIPOS>MOLECULE
ASD09080123
  48   50    0    0    0
SMALL
NO_CHARGES


@<TRIPOS>ATOM
   1 C1            -0.0167     1.3799     0.0096 C.ar    
   2 C2             0.0021    -0.0041     0.0020 C.ar    
   3 C3             1.2064    -0.6807    -0.0132 C.ar    
   4 C4             2.4033     0.0323    -0.0208 C.ar    
   5 C5             2.3791     1.4253    -0.0131 C.ar    
   6 C6             1.1698     2.0928     0.0021 C.ar    
   7 Cl7            1.1380     3.8285     0.0112 Cl      
   8 Cl8           -1.4902    -0.8910     0.0121 Cl      
   9 C9             3.6997    -0.6896    -0.0366 C.ar    
  10 C10            4.8969     0.0232    -0.0443 C.ar    
  11 C11            3.7242    -2.0828    -0.0381 C.ar    
  12 C12            4.9328    -2.7491    -0.0529 C.ar    
  13 C13            6.1183    -2.0365    -0.0658 C.ar    
  14 C14            6.0998    -0.6534    -0.0590 C.ar    
  15 C15            7.4348    -2.7697    -0.0809 C.3     
  16 C16            7.8642    -3.0170    -1.5284 C.3     
  17 N17            8.1273    -1.7344    -2.1857 N.am    
  18 C18            7.7092     3.1840    -6.6395 C.ar    
  19 C19            9.0048     3.5276    -6.9777 C.ar    
  20 C20           10.0195     2.5961    -6.8621 C.ar    
  21 C21            9.7388     1.3209    -6.4082 C.ar    
  22 C22            8.4432     0.9773    -6.0700 C.ar    
  23 C23            7.4285     1.9088    -6.1856 C.ar    
  24 C24            8.1371    -0.4129    -5.5752 C.3     
  25 O25            8.2665    -0.4515    -4.1295 O.3     
  26 C26            8.0248    -1.6302    -3.5255 C.2     
  27 O27            7.7141    -2.6001    -4.1883 O.2     
  28 C28            9.1161    -3.8559    -1.5446 C.2     
  29 O29           10.1240    -3.4266    -2.0528 O.2     
  30 H30           -0.9602     1.9054     0.0170 H       
  31 H31            1.2200    -1.7606    -0.0187 H       
  32 H32            3.3044     1.9824    -0.0186 H       
  33 H33            4.8836     1.1031    -0.0390 H       
  34 H34            2.7992    -2.6402    -0.0274 H       
  35 H35            4.9530    -3.8289    -0.0541 H       
  36 H36            7.0283    -0.1019    -0.0695 H       
  37 H37            8.1909    -2.1691     0.4249 H       
  38 H38            7.3250    -3.7243     0.4337 H       
  39 H39            7.0690    -3.5407    -2.0589 H       
  40 H40            8.3753    -0.9601    -1.6566 H       
  41 H41            6.9172     3.9132    -6.7256 H       
  42 H42            9.2241     4.5238    -7.3327 H       
  43 H43           11.0316     2.8644    -7.1270 H       
  44 H44           10.5314     0.5929    -6.3185 H       
  45 H45            6.4163     1.6405    -5.9211 H       
  46 H46            7.1191    -0.6826    -5.8562 H       
  47 H47            8.8366    -1.1196    -6.0216 H       
  48 H48            9.1118    -4.8409    -1.1018 H       
@<TRIPOS>BOND
   1    1    2 ar
   2    1    6 ar
   3    1   30 1
   4    2    3 ar
   5    2    8 1
   6    3    4 ar
   7    3   31 1
   8    4    5 ar
   9    4    9 1
  10    5    6 ar
  11    5   32 1
  12    6    7 1
  13    9   10 ar
  14    9   11 ar
  15   10   14 ar
  16   10   33 1
  17   11   12 ar
  18   11   34 1
  19   12   13 ar
  20   12   35 1
  21   13   14 ar
  22   13   15 1
  23   14   36 1
  24   15   16 1
  25   15   37 1
  26   15   38 1
  27   16   17 1
  28   16   28 1
  29   16   39 1
  30   17   26 am
  31   17   40 1
  32   18   19 ar
  33   18   23 ar
  34   18   41 1
  35   19   20 ar
  36   19   42 1
  37   20   21 ar
  38   20   43 1
  39   21   22 ar
  40   21   44 1
  41   22   23 ar
  42   22   24 1
  43   23   45 1
  44   24   25 1
  45   24   46 1
  46   24   47 1
  47   25   26 1
  48   26   27 2
  49   28   29 2
  50   28   48 1

#	End of record

