#	Name: ASD00730002
#	Creating user name:	WinNT
#	Creation time:	15. 06. 2019 18:37

#	Modifying user name:	WinNT
#	Modification time:	15. 06. 2019 18:37

#	Program:	/corina/corina34_cracker 3.40 0067  02.08.2006

@<TRIPOS>MOLECULE
ASD00730002
  61   63    0    0    0
SMALL
NO_CHARGES


@<TRIPOS>ATOM
   1 C1             3.3628     4.5963     0.6020 C.ar    
   2 C2             4.1573     5.6216     1.0788 C.ar    
   3 C3             3.5790     6.8096     1.4927 C.ar    
   4 C4             2.2051     6.9688     1.4283 C.ar    
   5 C5             1.4126     5.9421     0.9511 C.ar    
   6 C6             1.9912     4.7564     0.5381 C.ar    
   7 C7             1.1259     3.6375     0.0179 C.3     
   8 C8             1.9365     2.7743    -0.9510 C.3     
   9 C9             1.0991     1.5687    -1.3826 C.3     
  10 C10            1.9096     0.7054    -2.3515 C.3     
  11 C11            1.0723    -0.5001    -2.7832 C.3     
  12 N12           -0.0321     4.2003    -0.6810 N.pl3   
  13 C13           -1.3879     3.8260    -0.2713 C.3     
  14 C14           -1.8445     4.7350     0.8715 C.3     
  15 C15           -3.2605     4.3441     1.2994 C.3     
  16 C16            0.1564     5.0929    -1.7373 C.2     
  17 N17           -0.8156     5.6689    -2.4472 N.2     
  18 C18           -0.2888     6.4539    -3.3667 C.2     
  19 N19            1.0567     6.3855    -3.2505 N.pl3   
  20 N20            1.3182     5.5051    -2.1883 N.2     
  21 C21           -1.0367     7.2645    -4.3508 C.ar    
  22 C22           -0.6997     8.6022    -4.5577 C.ar    
  23 C23           -1.4009     9.3542    -5.4772 C.ar    
  24 C24           -2.4394     8.7861    -6.1968 C.ar    
  25 C25           -2.7823     7.4605    -5.9999 C.ar    
  26 C26           -2.0833     6.6915    -5.0840 C.ar    
  27 C27            2.0454     7.0937    -4.0673 C.3     
  28 O28           -2.4187     5.3901    -4.8901 O.3     
  29 C29           -3.5042     4.8774    -5.6652 C.3     
  30 Cl30          -3.3151     9.7426    -7.3509 Cl      
  31 F31            4.3546     7.8125     1.9594 F       
  32 H32            3.8141     3.6712     0.2749 H       
  33 H33            5.2288     5.4962     1.1289 H       
  34 H34            1.7528     7.8949     1.7511 H       
  35 H35            0.3409     6.0659     0.9011 H       
  36 H36            0.7843     3.0246     0.8520 H       
  37 H37            2.2027     3.3645    -1.8278 H       
  38 H38            2.8442     2.4280    -0.4568 H       
  39 H39            0.8329     0.9785    -0.5058 H       
  40 H40            0.1914     1.9150    -1.8768 H       
  41 H41            2.1759     1.2956    -3.2284 H       
  42 H42            2.8174     0.3591    -1.8574 H       
  43 H43            0.1646    -0.1538    -3.2774 H       
  44 H44            1.6497    -1.1152    -3.4734 H       
  45 H45            0.8061    -1.0903    -1.9063 H       
  46 H46           -2.0666     3.9368    -1.1170 H       
  47 H47           -1.3927     2.7892     0.0650 H       
  48 H48           -1.1658     4.6242     1.7172 H       
  49 H49           -1.8398     5.7718     0.5352 H       
  50 H50           -3.5858     4.9917     2.1136 H       
  51 H51           -3.9392     4.4549     0.4537 H       
  52 H52           -3.2653     3.3073     1.6357 H       
  53 H53            0.1091     9.0487    -3.9984 H       
  54 H54           -1.1395    10.3899    -5.6365 H       
  55 H55           -3.5930     7.0235    -6.5640 H       
  56 H56            2.3219     8.0264    -3.5757 H       
  57 H57            2.9312     6.4699    -4.1876 H       
  58 H58            1.6188     7.3116    -5.0464 H       
  59 H59           -3.6672     3.8294    -5.4136 H       
  60 H60           -4.4071     5.4480    -5.4480 H       
  61 H61           -3.2662     4.9637    -6.7254 H       
@<TRIPOS>BOND
   1    1    2 ar
   2    1    6 ar
   3    1   32 1
   4    2    3 ar
   5    2   33 1
   6    3    4 ar
   7    3   31 1
   8    4    5 ar
   9    4   34 1
  10    5    6 ar
  11    5   35 1
  12    6    7 1
  13    7    8 1
  14    7   12 1
  15    7   36 1
  16    8    9 1
  17    8   37 1
  18    8   38 1
  19    9   10 1
  20    9   39 1
  21    9   40 1
  22   10   11 1
  23   10   41 1
  24   10   42 1
  25   11   43 1
  26   11   44 1
  27   11   45 1
  28   12   13 1
  29   12   16 1
  30   13   14 1
  31   13   46 1
  32   13   47 1
  33   14   15 1
  34   14   48 1
  35   14   49 1
  36   15   50 1
  37   15   51 1
  38   15   52 1
  39   16   17 1
  40   16   20 2
  41   17   18 2
  42   18   19 1
  43   18   21 1
  44   19   20 1
  45   19   27 1
  46   21   22 ar
  47   21   26 ar
  48   22   23 ar
  49   22   53 1
  50   23   24 ar
  51   23   54 1
  52   24   25 ar
  53   24   30 1
  54   25   26 ar
  55   25   55 1
  56   26   28 1
  57   27   56 1
  58   27   57 1
  59   27   58 1
  60   28   29 1
  61   29   59 1
  62   29   60 1
  63   29   61 1

#	End of record

