#	Name: ASD01901132
#	Creating user name:	WinNT
#	Creation time:	15. 06. 2019 19:53

#	Modifying user name:	WinNT
#	Modification time:	15. 06. 2019 19:53

#	Program:	/corina/corina34_cracker 3.40 0067  02.08.2006

@<TRIPOS>MOLECULE
ASD01901132
  58   62    0    0    0
SMALL
NO_CHARGES


@<TRIPOS>ATOM
   1 C1             0.2138     1.5449    -1.9272 C.ar    
   2 C2             0.2598     0.1872    -2.1650 C.ar    
   3 C3             1.4784    -0.4527    -2.3085 C.ar    
   4 C4             2.6589     0.2633    -2.2147 C.ar    
   5 C5             2.6286     1.6214    -1.9768 C.ar    
   6 C6             1.4018     2.2746    -1.8312 C.ar    
   7 C7             1.3622     3.6847    -1.5850 C.1     
   8 C8             1.3297     4.8407    -1.3831 C.1     
   9 C9             1.2901     6.2508    -1.1368 C.ar    
  10 C10            2.4795     6.9790    -1.0411 C.ar    
  11 C11            2.4375     8.3377    -0.8036 C.ar    
  12 C12            1.2133     8.9829    -0.6595 C.ar    
  13 C13            0.0276     8.2614    -0.7541 C.ar    
  14 C14            0.0618     6.9034    -0.9972 C.ar    
  15 N15            1.1746    10.3638    -0.4178 N.am    
  16 C16            1.1264    11.2174    -1.4569 C.2     
  17 C17            1.1849    12.7045    -1.2134 C.3     
  18 C18            0.4697    13.0276     0.1005 C.3     
  19 N19            0.9122    12.0964     1.1401 N.am    
  20 C20            1.1805    10.8144     0.8478 C.2     
  21 O21            1.0364    10.7911    -2.5883 O.2     
  22 O22            1.4398    10.0433     1.7507 O.2     
  23 C23            0.8082    14.4592     0.5207 C.3     
  24 C24           -1.0199    12.8987    -0.0881 C.ar    
  25 C25           -1.7580    12.0698     0.7361 C.ar    
  26 C26           -3.1351    11.9859     0.5195 C.ar    
  27 C27           -3.7203    12.7381    -0.5173 C.ar    
  28 N28           -2.9616    13.5175    -1.2763 N.ar    
  29 C29           -1.6630    13.6148    -1.0857 C.ar    
  30 F30           -1.1589     8.8919    -0.6135 F       
  31 F31            3.5865     9.0422    -0.7105 F       
  32 C32            1.0587    12.5698     2.5187 C.3     
  33 C33           -4.2272    11.2465     1.1548 C.2     
  34 C34           -5.3524    11.5756     0.5010 C.2     
  35 N35           -5.0671    12.4651    -0.5001 N.pl3   
  36 C36           -6.0529    13.0418    -1.4176 C.3     
  37 H37           -0.7381     2.0438    -1.8199 H       
  38 H38           -0.6575    -0.3781    -2.2391 H       
  39 H39            1.5082    -1.5162    -2.4943 H       
  40 H40            3.6062    -0.2428    -2.3278 H       
  41 H41            3.5507     2.1788    -1.9035 H       
  42 H42            3.4301     6.4787    -1.1525 H       
  43 H43           -0.8592     6.3447    -1.0753 H       
  44 H44            2.2256    13.0224    -1.1492 H       
  45 H45            0.6934    13.2275    -2.0338 H       
  46 H46            1.8856    14.5526     0.6575 H       
  47 H47            0.4789    15.1525    -0.2532 H       
  48 H48            0.3015    14.6925     1.4571 H       
  49 H49           -1.2836    11.5035     1.5239 H       
  50 H50           -1.0838    14.2651    -1.7246 H       
  51 H51            0.1171    12.4351     3.0511 H       
  52 H52            1.8427    11.9998     3.0172 H       
  53 H53            1.3252    13.6267     2.5136 H       
  54 H54           -4.1436    10.5660     1.9892 H       
  55 H55           -6.3367    11.1949     0.7303 H       
  56 H56           -6.1475    12.4044    -2.2967 H       
  57 H57           -7.0177    13.1141    -0.9156 H       
  58 H58           -5.7269    14.0361    -1.7230 H       
@<TRIPOS>BOND
   1    1    2 ar
   2    1    6 ar
   3    1   37 1
   4    2    3 ar
   5    2   38 1
   6    3    4 ar
   7    3   39 1
   8    4    5 ar
   9    4   40 1
  10    5    6 ar
  11    5   41 1
  12    6    7 1
  13    7    8 3
  14    8    9 1
  15    9   10 ar
  16    9   14 ar
  17   10   11 ar
  18   10   42 1
  19   11   12 ar
  20   11   31 1
  21   12   13 ar
  22   12   15 1
  23   13   14 ar
  24   13   30 1
  25   14   43 1
  26   15   16 am
  27   15   20 am
  28   16   17 1
  29   16   21 2
  30   17   18 1
  31   17   44 1
  32   17   45 1
  33   18   19 1
  34   18   23 1
  35   18   24 1
  36   19   20 am
  37   19   32 1
  38   20   22 2
  39   23   46 1
  40   23   47 1
  41   23   48 1
  42   24   25 ar
  43   24   29 ar
  44   25   26 ar
  45   25   49 1
  46   26   27 ar
  47   26   33 1
  48   27   28 ar
  49   27   35 1
  50   28   29 ar
  51   29   50 1
  52   32   51 1
  53   32   52 1
  54   32   53 1
  55   33   34 2
  56   33   54 1
  57   34   35 1
  58   34   55 1
  59   35   36 1
  60   36   56 1
  61   36   57 1
  62   36   58 1

#	End of record

