#	Name: ASD01911192
#	Creating user name:	WinNT
#	Creation time:	15. 06. 2019 19:57

#	Modifying user name:	WinNT
#	Modification time:	15. 06. 2019 19:57

#	Program:	/corina/corina34_cracker 3.40 0067  02.08.2006

@<TRIPOS>MOLECULE
ASD01911192
  44   47    0    0    0
SMALL
NO_CHARGES


@<TRIPOS>ATOM
   1 C1             0.9257     0.7427     0.1930 C.ar    
   2 N2             0.6929    -0.5485     0.1042 N.ar    
   3 C3             1.4837    -1.3522    -0.5965 C.ar    
   4 C4             2.5957    -0.8450    -1.2647 C.ar    
   5 C5             2.8656     0.5125    -1.1886 C.ar    
   6 C6             2.0137     1.3154    -0.4466 C.ar    
   7 C7             1.1815    -2.8006    -0.6678 C.2     
   8 N8             0.1073    -3.2974    -0.0230 N.am    
   9 C9            -0.2329    -4.6471    -0.1671 C.ar    
  10 C10           -1.5565    -5.0477    -0.0421 C.ar    
  11 C11           -1.8900    -6.3805    -0.1847 C.ar    
  12 C12           -0.9056    -7.3168    -0.4516 C.ar    
  13 C13            0.4153    -6.9194    -0.5762 C.ar    
  14 C14            0.7523    -5.5871    -0.4410 C.ar    
  15 C15           -2.6282    -4.0291     0.2494 C.3     
  16 N16           -3.0207    -3.3634    -0.9952 N.am    
  17 C17           -3.9218    -3.8501    -1.8674 C.2     
  18 C18           -4.0489    -2.9002    -2.9927 C.ar    
  19 C19           -3.1632    -1.8419    -2.7059 C.ar    
  20 C20           -2.5317    -2.1820    -1.4134 C.2     
  21 O21           -1.7044    -1.5108    -0.8303 O.2     
  22 O22           -4.5291    -4.8953    -1.7501 O.2     
  23 O23            1.9021    -3.5409    -1.3078 O.2     
  24 F24           -1.2339    -8.6199    -0.5903 F       
  25 C25           -4.8045    -2.8708    -4.1538 C.ar    
  26 C26           -4.6836    -1.7999    -5.0255 C.ar    
  27 C27           -3.8150    -0.7621    -4.7443 C.ar    
  28 C28           -3.0528    -0.7779    -3.5867 C.ar    
  29 N29           -3.6979     0.3740    -5.6858 N.pl3   
  30 O30           -4.3657     0.3921    -6.7043 O.2     
  31 O31           -2.9338     1.2907    -5.4422 O.2     
  32 H32            0.2576     1.3660     0.7687 H       
  33 H33            3.2386    -1.5002    -1.8338 H       
  34 H34            3.7205     0.9349    -1.6957 H       
  35 H35            2.1959     2.3770    -0.3677 H       
  36 H36           -0.4300    -2.7193     0.5410 H       
  37 H37           -2.9194    -6.6925    -0.0875 H       
  38 H38            1.1818    -7.6515    -0.7838 H       
  39 H39            1.7824    -5.2777    -0.5383 H       
  40 H40           -3.4948    -4.5277     0.6837 H       
  41 H41           -2.2449    -3.2892     0.9520 H       
  42 H42           -5.4846    -3.6791    -4.3788 H       
  43 H43           -5.2719    -1.7764    -5.9309 H       
  44 H44           -2.3754     0.0355    -3.3722 H       
@<TRIPOS>BOND
   1    1    2 ar
   2    1    6 ar
   3    1   32 1
   4    2    3 ar
   5    3    4 ar
   6    3    7 1
   7    4    5 ar
   8    4   33 1
   9    5    6 ar
  10    5   34 1
  11    6   35 1
  12    7    8 am
  13    7   23 2
  14    8    9 1
  15    8   36 1
  16    9   10 ar
  17    9   14 ar
  18   10   11 ar
  19   10   15 1
  20   11   12 ar
  21   11   37 1
  22   12   13 ar
  23   12   24 1
  24   13   14 ar
  25   13   38 1
  26   14   39 1
  27   15   16 1
  28   15   40 1
  29   15   41 1
  30   16   17 am
  31   16   20 am
  32   17   18 1
  33   17   22 2
  34   18   19 ar
  35   18   25 ar
  36   19   20 1
  37   19   28 ar
  38   20   21 2
  39   25   26 ar
  40   25   42 1
  41   26   27 ar
  42   26   43 1
  43   27   28 ar
  44   27   29 1
  45   28   44 1
  46   29   30 2
  47   29   31 2

#	End of record

