#	Name: ASD03330819
#	Creating user name:	WinNT
#	Creation time:	15. 06. 2019 20:38

#	Modifying user name:	WinNT
#	Modification time:	15. 06. 2019 20:38

#	Program:	/corina/corina34_cracker 3.40 0067  02.08.2006

@<TRIPOS>MOLECULE
ASD03330819
  60   62    0    0    0
SMALL
NO_CHARGES


@<TRIPOS>ATOM
   1 C1            -0.5605     1.7800    -0.1870 C.2     
   2 N2            -0.7301     0.4408    -0.3487 N.pl3   
   3 C3             0.7753     2.0283    -0.2789 C.2     
   4 N4             1.3983     0.8521    -0.5108 N.2     
   5 C5             0.5020    -0.1054    -0.5600 C.2     
   6 C6             0.7811    -1.5373    -0.8038 C.ar    
   7 C7             1.4251     3.3445    -0.1492 C.2     
   8 O8             0.7531     4.3364     0.0600 O.2     
   9 N9             2.7640     3.4492    -0.2623 N.am    
  10 C10           -2.0120    -0.2668    -0.2882 C.3     
  11 C11           -3.0414     0.4849    -1.1379 C.3     
  12 C12           -3.7228     1.5569    -0.2936 C.3     
  13 N13           -2.7960     2.1218     0.6892 N.3     
  14 C14           -1.6604     2.7862     0.0325 C.3     
  15 C15            1.6038    -1.9202    -1.8651 C.ar    
  16 C16            1.8615    -3.2625    -2.0875 C.ar    
  17 C17            1.3049    -4.2225    -1.2599 C.ar    
  18 C18            0.4879    -3.8468    -0.2055 C.ar    
  19 C19            0.2280    -2.5105     0.0294 C.ar    
  20 C20            3.4099     4.7578    -0.1334 C.3     
  21 C21            4.7240     4.7442    -0.8710 C.2     
  22 C22            3.6584     5.0603     1.3457 C.3     
  23 C23            4.5230     3.9543     1.9542 C.3     
  24 C24            4.3804     6.4027     1.4774 C.3     
  25 C25            2.3203     5.1263     2.0846 C.3     
  26 O26            5.2582     3.6888    -1.1388 O.2     
  27 N27            5.3056     5.9048    -1.2330 N.am    
  28 C28            6.5311     5.8910    -2.0357 C.3     
  29 C29           -3.4903     3.0428     1.5990 C.3     
  30 F30            2.1468    -0.9836    -2.6733 F       
  31 F31            2.6567    -3.6357    -3.1139 F       
  32 F32           -0.0520    -4.7895     0.5976 F       
  33 H33            3.2999     2.6581    -0.4292 H       
  34 H34           -1.8885    -1.2781    -0.6757 H       
  35 H35           -2.3553    -0.3111     0.7454 H       
  36 H36           -2.5396     0.9544    -1.9839 H       
  37 H37           -3.7899    -0.2170    -1.5055 H       
  38 H38           -4.0804     2.3529    -0.9468 H       
  39 H39           -4.5718     1.1153     0.2282 H       
  40 H40           -1.2943     3.5938     0.6665 H       
  41 H41           -1.9805     3.1914    -0.9274 H       
  42 H42            1.5080    -5.2683    -1.4368 H       
  43 H43           -0.4090    -2.2199     0.8517 H       
  44 H44            2.7631     5.5257    -0.5576 H       
  45 H45            5.4763     3.9073     1.4279 H       
  46 H46            4.7000     4.1699     3.0080 H       
  47 H47            4.0086     2.9979     1.8604 H       
  48 H48            3.7519     7.1948     1.0703 H       
  49 H49            4.5835     6.6044     2.5291 H       
  50 H50            5.3203     6.3654     0.9265 H       
  51 H51            1.8059     4.1699     1.9907 H       
  52 H52            2.4973     5.3418     3.1383 H       
  53 H53            1.7043     5.9142     1.6510 H       
  54 H54            4.9128     6.7493    -0.9621 H       
  55 H55            7.3146     5.3617    -1.4934 H       
  56 H56            6.3396     5.3858    -2.9824 H       
  57 H57            6.8508     6.9151    -2.2284 H       
  58 H58           -4.2770     2.5058     2.1289 H       
  59 H59           -2.7788     3.4480     2.3185 H       
  60 H60           -3.9303     3.8580     1.0246 H       
@<TRIPOS>BOND
   1    1    2 1
   2    1    3 2
   3    1   14 1
   4    2   10 1
   5    2    5 1
   6    3    4 1
   7    3    7 1
   8    4    5 2
   9    5    6 1
  10    6   15 ar
  11    6   19 ar
  12    7    8 2
  13    7    9 am
  14    9   20 1
  15    9   33 1
  16   10   11 1
  17   10   34 1
  18   10   35 1
  19   11   12 1
  20   11   36 1
  21   11   37 1
  22   12   13 1
  23   12   38 1
  24   12   39 1
  25   13   14 1
  26   13   29 1
  27   14   40 1
  28   14   41 1
  29   15   16 ar
  30   15   30 1
  31   16   17 ar
  32   16   31 1
  33   17   18 ar
  34   17   42 1
  35   18   19 ar
  36   18   32 1
  37   19   43 1
  38   20   21 1
  39   20   22 1
  40   20   44 1
  41   21   26 2
  42   21   27 am
  43   22   23 1
  44   22   24 1
  45   22   25 1
  46   23   45 1
  47   23   46 1
  48   23   47 1
  49   24   48 1
  50   24   49 1
  51   24   50 1
  52   25   51 1
  53   25   52 1
  54   25   53 1
  55   27   28 1
  56   27   54 1
  57   28   55 1
  58   28   56 1
  59   28   57 1
  60   29   58 1
  61   29   59 1
  62   29   60 1

#	End of record

