#	Name: ASD01884764
#	Creating user name:	WinNT
#	Creation time:	15. 06. 2019 19:48

#	Modifying user name:	WinNT
#	Modification time:	15. 06. 2019 19:48

#	Program:	/corina/corina34_cracker 3.40 0067  02.08.2006

@<TRIPOS>MOLECULE
ASD01884764
  43   45    0    0    0
SMALL
NO_CHARGES


@<TRIPOS>ATOM
   1 C1            -0.0168     1.3857     0.0097 C.2     
   2 C2             0.0021    -0.0041     0.0020 C.2     
   3 C3            -1.2241    -0.6983     0.0099 C.2     
   4 C4            -2.4171    -0.0023     0.0246 C.2     
   5 N5            -2.4472     1.3433     0.0316 N.am    
   6 C6            -1.3123     2.0679     0.0318 C.2     
   7 O7            -1.3632     3.2856     0.0390 O.2     
   8 C8            -3.7397     2.0328     0.0462 C.3     
   9 C9             1.2041     2.1340     0.0020 C.1     
  10 N10            2.1727     2.7276    -0.0040 N.1     
  11 C11           -4.1774     2.2656     1.4937 C.3     
  12 C12           -1.2334    -2.1303     0.0023 C.1     
  13 C13           -1.2410    -3.3042    -0.0039 C.1     
  14 C14           -1.2503    -4.7362    -0.0115 C.ar    
  15 C15           -5.4635     3.0942     1.5107 C.3     
  16 C16           -5.9011     3.3269     2.9581 C.3     
  17 C17           -6.1535     1.9795     3.6376 C.3     
  18 C18           -4.8674     1.1509     3.6206 C.3     
  19 C19           -4.4298     0.9182     2.1731 C.3     
  20 C20           -2.4575    -5.4494    -0.0038 C.ar    
  21 C21           -2.4189    -6.8271    -0.0121 C.ar    
  22 N22           -1.2682    -7.4734    -0.0270 N.ar    
  23 C23           -0.1091    -6.8421    -0.0346 C.ar    
  24 C24           -0.0527    -5.4649    -0.0327 C.ar    
  25 H25            0.9387    -0.5416    -0.0101 H       
  26 H26           -3.3475    -0.5507     0.0301 H       
  27 H27           -3.6458     2.9917    -0.4637 H       
  28 H28           -4.4836     1.4212    -0.4644 H       
  29 H29           -3.3931     2.8010     2.0287 H       
  30 H30           -5.2836     4.0541     1.0266 H       
  31 H31           -6.2477     2.5587     0.9756 H       
  32 H32           -5.1168     3.8624     3.4932 H       
  33 H33           -6.8173     3.9172     2.9703 H       
  34 H34           -6.4652     2.1453     4.6688 H       
  35 H35           -6.9378     1.4441     3.1025 H       
  36 H36           -4.0831     1.6864     4.1556 H       
  37 H37           -5.0472     0.1910     4.1046 H       
  38 H38           -5.2140     0.3827     1.6380 H       
  39 H39           -3.5135     0.3279     2.1610 H       
  40 H40           -3.4028    -4.9273     0.0087 H       
  41 H41           -3.3433    -7.3857    -0.0059 H       
  42 H42            0.8079    -7.4125    -0.0464 H       
  43 H43            0.8994    -4.9550    -0.0391 H       
@<TRIPOS>BOND
   1    1    2 2
   2    1    9 1
   3    1    6 1
   4    2    3 1
   5    2   25 1
   6    3    4 2
   7    3   12 1
   8    4    5 1
   9    4   26 1
  10    5    8 1
  11    5    6 am
  12    6    7 2
  13    8   11 1
  14    8   27 1
  15    8   28 1
  16    9   10 3
  17   11   15 1
  18   11   19 1
  19   11   29 1
  20   12   13 3
  21   13   14 1
  22   14   20 ar
  23   14   24 ar
  24   15   16 1
  25   15   30 1
  26   15   31 1
  27   16   17 1
  28   16   32 1
  29   16   33 1
  30   17   18 1
  31   17   34 1
  32   17   35 1
  33   18   19 1
  34   18   36 1
  35   18   37 1
  36   19   38 1
  37   19   39 1
  38   20   21 ar
  39   20   40 1
  40   21   22 ar
  41   21   41 1
  42   22   23 ar
  43   23   24 ar
  44   23   42 1
  45   24   43 1

#	End of record

