#	Name: ASD01028378
#	Creating user name:	WinNT
#	Creation time:	15. 06. 2019 18:57

#	Modifying user name:	WinNT
#	Modification time:	15. 06. 2019 18:57

#	Program:	/corina/corina34_cracker 3.40 0067  02.08.2006

@<TRIPOS>MOLECULE
ASD01028378
  49   53    0    0    0
SMALL
NO_CHARGES


@<TRIPOS>ATOM
   1 C1            -0.0171     1.4105     0.0098 C.ar    
   2 C2             0.0021    -0.0041     0.0020 C.ar    
   3 C3             1.2172     2.1062     0.0017 C.ar    
   4 C4             2.3840     1.3600    -0.0135 C.ar    
   5 C5             2.3156    -0.0268    -0.0203 C.ar    
   6 N6             1.1664    -0.6615    -0.0123 N.ar    
   7 N7             1.2559     3.4929     0.0084 N.pl3   
   8 C8             2.5445     4.1898    -0.0001 C.3     
   9 C9             2.3106     5.6785     0.0096 C.2     
  10 N10            2.1971     6.4604     1.1052 N.pl3   
  11 C11            1.9929     7.7375     0.6404 C.2     
  12 N12            1.9927     7.6686    -0.6810 N.2     
  13 N13            2.1864     6.4484    -1.0429 N.2     
  14 N14            2.2467     6.2148     2.4788 N.2     
  15 C15            2.0991     7.1994     3.3380 C.2     
  16 C16            1.8880     8.5216     2.8916 C.2     
  17 C17            1.8357     8.7913     1.5608 C.2     
  18 C18            2.1546     6.9172     4.7928 C.2     
  19 C19           -1.2223    -0.6977     0.0101 C.ar    
  20 C20           -2.3811     0.0331     0.0251 C.ar    
  21 C21           -2.3227     1.4307     0.0320 C.ar    
  22 N22           -1.1775     2.0678     0.0299 N.ar    
  23 O23           -3.5841    -0.5981     0.0329 O.3     
  24 C24           -4.7501     0.2280     0.0486 C.3     
  25 C25            2.3648     5.5983     5.2520 C.2     
  26 C26            2.4126     5.3626     6.5920 C.2     
  27 C27            2.2521     6.4344     7.4884 C.2     
  28 N28            2.0525     7.6825     7.0256 N.am    
  29 C29            2.0083     7.9321     5.6945 C.2     
  30 O30            2.2936     6.2319     8.6911 O.2     
  31 C31            1.8863     8.7868     7.9738 C.3     
  32 H32            3.3437     1.8552    -0.0203 H       
  33 H33            3.2319    -0.5984    -0.0326 H       
  34 H34            0.4298     4.0012     0.0188 H       
  35 H35            3.1169     3.9062     0.8831 H       
  36 H36            3.1002     3.9152    -0.8968 H       
  37 H37            1.7684     9.3203     3.6088 H       
  38 H38            1.6747     9.8011     1.2135 H       
  39 H39           -1.2479    -1.7774     0.0042 H       
  40 H40           -3.2420     1.9974     0.0439 H       
  41 H41           -4.7411     0.8522     0.9420 H       
  42 H42           -4.7579     0.8623    -0.8378 H       
  43 H43           -5.6406    -0.4006     0.0534 H       
  44 H44            2.4857     4.7872     4.5493 H       
  45 H45            2.5721     4.3611     6.9635 H       
  46 H46            1.8471     8.9408     5.3439 H       
  47 H47            1.9542     8.4045     8.9923 H       
  48 H48            2.6697     9.5269     7.8106 H       
  49 H49            0.9114     9.2506     7.8241 H       
@<TRIPOS>BOND
   1    1    2 ar
   2    1    3 ar
   3    1   22 ar
   4    2   19 ar
   5    2    6 ar
   6    3    4 ar
   7    3    7 1
   8    4    5 ar
   9    4   32 1
  10    5    6 ar
  11    5   33 1
  12    7    8 1
  13    7   34 1
  14    8    9 1
  15    8   35 1
  16    8   36 1
  17    9   10 1
  18    9   13 2
  19   10   11 1
  20   10   14 1
  21   11   12 2
  22   11   17 1
  23   12   13 1
  24   14   15 2
  25   15   16 1
  26   15   18 1
  27   16   17 2
  28   16   37 1
  29   17   38 1
  30   18   25 1
  31   18   29 2
  32   19   20 ar
  33   19   39 1
  34   20   21 ar
  35   20   23 1
  36   21   22 ar
  37   21   40 1
  38   23   24 1
  39   24   41 1
  40   24   42 1
  41   24   43 1
  42   25   26 2
  43   25   44 1
  44   26   27 1
  45   26   45 1
  46   27   28 am
  47   27   30 2
  48   28   29 1
  49   28   31 1
  50   29   46 1
  51   31   47 1
  52   31   48 1
  53   31   49 1

#	End of record

