#	Name: ASD03430369
#	Creating user name:	WinNT
#	Creation time:	15. 06. 2019 20:40

#	Modifying user name:	WinNT
#	Modification time:	15. 06. 2019 20:40

#	Program:	/corina/corina34_cracker 3.40 0067  02.08.2006

@<TRIPOS>MOLECULE
ASD03430369
  34   37    0    0    0
SMALL
NO_CHARGES


@<TRIPOS>ATOM
   1 N1            -0.0161     1.3395     0.0094 N.am    
   2 C2             0.0021    -0.0041     0.0020 C.2     
   3 C3             1.4548    -0.4298    -0.0141 C.3     
   4 C4             2.2197     0.8737    -0.0144 C.ar    
   5 C5             3.5641     1.1705    -0.0263 C.ar    
   6 C6             3.9795     2.4906    -0.0239 C.ar    
   7 C7             3.0415     3.5068    -0.0095 C.ar    
   8 C8             1.6940     3.2122     0.0024 C.ar    
   9 C9             1.2680     1.8853     0.0001 C.ar    
  10 O10           -0.9637    -0.7377     0.0076 O.2     
  11 S11            3.1887    -4.9023     2.4179 S.3     
  12 C12            3.1629    -4.7414     4.1165 C.2     
  13 N13            2.7363    -3.5890     4.4725 N.2     
  14 C14            2.3893    -2.7200     3.5039 C.ar    
  15 C15            2.5683    -3.2650     2.2277 C.ar    
  16 C16            1.8956    -1.4043     3.6122 C.ar    
  17 C17            1.5998    -0.6790     2.4803 C.ar    
  18 C18            1.7830    -1.2343     1.2172 C.ar    
  19 C19            2.2637    -2.5177     1.0924 C.ar    
  20 C20            3.5893    -5.8216     5.0770 C.3     
  21 O21            1.1241     0.5895     2.5971 O.3     
  22 O22            1.7436    -1.1801    -1.1956 O.3     
  23 H23           -0.8287     1.8692     0.0162 H       
  24 H24            4.2935     0.3741    -0.0372 H       
  25 H25            5.0333     2.7266    -0.0329 H       
  26 H26            3.3659     4.5370    -0.0072 H       
  27 H27            0.9677     4.0114     0.0136 H       
  28 H28            1.7492    -0.9633     4.5871 H       
  29 H29            2.4054    -2.9466     0.1114 H       
  30 H30            4.6536    -5.7199     5.2889 H       
  31 H31            3.0237    -5.7274     6.0040 H       
  32 H32            3.3989    -6.7986     4.6329 H       
  33 H33            1.8130     1.2679     2.6144 H       
  34 H34            1.2345    -1.9982    -1.2762 H       
@<TRIPOS>BOND
   1    1    2 am
   2    1    9 1
   3    1   23 1
   4    2    3 1
   5    2   10 2
   6    3    4 1
   7    3   18 1
   8    3   22 1
   9    4    5 ar
  10    4    9 ar
  11    5    6 ar
  12    5   24 1
  13    6    7 ar
  14    6   25 1
  15    7    8 ar
  16    7   26 1
  17    8    9 ar
  18    8   27 1
  19   11   12 1
  20   11   15 1
  21   12   13 2
  22   12   20 1
  23   13   14 1
  24   14   15 ar
  25   14   16 ar
  26   15   19 ar
  27   16   17 ar
  28   16   28 1
  29   17   18 ar
  30   17   21 1
  31   18   19 ar
  32   19   29 1
  33   20   30 1
  34   20   31 1
  35   20   32 1
  36   21   33 1
  37   22   34 1

#	End of record

