#	Name: ASD06170066
#	Creating user name:	WinNT
#	Creation time:	15. 06. 2019 21:05

#	Modifying user name:	WinNT
#	Modification time:	15. 06. 2019 21:05

#	Program:	/corina/corina34_cracker 3.40 0067  02.08.2006

@<TRIPOS>MOLECULE
ASD06170066
  80   85    0    0    0
SMALL
NO_CHARGES


@<TRIPOS>ATOM
   1 N1             0.0360     1.5278    -0.3347 N.pl3   
   2 N2            -0.0070     0.1429    -0.1481 N.am    
   3 C3             1.2328    -0.2869     0.1660 C.2     
   4 C4             2.0980     0.9033     0.1751 C.2     
   5 C5             1.2904     1.9780    -0.1416 C.2     
   6 C6             3.5365     0.9411     0.4649 C.2     
   7 O7             4.1350     2.0003     0.4383 O.2     
   8 N8             4.1945    -0.1974     0.7605 N.am    
   9 C9            -1.1446    -0.6621    -0.2668 C.ar    
  10 C10           -2.0170    -0.4813    -1.3323 C.ar    
  11 C11           -3.1392    -1.2781    -1.4469 C.ar    
  12 C12           -3.3949    -2.2549    -0.5019 C.ar    
  13 C13           -2.5283    -2.4374     0.5601 C.ar    
  14 C14           -1.4013    -1.6477     0.6773 C.ar    
  15 O15            1.5691    -1.4334     0.3968 O.2     
  16 C16            1.7377     3.4127    -0.2532 C.3     
  17 C17           -1.1121     2.3643    -0.6931 C.3     
  18 C18           -1.7037     2.9878     0.5726 C.3     
  19 C19           -2.9027     3.8614     0.1983 C.3     
  20 O20           -3.8255     6.7749     3.0606 O.3     
  21 C21           -4.9209     6.2321     2.3185 C.3     
  22 C22           -4.3899     5.5780     1.0401 C.3     
  23 N23           -3.3968     4.5541     1.3958 N.3     
  24 C24           -2.2874     5.1466     2.1571 C.3     
  25 C25           -2.8395     5.8050     3.4243 C.3     
  26 O26           -2.1280     1.9517     1.4606 O.3     
  27 C27            5.5903    -0.1904     0.8728 C.ar    
  28 C28            6.2506     0.9705     1.2542 C.ar    
  29 C29            7.6283     0.9762     1.3653 C.ar    
  30 C30            8.3516    -0.1794     1.0953 C.ar    
  31 C31            7.6913    -1.3377     0.7146 C.ar    
  32 C32            6.3139    -1.3454     0.6086 C.ar    
  33 O33            9.7072    -0.1741     1.2040 O.3     
  34 N34           11.3233    -0.1224     4.9979 N.ar    
  35 C35           10.0244    -0.0329     4.8325 C.ar    
  36 C36            9.4443    -0.0467     3.5706 C.ar    
  37 C37           10.2458    -0.1575     2.4478 C.ar    
  38 C38           11.6431    -0.2533     2.6377 C.ar    
  39 C39           12.5191    -0.3677     1.5484 C.ar    
  40 C40           13.8598    -0.4577     1.7639 C.ar    
  41 C41           14.3784    -0.4375     3.0618 C.ar    
  42 C42           13.5447    -0.3267     4.1516 C.ar    
  43 C43           12.1575    -0.2319     3.9571 C.ar    
  44 O44           15.7206    -0.5288     3.2499 O.3     
  45 C45           16.5334    -0.6421     2.0801 C.3     
  46 F46            8.2717     2.1050     1.7357 F       
  47 H47            3.7012    -1.0217     0.8954 H       
  48 H48           -1.8183     0.2818    -2.0702 H       
  49 H49           -3.8180    -1.1381    -2.2751 H       
  50 H50           -4.2735    -2.8762    -0.5934 H       
  51 H51           -2.7308    -3.2011     1.2964 H       
  52 H52           -0.7227    -1.7935     1.5048 H       
  53 H53            1.6414     3.8999     0.7171 H       
  54 H54            2.7789     3.4447    -0.5741 H       
  55 H55            1.1164     3.9313    -0.9834 H       
  56 H56           -0.7884     3.1546    -1.3704 H       
  57 H57           -1.8685     1.7521    -1.1842 H       
  58 H58           -0.9474     3.6001     1.0637 H       
  59 H59           -2.5982     4.5964    -0.5468 H       
  60 H60           -3.6948     3.2349    -0.2118 H       
  61 H61           -5.4354     5.4850     2.9229 H       
  62 H62           -5.6151     7.0309     2.0574 H       
  63 H63           -5.2145     5.1131     0.4996 H       
  64 H64           -3.9225     6.3354     0.4109 H       
  65 H65           -1.5772     4.3667     2.4320 H       
  66 H66           -1.7864     5.8970     1.5457 H       
  67 H67           -2.0283     6.2948     3.9629 H       
  68 H68           -3.2935     5.0455     4.0609 H       
  69 H69           -2.8023     1.3667     1.0887 H       
  70 H70            5.6879     1.8682     1.4635 H       
  71 H71            8.2538    -2.2354     0.5049 H       
  72 H72            5.8001    -2.2492     0.3160 H       
  73 H73            9.3891     0.0540     5.7016 H       
  74 H74            8.3719     0.0280     3.4661 H       
  75 H75           12.1305    -0.3848     0.5409 H       
  76 H76           14.5309    -0.5460     0.9223 H       
  77 H77           13.9553    -0.3128     5.1504 H       
  78 H78           17.5818    -0.7068     2.3711 H       
  79 H79           16.2533    -1.5395     1.5286 H       
  80 H80           16.3851     0.2337     1.4484 H       
@<TRIPOS>BOND
   1    1    2 1
   2    1    5 1
   3    1   17 1
   4    2    3 am
   5    2    9 1
   6    3    4 1
   7    3   15 2
   8    4    5 2
   9    4    6 1
  10    5   16 1
  11    6    7 2
  12    6    8 am
  13    8   27 1
  14    8   47 1
  15    9   10 ar
  16    9   14 ar
  17   10   11 ar
  18   10   48 1
  19   11   12 ar
  20   11   49 1
  21   12   13 ar
  22   12   50 1
  23   13   14 ar
  24   13   51 1
  25   14   52 1
  26   16   53 1
  27   16   54 1
  28   16   55 1
  29   17   18 1
  30   17   56 1
  31   17   57 1
  32   18   19 1
  33   18   26 1
  34   18   58 1
  35   19   23 1
  36   19   59 1
  37   19   60 1
  38   20   21 1
  39   20   25 1
  40   21   22 1
  41   21   61 1
  42   21   62 1
  43   22   23 1
  44   22   63 1
  45   22   64 1
  46   23   24 1
  47   24   25 1
  48   24   65 1
  49   24   66 1
  50   25   67 1
  51   25   68 1
  52   26   69 1
  53   27   28 ar
  54   27   32 ar
  55   28   29 ar
  56   28   70 1
  57   29   30 ar
  58   29   46 1
  59   30   31 ar
  60   30   33 1
  61   31   32 ar
  62   31   71 1
  63   32   72 1
  64   33   37 1
  65   34   35 ar
  66   34   43 ar
  67   35   36 ar
  68   35   73 1
  69   36   37 ar
  70   36   74 1
  71   37   38 ar
  72   38   39 ar
  73   38   43 ar
  74   39   40 ar
  75   39   75 1
  76   40   41 ar
  77   40   76 1
  78   41   42 ar
  79   41   44 1
  80   42   43 ar
  81   42   77 1
  82   44   45 1
  83   45   78 1
  84   45   79 1
  85   45   80 1

#	End of record

