#	Name: ASD09810013
#	Creating user name:	WinNT
#	Creation time:	15. 06. 2019 21:24

#	Modifying user name:	WinNT
#	Modification time:	15. 06. 2019 21:24

#	Program:	/corina/corina34_cracker 3.40 0067  02.08.2006

@<TRIPOS>MOLECULE
ASD09810013
  45   48    0    0    0
SMALL
NO_CHARGES


@<TRIPOS>ATOM
   1 C1            -0.0164     1.3588     0.0095 C.ar    
   2 C2             0.0021    -0.0041     0.0020 C.ar    
   3 C3             1.2145    -0.6851    -0.0132 C.ar    
   4 C4             2.4419     0.0083    -0.0212 C.ar    
   5 C5             2.4068     1.4136    -0.0129 C.ar    
   6 C6             1.1893     2.0768     0.0019 C.ar    
   7 S7             1.6384    -2.3991    -0.0270 S.3     
   8 N8             3.3166    -2.1740    -0.0421 N.2     
   9 C9             3.5724    -0.9087    -0.0374 C.2     
  10 C10            1.1611     3.5525     0.0096 C.2     
  11 O11            2.2023     4.1805     0.0030 O.2     
  12 N12           -0.0187     4.2039     0.0239 N.am    
  13 C13           -0.0466     5.6686     0.0315 C.3     
  14 C14           -1.4767     6.1437     0.0473 C.ar    
  15 C15           -2.1454     6.3620    -1.1428 C.ar    
  16 C16           -2.1212     6.3554     1.2518 C.ar    
  17 C17           -3.4329     6.7907     1.2669 C.ar    
  18 C18           -4.1010     7.0144     0.0762 C.ar    
  19 C19           -3.4572     6.7972    -1.1290 C.ar    
  20 N20            4.8850    -0.4371    -0.0470 N.3     
  21 C21            5.8444    -1.5501    -0.0616 C.3     
  22 C22            7.2670    -0.9927    -0.1521 C.3     
  23 N23            7.5150    -0.1023     0.9904 N.3     
  24 C24            6.5555     1.0107     1.0050 C.3     
  25 C25            5.1330     0.4533     1.0955 C.3     
  26 Cl26          -5.7486     7.5610     0.0944 Cl      
  27 H27           -0.9589     1.8861     0.0168 H       
  28 H28           -0.9263    -0.5559     0.0083 H       
  29 H29            3.3284     1.9767    -0.0183 H       
  30 H30           -0.8493     3.7029     0.0291 H       
  31 H31            0.4684     6.0372     0.9186 H       
  32 H32            0.4518     6.0462    -0.8613 H       
  33 H33           -1.6426     6.1928    -2.0835 H       
  34 H34           -1.5997     6.1804     2.1812 H       
  35 H35           -3.9364     6.9557     2.2080 H       
  36 H36           -3.9793     6.9681    -2.0588 H       
  37 H37            5.7396    -2.1326     0.8537 H       
  38 H38            5.6483    -2.1880    -0.9234 H       
  39 H39            7.9817    -1.8154    -0.1339 H       
  40 H40            7.3798    -0.4330    -1.0806 H       
  41 H41            7.4888    -0.6137     1.8598 H       
  42 H42            6.7517     1.6487     1.8668 H       
  43 H43            6.6603     1.5932     0.0896 H       
  44 H44            4.4182     1.2761     1.0772 H       
  45 H45            5.0202    -0.1064     2.0240 H       
@<TRIPOS>BOND
   1    1    2 ar
   2    1    6 ar
   3    1   27 1
   4    2    3 ar
   5    2   28 1
   6    3    7 1
   7    3    4 ar
   8    4    5 ar
   9    4    9 1
  10    5    6 ar
  11    5   29 1
  12    6   10 1
  13    7    8 1
  14    8    9 2
  15    9   20 1
  16   10   11 2
  17   10   12 am
  18   12   13 1
  19   12   30 1
  20   13   14 1
  21   13   31 1
  22   13   32 1
  23   14   16 ar
  24   14   15 ar
  25   15   19 ar
  26   15   33 1
  27   16   17 ar
  28   16   34 1
  29   17   18 ar
  30   17   35 1
  31   18   19 ar
  32   18   26 1
  33   19   36 1
  34   20   21 1
  35   20   25 1
  36   21   22 1
  37   21   37 1
  38   21   38 1
  39   22   23 1
  40   22   39 1
  41   22   40 1
  42   23   24 1
  43   23   41 1
  44   24   25 1
  45   24   42 1
  46   24   43 1
  47   25   44 1
  48   25   45 1

#	End of record

