#	Name: ASD01230540
#	Creating user name:	WinNT
#	Creation time:	15. 06. 2019 19:14

#	Modifying user name:	WinNT
#	Modification time:	15. 06. 2019 19:14

#	Program:	/corina/corina34_cracker 3.40 0067  02.08.2006

@<TRIPOS>MOLECULE
ASD01230540
  44   47    0    0    0
SMALL
NO_CHARGES


@<TRIPOS>ATOM
   1 S1            -0.0204     1.6504     0.0111 S.o2    
   2 N2             0.0021    -0.0041     0.0020 N.am    
   3 C3             1.0224    -0.6871    -0.4557 C.2     
   4 N4             2.1689    -0.1515    -0.9716 N.pl3   
   5 C5             2.3935     1.2858    -1.1473 C.3     
   6 C6             1.7501     2.0750    -0.0035 C.3     
   7 C7             0.8946    -2.1587    -0.3951 C.2     
   8 C8             1.9461    -2.9418    -0.8235 C.2     
   9 C9             3.1035    -2.3187    -1.3061 C.2     
  10 C10            3.1896    -0.9776    -1.3653 C.2     
  11 O11           -2.2537    -2.9499     0.9054 O.3     
  12 N12           -1.4091    -2.1540     0.5534 N.2     
  13 C13           -0.3447    -2.7832     0.1188 C.2     
  14 N14           -0.5886    -4.1074     0.2265 N.2     
  15 C15           -1.8053    -4.2023     0.7277 C.2     
  16 C16           -2.5356    -5.4505     1.0351 C.ar    
  17 C17           -3.8256    -5.3954     1.5651 C.ar    
  18 C18           -4.5016    -6.5638     1.8498 C.ar    
  19 C19           -3.9035    -7.7884     1.6109 C.ar    
  20 C20           -2.6249    -7.8500     1.0861 C.ar    
  21 C21           -1.9403    -6.6890     0.7912 C.ar    
  22 C22           -4.6479    -9.0606     1.9243 C.3     
  23 C23           -4.8109    -9.8844     0.6453 C.3     
  24 C24           -3.8609    -9.8711     2.9561 C.3     
  25 O25           -0.6346     2.0064    -1.2198 O.2     
  26 O26           -0.6110     1.9931     1.2573 O.2     
  27 H27            3.4654     1.4829    -1.1617 H       
  28 H28            1.9573     1.6046    -2.0940 H       
  29 H29            1.8742     3.1444    -0.1743 H       
  30 H30            2.2074     1.7938     0.9451 H       
  31 H31            1.8779    -4.0190    -0.7870 H       
  32 H32            3.9368    -2.9220    -1.6348 H       
  33 H33            4.1006    -0.5333    -1.7383 H       
  34 H34           -4.2934    -4.4401     1.7523 H       
  35 H35           -5.4997    -6.5226     2.2602 H       
  36 H36           -2.1633    -8.8090     0.9027 H       
  37 H37           -0.9441    -6.7385     0.3771 H       
  38 H38           -5.6310    -8.8166     2.3270 H       
  39 H39           -3.8279   -10.1284     0.2426 H       
  40 H40           -5.3493   -10.8046     0.8720 H       
  41 H41           -5.3716    -9.3070    -0.0897 H       
  42 H42           -3.7448    -9.2842     3.8673 H       
  43 H43           -4.3993   -10.7913     3.1828 H       
  44 H44           -2.8778   -10.1151     2.5534 H       
@<TRIPOS>BOND
   1    1    2 am
   2    1    6 1
   3    1   25 2
   4    1   26 2
   5    2    3 2
   6    3    4 1
   7    3    7 1
   8    4    5 1
   9    4   10 1
  10    5    6 1
  11    5   27 1
  12    5   28 1
  13    6   29 1
  14    6   30 1
  15    7    8 2
  16    7   13 1
  17    8    9 1
  18    8   31 1
  19    9   10 2
  20    9   32 1
  21   10   33 1
  22   11   12 1
  23   11   15 1
  24   12   13 2
  25   13   14 1
  26   14   15 2
  27   15   16 1
  28   16   17 ar
  29   16   21 ar
  30   17   18 ar
  31   17   34 1
  32   18   19 ar
  33   18   35 1
  34   19   20 ar
  35   19   22 1
  36   20   21 ar
  37   20   36 1
  38   21   37 1
  39   22   23 1
  40   22   24 1
  41   22   38 1
  42   23   39 1
  43   23   40 1
  44   23   41 1
  45   24   42 1
  46   24   43 1
  47   24   44 1

#	End of record

