#	Name: ASD08830267
#	Creating user name:	WinNT
#	Creation time:	15. 06. 2019 21:20

#	Modifying user name:	WinNT
#	Modification time:	15. 06. 2019 21:20

#	Program:	/corina/corina34_cracker 3.40 0067  02.08.2006

@<TRIPOS>MOLECULE
ASD08830267
  70   75    0    0    0
SMALL
NO_CHARGES


@<TRIPOS>ATOM
   1 C1             0.2237     1.4617    -0.1894 C.ar    
   2 C2             0.2955     0.0857    -0.1112 C.ar    
   3 C3             1.5365    -0.5435    -0.0070 C.ar    
   4 C4             2.7010     0.2215     0.0176 C.ar    
   5 C5             2.6192     1.6035    -0.0615 C.ar    
   6 C6             1.3785     2.2211    -0.1651 C.ar    
   7 C7             1.6159    -2.0201     0.0776 C.ar    
   8 C8             0.6263    -2.7579     0.7587 C.ar    
   9 C9             0.7523    -4.1620     0.8079 C.ar    
  10 N10            1.7947    -4.7353     0.2134 N.ar    
  11 C11            2.6999    -4.0033    -0.4143 C.ar    
  12 N12            2.6186    -2.6808    -0.4913 N.ar    
  13 N13            3.7698    -4.6415    -1.0194 N.pl3   
  14 N14            3.7849     2.3758    -0.0368 N.am    
  15 C15           -0.5525    -2.4245     1.4595 C.2     
  16 N16           -1.0979    -3.5233     1.8974 N.2     
  17 N17           -0.3196    -4.6230     1.5144 N.pl3   
  18 C18            4.6801    -3.9056    -1.7889 C.ar    
  19 C19            6.0241    -4.2549    -1.7970 C.ar    
  20 C20            6.9214    -3.5296    -2.5554 C.ar    
  21 C21            6.4798    -2.4508    -3.3103 C.ar    
  22 C22            5.1357    -2.1016    -3.3022 C.ar    
  23 C23            4.2376    -2.8304    -2.5481 C.ar    
  24 N24            7.3893    -1.7154    -4.0787 N.3     
  25 C25            6.7127    -0.6238    -4.7944 C.3     
  26 C26            7.7505     0.1891    -5.5728 C.3     
  27 O27            8.4625    -0.6794    -6.4584 O.3     
  28 C28            9.1339    -1.7537    -5.7948 C.3     
  29 C29            8.1102    -2.5863    -5.0185 C.3     
  30 C30            4.8330     1.9899     0.7176 C.2     
  31 C31            6.0205     2.8511     0.8221 C.2     
  32 O32            4.7967     0.9293     1.3119 O.2     
  33 C33            7.0549     2.4702     1.5666 C.2     
  34 C34           -0.2847    -6.3063     3.2895 C.3     
  35 C35           -0.6076    -6.0266     1.8194 C.3     
  36 O36           -1.9907    -6.2927     1.5779 O.3     
  37 C37           -2.3754    -7.6474     1.8207 C.3     
  38 C38           -2.1235    -7.9922     3.2909 C.3     
  39 C39           -0.6448    -7.7590     3.6159 C.3     
  40 H40           -0.7376     1.9465    -0.2745 H       
  41 H41           -0.6090    -0.5041    -0.1302 H       
  42 H42            3.6642    -0.2604     0.0985 H       
  43 H43            1.3164     3.2975    -0.2270 H       
  44 H44            3.8888    -5.5979    -0.9103 H       
  45 H45            3.8391     3.1892    -0.5625 H       
  46 H46           -0.9374    -1.4264     1.6078 H       
  47 H47            6.3676    -5.0936    -1.2096 H       
  48 H48            7.9667    -3.8011    -2.5614 H       
  49 H49            4.7923    -1.2624    -3.8890 H       
  50 H50            3.1923    -2.5588    -2.5419 H       
  51 H51            5.9824    -1.0409    -5.4877 H       
  52 H52            6.2070     0.0229    -4.0774 H       
  53 H53            7.2470     0.9644    -6.1502 H       
  54 H54            8.4496     0.6502    -4.8752 H       
  55 H55            9.6309    -2.3834    -6.5327 H       
  56 H56            9.8733    -1.3491    -5.1035 H       
  57 H57            8.6245    -3.3721    -4.4652 H       
  58 H58            7.4021    -3.0347    -5.7155 H       
  59 H59            6.0527     3.7928     0.2943 H       
  60 H60            7.0227     1.5285     2.0943 H       
  61 H61            7.9270     3.1027     1.6433 H       
  62 H62            0.7790    -6.1464     3.4656 H       
  63 H63           -0.8647    -5.6359     3.9238 H       
  64 H64            0.0026    -6.6691     1.1846 H       
  65 H65           -3.4345    -7.7706     1.5948 H       
  66 H66           -1.7884    -8.3113     1.1859 H       
  67 H67           -2.7406    -7.3559     3.9252 H       
  68 H68           -2.3748    -9.0380     3.4680 H       
  69 H69           -0.0296    -8.4305     3.0171 H       
  70 H70           -0.4699    -7.9489     4.6748 H       
@<TRIPOS>BOND
   1    1    2 ar
   2    1    6 ar
   3    1   40 1
   4    2    3 ar
   5    2   41 1
   6    3    4 ar
   7    3    7 1
   8    4    5 ar
   9    4   42 1
  10    5    6 ar
  11    5   14 1
  12    6   43 1
  13    7    8 ar
  14    7   12 ar
  15    8    9 ar
  16    8   15 1
  17    9   10 ar
  18    9   17 1
  19   10   11 ar
  20   11   12 ar
  21   11   13 1
  22   13   18 1
  23   13   44 1
  24   14   30 am
  25   14   45 1
  26   15   16 2
  27   15   46 1
  28   16   17 1
  29   17   35 1
  30   18   19 ar
  31   18   23 ar
  32   19   20 ar
  33   19   47 1
  34   20   21 ar
  35   20   48 1
  36   21   22 ar
  37   21   24 1
  38   22   23 ar
  39   22   49 1
  40   23   50 1
  41   24   25 1
  42   24   29 1
  43   25   26 1
  44   25   51 1
  45   25   52 1
  46   26   27 1
  47   26   53 1
  48   26   54 1
  49   27   28 1
  50   28   29 1
  51   28   55 1
  52   28   56 1
  53   29   57 1
  54   29   58 1
  55   30   31 1
  56   30   32 2
  57   31   33 2
  58   31   59 1
  59   33   60 1
  60   33   61 1
  61   34   35 1
  62   34   39 1
  63   34   62 1
  64   34   63 1
  65   35   36 1
  66   35   64 1
  67   36   37 1
  68   37   38 1
  69   37   65 1
  70   37   66 1
  71   38   39 1
  72   38   67 1
  73   38   68 1
  74   39   69 1
  75   39   70 1

#	End of record

