#	Name: ASD01230788
#	Creating user name:	WinNT
#	Creation time:	15. 06. 2019 19:15

#	Modifying user name:	WinNT
#	Modification time:	15. 06. 2019 19:15

#	Program:	/corina/corina34_cracker 3.40 0067  02.08.2006

@<TRIPOS>MOLECULE
ASD01230788
  41   44    0    0    0
SMALL
NO_CHARGES


@<TRIPOS>ATOM
   1 C1            -0.0166     1.3737     0.0096 C.2     
   2 C2             0.0021    -0.0041     0.0020 C.2     
   3 C3            -1.2146    -0.7002     0.0083 C.2     
   4 C4            -2.3849    -0.0394     0.0105 C.2     
   5 N5            -2.4623     1.3312     0.0009 N.pl3   
   6 C6            -1.3175     2.0758     0.0320 C.2     
   7 C7            -3.8098     1.9044    -0.0497 C.3     
   8 C8            -3.8783     3.1902     0.7794 C.3     
   9 S9            -2.6220     4.3262     0.1115 S.o2    
  10 N10           -1.2619     3.3847     0.0817 N.am    
  11 C11            1.2497     2.1409     0.0016 C.ar    
  12 O12           -2.8867     4.6253    -1.2522 O.2     
  13 O13           -2.3214     5.3523     1.0474 O.2     
  14 C14            1.5767     2.9466    -1.0893 C.ar    
  15 C15            2.7567     3.6563    -1.0975 C.ar    
  16 C16            3.6349     3.5777    -0.0181 C.ar    
  17 C17            3.2996     2.7793     1.0701 C.ar    
  18 C18            2.1234     2.0682     1.0885 C.ar    
  19 O19            4.8448     4.1754     0.1653 O.3     
  20 C20            5.1707     4.1643     1.5655 C.3     
  21 C21            4.4215     2.9133     2.0819 C.3     
  22 C22            6.6797     4.0150     1.7695 C.3     
  23 C23            4.6519     5.4289     2.2528 C.3     
  24 H24            0.9399    -0.5395    -0.0090 H       
  25 H25           -1.2115    -1.7802     0.0110 H       
  26 H26           -3.3018    -0.6099     0.0199 H       
  27 H27           -4.0660     2.1300    -1.0849 H       
  28 H28           -4.5230     1.1821     0.3474 H       
  29 H29           -4.8684     3.6374     0.6903 H       
  30 H30           -3.6618     2.9701     1.8248 H       
  31 H31            0.9023     3.0137    -1.9303 H       
  32 H32            3.0034     4.2774    -1.9459 H       
  33 H33            1.8794     1.4479     1.9383 H       
  34 H34            4.0250     3.0824     3.0830 H       
  35 H35            5.0689     2.0366     2.0639 H       
  36 H36            7.1932     4.8635     1.3174 H       
  37 H37            6.9007     3.9831     2.8364 H       
  38 H38            7.0203     3.0921     1.3002 H       
  39 H39            3.5719     5.4965     2.1220 H       
  40 H40            4.8872     5.3870     3.3163 H       
  41 H41            5.1270     6.3042     1.8098 H       
@<TRIPOS>BOND
   1    1    2 2
   2    1   11 1
   3    1    6 1
   4    2    3 1
   5    2   24 1
   6    3    4 2
   7    3   25 1
   8    4    5 1
   9    4   26 1
  10    5    6 1
  11    5    7 1
  12    6   10 2
  13    7    8 1
  14    7   27 1
  15    7   28 1
  16    8    9 1
  17    8   29 1
  18    8   30 1
  19    9   10 am
  20    9   12 2
  21    9   13 2
  22   11   14 ar
  23   11   18 ar
  24   14   15 ar
  25   14   31 1
  26   15   16 ar
  27   15   32 1
  28   16   17 ar
  29   16   19 1
  30   17   18 ar
  31   17   21 1
  32   18   33 1
  33   19   20 1
  34   20   21 1
  35   20   22 1
  36   20   23 1
  37   21   34 1
  38   21   35 1
  39   22   36 1
  40   22   37 1
  41   22   38 1
  42   23   39 1
  43   23   40 1
  44   23   41 1

#	End of record

