#	Name: ASD02198619
#	Creating user name:	WinNT
#	Creation time:	15. 06. 2019 20:19

#	Modifying user name:	WinNT
#	Modification time:	15. 06. 2019 20:19

#	Program:	/corina/corina34_cracker 3.40 0067  02.08.2006

@<TRIPOS>MOLECULE
ASD02198619
  53   56    0    0    0
SMALL
NO_CHARGES


@<TRIPOS>ATOM
   1 C1             0.1117     1.3027    -0.2896 C.2     
   2 C2             0.1537    -0.0427    -0.1195 C.2     
   3 N3             1.3257    -0.6757     0.1129 N.pl3   
   4 N4             2.4516    -0.0674     0.1873 N.2     
   5 C5             2.5528     1.2361     0.0412 C.2     
   6 C6             1.3319     2.0166    -0.2156 C.2     
   7 C7             1.3086    -2.0646     0.2810 C.ar    
   8 C8             2.5033    -2.7706     0.3519 C.ar    
   9 C9             2.4865    -4.1403     0.5177 C.ar    
  10 C10            1.2748    -4.8136     0.6142 C.ar    
  11 C11            0.0800    -4.1075     0.5437 C.ar    
  12 C12            0.0969    -2.7372     0.3828 C.ar    
  13 C13            3.8675     1.9041     0.1338 C.2     
  14 N14            5.0479     1.4421    -0.3694 N.pl3   
  15 N15            6.0406     2.3803    -0.0605 N.2     
  16 C16            5.4939     3.3690     0.6000 C.2     
  17 C17            4.1299     3.1130     0.7392 C.2     
  18 C18            5.2427     0.1883    -1.1017 C.3     
  19 C19            4.9204     0.4065    -2.5813 C.3     
  20 O20            1.3699     3.2295    -0.3594 O.2     
  21 N21            1.2577    -6.2004     0.7816 N.3     
  22 C22           -0.1210    -6.7047     0.8599 C.3     
  23 C23            2.0257    -6.5970     1.9708 C.3     
  24 C24            2.0308    -8.1239     2.0825 C.3     
  25 O25            0.6823    -8.5983     2.1259 O.3     
  26 C26           -0.0944    -8.2305     0.9827 C.3     
  27 C27            5.9281     1.3877    -3.1835 C.3     
  28 C28            5.0028    -0.9289    -3.3235 C.3     
  29 H29           -0.8215     1.8119    -0.4798 H       
  30 H30           -0.7607    -0.6153    -0.1700 H       
  31 H31            3.4451    -2.2473     0.2769 H       
  32 H32            3.4151    -4.6891     0.5721 H       
  33 H33           -0.8618    -4.6309     0.6183 H       
  34 H34           -0.8316    -2.1885     0.3280 H       
  35 H35            6.0121     4.2403     0.9724 H       
  36 H36            3.4104     3.7457     1.2376 H       
  37 H37            6.2786    -0.1351    -0.9993 H       
  38 H38            4.5814    -0.5767    -0.6947 H       
  39 H39            3.9142     0.8142    -2.6777 H       
  40 H40           -0.6157    -6.2779     1.7323 H       
  41 H41           -0.6638    -6.4216    -0.0420 H       
  42 H42            3.0499    -6.2353     1.8799 H       
  43 H43            1.5653    -6.1685     2.8610 H       
  44 H44            2.5390    -8.5504     1.2177 H       
  45 H45            2.5505    -8.4205     2.9936 H       
  46 H46           -1.1118    -8.6042     1.0984 H       
  47 H47            0.3520    -8.6602     0.0859 H       
  48 H48            6.9344     0.9799    -3.0871 H       
  49 H49            5.6985     1.5431    -4.2376 H       
  50 H50            5.8695     2.3390    -2.6547 H       
  51 H51            4.2848    -1.6279    -2.8945 H       
  52 H52            4.7731    -0.7735    -4.3777 H       
  53 H53            6.0090    -1.3367    -3.2272 H       
@<TRIPOS>BOND
   1    1    2 2
   2    1    6 1
   3    1   29 1
   4    2    3 1
   5    2   30 1
   6    3    4 1
   7    3    7 1
   8    4    5 2
   9    5    6 1
  10    5   13 1
  11    6   20 2
  12    7    8 ar
  13    7   12 ar
  14    8    9 ar
  15    8   31 1
  16    9   10 ar
  17    9   32 1
  18   10   11 ar
  19   10   21 1
  20   11   12 ar
  21   11   33 1
  22   12   34 1
  23   13   14 1
  24   13   17 2
  25   14   15 1
  26   14   18 1
  27   15   16 2
  28   16   17 1
  29   16   35 1
  30   17   36 1
  31   18   19 1
  32   18   37 1
  33   18   38 1
  34   19   28 1
  35   19   27 1
  36   19   39 1
  37   21   22 1
  38   21   23 1
  39   22   26 1
  40   22   40 1
  41   22   41 1
  42   23   24 1
  43   23   42 1
  44   23   43 1
  45   24   25 1
  46   24   44 1
  47   24   45 1
  48   25   26 1
  49   26   46 1
  50   26   47 1
  51   27   48 1
  52   27   49 1
  53   27   50 1
  54   28   51 1
  55   28   52 1
  56   28   53 1

#	End of record

