#	Name: ASD08151072
#	Creating user name:	WinNT
#	Creation time:	15. 06. 2019 21:17

#	Modifying user name:	WinNT
#	Modification time:	15. 06. 2019 21:17

#	Program:	/corina/corina34_cracker 3.40 0067  02.08.2006

@<TRIPOS>MOLECULE
ASD08151072
  45   46    0    0    0
SMALL
NO_CHARGES


@<TRIPOS>ATOM
   1 C1            -0.0184     1.5028     0.0103 C.2     
   2 C2             0.0324    -0.0029    -0.0275 C.3     
   3 C3             1.1811     3.6838    -0.0917 C.ar    
   4 C4             1.2265     2.2791     0.0069 C.ar    
   5 C5             2.4603     1.6246     0.1022 C.ar    
   6 C6             3.6332     2.3455     0.1002 C.ar    
   7 C7             3.6072     3.7397     0.0036 C.ar    
   8 C8             2.3765     4.4165    -0.0931 C.ar    
   9 C9            -0.1195     4.3809    -0.1988 C.ar    
  10 C10           -0.5425     5.2343     0.8209 C.ar    
  11 C11           -1.7583     5.8829     0.7158 C.ar    
  12 C12           -2.5568     5.6867    -0.3992 C.ar    
  13 C13           -2.1416     4.8405    -1.4145 C.ar    
  14 C14           -0.9248     4.1917    -1.3224 C.ar    
  15 F15           -2.9253     4.6532    -2.4989 F       
  16 F16           -2.1691     6.7095     1.7023 F       
  17 C17            4.8330     4.4801     0.0029 C.1     
  18 C18            5.8379     5.0870     0.0023 C.1     
  19 N19            2.3471     5.7799    -0.1878 N.2     
  20 N20            3.4492     6.4503    -0.1887 N.2     
  21 N21            3.4191     7.8476    -0.2858 N.pl3   
  22 C22            4.6708     8.6089    -0.2869 C.3     
  23 C23            5.0999     8.8828    -1.7297 C.3     
  24 C24            2.1360     8.5474    -0.3862 C.3     
  25 C25            1.6913     8.9994     1.0063 C.3     
  26 Cl26           5.1545     1.5176     0.2191 Cl      
  27 O27           -1.0887     2.0731     0.0385 O.2     
  28 H28            1.0656    -0.3287    -0.1479 H       
  29 H29           -0.3687    -0.4035     0.9035 H       
  30 H30           -0.5629    -0.3656    -0.8655 H       
  31 H31            2.4922     0.5477     0.1781 H       
  32 H32            0.0789     5.3874     1.6908 H       
  33 H33           -3.5065     6.1950    -0.4770 H       
  34 H34           -0.6000     3.5357    -2.1165 H       
  35 H35            6.7367     5.6298     0.0018 H       
  36 H36            4.5211     9.5549     0.2335 H       
  37 H37            5.4460     8.0342     0.2199 H       
  38 H38            6.0312     9.4492    -1.7305 H       
  39 H39            5.2496     7.9367    -2.2500 H       
  40 H40            4.3246     9.4575    -2.2364 H       
  41 H41            2.2466     9.4180    -1.0327 H       
  42 H42            1.3876     7.8755    -0.8064 H       
  43 H43            0.7366     9.5201     0.9316 H       
  44 H44            1.5807     8.1288     1.6528 H       
  45 H45            2.4397     9.6712     1.4265 H       
@<TRIPOS>BOND
   1    1    2 1
   2    1    4 1
   3    1   27 2
   4    2   28 1
   5    2   29 1
   6    2   30 1
   7    3    4 ar
   8    3    8 ar
   9    3    9 1
  10    4    5 ar
  11    5    6 ar
  12    5   31 1
  13    6    7 ar
  14    6   26 1
  15    7    8 ar
  16    7   17 1
  17    8   19 1
  18    9   10 ar
  19    9   14 ar
  20   10   11 ar
  21   10   32 1
  22   11   12 ar
  23   11   16 1
  24   12   13 ar
  25   12   33 1
  26   13   14 ar
  27   13   15 1
  28   14   34 1
  29   17   18 3
  30   18   35 1
  31   19   20 2
  32   20   21 1
  33   21   22 1
  34   21   24 1
  35   22   23 1
  36   22   36 1
  37   22   37 1
  38   23   38 1
  39   23   39 1
  40   23   40 1
  41   24   25 1
  42   24   41 1
  43   24   42 1
  44   25   43 1
  45   25   44 1
  46   25   45 1

#	End of record

