#	Name: ASD01180019
#	Creating user name:	WinNT
#	Creation time:	15. 06. 2019 19:06

#	Modifying user name:	WinNT
#	Modification time:	15. 06. 2019 19:06

#	Program:	/corina/corina34_cracker 3.40 0067  02.08.2006

@<TRIPOS>MOLECULE
ASD01180019
  32   33    0    0    0
SMALL
NO_CHARGES


@<TRIPOS>ATOM
   1 N1            -0.0157     1.3066     0.0092 N.ar    
   2 C2             0.0021    -0.0041     0.0020 C.ar    
   3 C3             1.2222    -0.7038    -0.0129 C.ar    
   4 N4             2.3693    -0.0500    -0.0203 N.ar    
   5 C5             2.3685     1.2891    -0.0135 C.ar    
   6 C6             3.5723     2.0126    -0.0215 C.ar    
   7 C7             3.5423     3.3748    -0.0149 C.ar    
   8 C8             2.3295     4.0645    -0.0002 C.ar    
   9 C9             1.1435     3.3940     0.0084 C.ar    
  10 C10            1.1366     1.9895     0.0019 C.ar    
  11 S11           -1.5165    -0.8977     0.0117 S.o2    
  12 O12           -1.1855    -2.1447     0.6071 O.2     
  13 O13           -2.4400    -0.0125     0.6306 O.2     
  14 C14           -1.9234    -1.1178    -1.7423 C.3     
  15 Cl15           2.3318     5.8004     0.0079 Cl      
  16 Cl16           5.0331     4.2643    -0.0242 Cl      
  17 S17            1.2198    -2.4658    -0.0213 S.3     
  18 C18            3.0018    -2.7824    -0.0398 C.3     
  19 C19            3.2536    -4.2871     0.0764 C.3     
  20 C20            3.5981    -2.2652    -1.3504 C.3     
  21 H21            4.5181     1.4913    -0.0325 H       
  22 H22            0.2120     3.9405     0.0205 H       
  23 H23           -1.1260    -1.6759    -2.2330 H       
  24 H24           -2.8601    -1.6679    -1.8317 H       
  25 H25           -2.0286    -0.1418    -2.2161 H       
  26 H26            3.4706    -2.2696     0.8001 H       
  27 H27            2.7847    -4.7999    -0.7634 H       
  28 H28            4.3267    -4.4778     0.0653 H       
  29 H29            2.8288    -4.6555     1.0102 H       
  30 H30            4.6712    -2.4559    -1.3615 H       
  31 H31            3.1292    -2.7780    -2.1902 H       
  32 H32            3.4187    -1.1933    -1.4332 H       
@<TRIPOS>BOND
   1    1    2 ar
   2    1   10 ar
   3    2    3 ar
   4    2   11 1
   5    3    4 ar
   6    3   17 1
   7    4    5 ar
   8    5    6 ar
   9    5   10 ar
  10    6    7 ar
  11    6   21 1
  12    7    8 ar
  13    7   16 1
  14    8    9 ar
  15    8   15 1
  16    9   10 ar
  17    9   22 1
  18   11   12 2
  19   11   13 2
  20   11   14 1
  21   14   23 1
  22   14   24 1
  23   14   25 1
  24   17   18 1
  25   18   19 1
  26   18   20 1
  27   18   26 1
  28   19   27 1
  29   19   28 1
  30   19   29 1
  31   20   30 1
  32   20   31 1
  33   20   32 1

#	End of record

