#	Name: ASD03540426
#	Creating user name:	WinNT
#	Creation time:	15. 06. 2019 20:43

#	Modifying user name:	WinNT
#	Modification time:	15. 06. 2019 20:43

#	Program:	/corina/corina34_cracker 3.40 0067  02.08.2006

@<TRIPOS>MOLECULE
ASD03540426
  52   55    0    0    0
SMALL
NO_CHARGES


@<TRIPOS>ATOM
   1 N1            -0.0161     1.3396     0.0094 N.am    
   2 C2             0.0021    -0.0041     0.0020 C.2     
   3 N3             1.1390    -0.7172    -0.0122 N.am    
   4 C4             2.3459    -0.1106    -0.0200 C.2     
   5 C5             2.3857     1.3633    -0.0129 C.ar    
   6 C6             3.5871     2.0607    -0.0197 C.ar    
   7 C7             3.5659     3.4548    -0.0121 C.ar    
   8 C8             2.3437     4.1382     0.0023 C.ar    
   9 C9             1.1622     3.4519     0.0094 C.ar    
  10 C10            1.1637     2.0628     0.0020 C.ar    
  11 C11            4.8337     4.2115    -0.0186 C.2     
  12 O12            5.8952     3.6190    -0.0307 O.2     
  13 N13            4.8141     5.5591    -0.0113 N.am    
  14 C14            6.0721     6.3100    -0.0178 C.3     
  15 C15            5.7753     7.7874    -0.0074 C.ar    
  16 C16            5.6494     8.4577     1.1954 C.ar    
  17 C17            5.3773     9.8120     1.2076 C.ar    
  18 C18            5.2304    10.4996     0.0116 C.ar    
  19 C19            5.3572     9.8248    -1.1939 C.ar    
  20 C20            5.6349     8.4716    -1.2007 C.ar    
  21 O21            4.9624    11.8319     0.0210 O.3     
  22 C22            4.8240    12.4747    -1.2477 C.3     
  23 O23            3.3721    -0.7626    -0.0320 O.2     
  24 O24           -1.0576    -0.5997     0.0089 O.2     
  25 C25           -1.2992     2.0466     0.0193 C.3     
  26 C26            1.0697    -2.1806    -0.0189 C.3     
  27 C27            1.0321    -2.6827    -1.4637 C.3     
  28 C28            1.0769    -4.1957    -1.6872 C.3     
  29 C29           -0.2246    -3.4260    -1.9208 C.3     
  30 H30            4.5271     1.5290    -0.0304 H       
  31 H31            2.3349     5.2181     0.0081 H       
  32 H32            0.2260     3.9901     0.0212 H       
  33 H33            3.9672     6.0319    -0.0017 H       
  34 H34            6.6548     6.0502     0.8660 H       
  35 H35            6.6399     6.0598    -0.9139 H       
  36 H36            5.7635     7.9218     2.1261 H       
  37 H37            5.2787    10.3350     2.1473 H       
  38 H38            5.2433    10.3579    -2.1262 H       
  39 H39            5.7384     7.9468    -2.1390 H       
  40 H40            4.6120    13.5333    -1.0975 H       
  41 H41            5.7496    12.3662    -1.8129 H       
  42 H42            4.0047    12.0150    -1.8005 H       
  43 H43           -2.1134     1.3219     0.0192 H       
  44 H44           -1.3652     2.6671     0.9130 H       
  45 H45           -1.3736     2.6768    -0.8669 H       
  46 H46            1.9463    -2.5881     0.4847 H       
  47 H47            0.1684    -2.5041     0.5017 H       
  48 H48            1.5373    -2.0509    -2.1943 H       
  49 H49            1.6111    -4.5592    -2.5650 H       
  50 H50            1.1331    -4.8333    -0.8049 H       
  51 H51           -1.0247    -3.5573    -1.1923 H       
  52 H52           -0.5466    -3.2832    -2.9523 H       
@<TRIPOS>BOND
   1    1    2 am
   2    1   10 1
   3    1   25 1
   4    2    3 am
   5    2   24 2
   6    3    4 am
   7    3   26 1
   8    4    5 1
   9    4   23 2
  10    5    6 ar
  11    5   10 ar
  12    6    7 ar
  13    6   30 1
  14    7    8 ar
  15    7   11 1
  16    8    9 ar
  17    8   31 1
  18    9   10 ar
  19    9   32 1
  20   11   12 2
  21   11   13 am
  22   13   14 1
  23   13   33 1
  24   14   15 1
  25   14   34 1
  26   14   35 1
  27   15   16 ar
  28   15   20 ar
  29   16   17 ar
  30   16   36 1
  31   17   18 ar
  32   17   37 1
  33   18   19 ar
  34   18   21 1
  35   19   20 ar
  36   19   38 1
  37   20   39 1
  38   21   22 1
  39   22   40 1
  40   22   41 1
  41   22   42 1
  42   25   43 1
  43   25   44 1
  44   25   45 1
  45   26   27 1
  46   26   46 1
  47   26   47 1
  48   27   28 1
  49   27   29 1
  50   27   48 1
  51   28   29 1
  52   28   49 1
  53   28   50 1
  54   29   51 1
  55   29   52 1

#	End of record

