#	Name: ASD03930164
#	Creating user name:	WinNT
#	Creation time:	15. 06. 2019 20:47

#	Modifying user name:	WinNT
#	Modification time:	15. 06. 2019 20:47

#	Program:	/corina/corina34_cracker 3.40 0067  02.08.2006

@<TRIPOS>MOLECULE
ASD03930164
  39   40    0    0    0
SMALL
NO_CHARGES


@<TRIPOS>ATOM
   1 C1            -0.1513     1.7203     0.3293 C.3     
   2 C2             0.0344     0.1901     0.4045 C.3     
   3 C3             1.4928     0.0093    -0.0670 C.3     
   4 C4             2.1836     1.3130     0.2728 C.ar    
   5 C5             3.5296     1.6109     0.3731 C.ar    
   6 C6             3.9372     2.9030     0.7045 C.ar    
   7 C7             2.9781     3.8918     0.9335 C.ar    
   8 C8             1.6391     3.5834     0.8302 C.ar    
   9 C9             1.2381     2.2974     0.5008 C.ar    
  10 C10            5.3752     3.2235     0.8132 C.2     
  11 O11            6.2065     2.3606     0.6137 O.2     
  12 O12            5.7645     4.4727     1.1336 O.3     
  13 S13           -2.3361     2.3097    -1.1519 S.o2    
  14 O14           -2.4992     2.6403    -2.5242 O.2     
  15 O15           -2.9015     1.1230    -0.6120 O.2     
  16 N16           -0.7029     2.1020    -0.9731 N.am    
  17 C17           -2.7285     3.7363    -0.1024 C.3     
  18 C18           -1.9195     4.9490    -0.5669 C.3     
  19 C19           -4.2224     4.0499    -0.2058 C.3     
  20 C20            7.1933     4.7154     1.2226 C.3     
  21 H21           -0.8044     2.0619     1.1323 H       
  22 H22           -0.0888    -0.1653     1.4276 H       
  23 H23           -0.6562    -0.3175    -0.2689 H       
  24 H24            1.9627    -0.8177     0.4653 H       
  25 H25            1.5236    -0.1659    -1.1424 H       
  26 H26            4.2668     0.8419     0.1949 H       
  27 H27            3.2847     4.8948     1.1910 H       
  28 H28            0.8972     4.3480     1.0073 H       
  29 H29           -0.1116     2.2330    -1.7307 H       
  30 H30           -2.4764     3.5062     0.9327 H       
  31 H31           -2.1553     5.8062     0.0636 H       
  32 H32           -0.8552     4.7256    -0.4933 H       
  33 H33           -2.1716     5.1791    -1.6021 H       
  34 H34           -4.7988     3.1860     0.1251 H       
  35 H35           -4.4582     4.9072     0.4248 H       
  36 H36           -4.4746     4.2800    -1.2410 H       
  37 H37            7.6247     4.0691     1.9870 H       
  38 H38            7.6589     4.5012     0.2606 H       
  39 H39            7.3689     5.7582     1.4871 H       
@<TRIPOS>BOND
   1    1    2 1
   2    1    9 1
   3    1   16 1
   4    1   21 1
   5    2    3 1
   6    2   22 1
   7    2   23 1
   8    3    4 1
   9    3   24 1
  10    3   25 1
  11    4    5 ar
  12    4    9 ar
  13    5    6 ar
  14    5   26 1
  15    6    7 ar
  16    6   10 1
  17    7    8 ar
  18    7   27 1
  19    8    9 ar
  20    8   28 1
  21   10   11 2
  22   10   12 1
  23   12   20 1
  24   13   14 2
  25   13   15 2
  26   13   16 am
  27   13   17 1
  28   16   29 1
  29   17   18 1
  30   17   19 1
  31   17   30 1
  32   18   31 1
  33   18   32 1
  34   18   33 1
  35   19   34 1
  36   19   35 1
  37   19   36 1
  38   20   37 1
  39   20   38 1
  40   20   39 1

#	End of record

