#	Name: ASD01910389
#	Creating user name:	WinNT
#	Creation time:	15. 06. 2019 19:55

#	Modifying user name:	WinNT
#	Modification time:	15. 06. 2019 19:55

#	Program:	/corina/corina34_cracker 3.40 0067  02.08.2006

@<TRIPOS>MOLECULE
ASD01910389
  52   55    0    0    0
SMALL
NO_CHARGES


@<TRIPOS>ATOM
   1 C1            -7.0219   -11.0749     0.1598 C.ar    
   2 C2            -5.7908   -10.3441     0.1259 C.1     
   3 C3            -4.7816    -9.7451     0.0980 C.1     
   4 C4            -3.5505    -9.0143     0.0641 C.ar    
   5 C5            -3.3180    -8.0815    -0.9527 C.ar    
   6 C6            -2.1439    -7.3846    -0.9842 C.ar    
   7 C7            -1.1742    -7.6034    -0.0012 C.ar    
   8 C8            -1.4056    -8.5355     1.0147 C.ar    
   9 C9            -2.5819    -9.2286     1.0510 C.ar    
  10 C10            0.0949    -6.8500    -0.0362 C.2     
  11 O11            0.0803    -5.6390    -0.1434 O.2     
  12 N12            1.2698    -7.5047     0.0508 N.am    
  13 C13           -7.2573   -12.0073     1.1740 C.ar    
  14 C14           -8.4453   -12.7073     1.2001 C.ar    
  15 C15           -9.4028   -12.4887     0.2251 C.ar    
  16 C16           -9.1768   -11.5670    -0.7821 C.ar    
  17 C17           -7.9963   -10.8549    -0.8178 C.ar    
  18 C18            1.3029    -8.9580     0.2638 C.3     
  19 C19            2.1649    -9.5971    -0.8295 C.3     
  20 C20            3.5432    -8.9319    -0.8408 C.3     
  21 C21            3.3899    -7.4421    -1.1557 C.3     
  22 C22            2.5417    -6.7795    -0.0717 C.3     
  23 C23            4.1757    -9.0917     0.4787 C.1     
  24 N24            4.6639    -9.2150     1.4970 N.1     
  25 C25            4.4054    -9.5812    -1.8925 C.ar    
  26 C26            5.7022    -9.1449    -2.0891 C.ar    
  27 C27            6.4931    -9.7404    -3.0539 C.ar    
  28 C28            5.9872   -10.7726    -3.8217 C.ar    
  29 C29            4.6907   -11.2096    -3.6245 C.ar    
  30 C30            3.9012   -10.6169    -2.6568 C.ar    
  31 H31           -4.0667    -7.9129    -1.7126 H       
  32 H32           -1.9643    -6.6646    -1.7689 H       
  33 H33           -0.6558    -8.7045     1.7734 H       
  34 H34           -2.7605    -9.9487     1.8358 H       
  35 H35           -6.5107   -12.1795     1.9351 H       
  36 H36           -8.6287   -13.4282     1.9831 H       
  37 H37          -10.3310   -13.0403     0.2503 H       
  38 H38           -9.9285   -11.4019    -1.5398 H       
  39 H39           -7.8213   -10.1360    -1.6045 H       
  40 H40            1.7334    -9.1743     1.2416 H       
  41 H41            0.2904    -9.3582     0.2114 H       
  42 H42            2.2768   -10.6625    -0.6283 H       
  43 H43            1.6857    -9.4577    -1.7985 H       
  44 H44            4.3736    -6.9737    -1.1867 H       
  45 H45            2.8991    -7.3230    -2.1217 H       
  46 H46            2.3474    -5.7418    -0.3431 H       
  47 H47            3.0709    -6.8173     0.8805 H       
  48 H48            6.0975    -8.3384    -1.4892 H       
  49 H49            7.5061    -9.3991    -3.2079 H       
  50 H50            6.6049   -11.2375    -4.5759 H       
  51 H51            4.2954   -12.0158    -4.2246 H       
  52 H52            2.8883   -10.9582    -2.5027 H       
@<TRIPOS>BOND
   1    1    2 1
   2    1   13 ar
   3    1   17 ar
   4    2    3 3
   5    3    4 1
   6    4    5 ar
   7    4    9 ar
   8    5    6 ar
   9    5   31 1
  10    6    7 ar
  11    6   32 1
  12    7    8 ar
  13    7   10 1
  14    8    9 ar
  15    8   33 1
  16    9   34 1
  17   10   11 2
  18   10   12 am
  19   12   18 1
  20   12   22 1
  21   13   14 ar
  22   13   35 1
  23   14   15 ar
  24   14   36 1
  25   15   16 ar
  26   15   37 1
  27   16   17 ar
  28   16   38 1
  29   17   39 1
  30   18   19 1
  31   18   40 1
  32   18   41 1
  33   19   20 1
  34   19   42 1
  35   19   43 1
  36   20   21 1
  37   20   23 1
  38   20   25 1
  39   21   22 1
  40   21   44 1
  41   21   45 1
  42   22   46 1
  43   22   47 1
  44   23   24 3
  45   25   26 ar
  46   25   30 ar
  47   26   27 ar
  48   26   48 1
  49   27   28 ar
  50   27   49 1
  51   28   29 ar
  52   28   50 1
  53   29   30 ar
  54   29   51 1
  55   30   52 1

#	End of record

