#	Name: ASD04880441
#	Creating user name:	WinNT
#	Creation time:	15. 06. 2019 20:53

#	Modifying user name:	WinNT
#	Modification time:	15. 06. 2019 20:53

#	Program:	/corina/corina34_cracker 3.40 0067  02.08.2006

@<TRIPOS>MOLECULE
ASD04880441
  55   58    0    0    0
SMALL
NO_CHARGES


@<TRIPOS>ATOM
   1 C1             0.0812     1.8864     0.8276 C.2     
   2 C2            -0.1631     0.5601     0.1552 C.3     
   3 N3             1.3298     2.3898     0.8913 N.am    
   4 N4             2.4746     1.7853     0.3762 N.2     
   5 C5             3.5553     2.4620     0.5601 C.2     
   6 C6             3.2313     3.7399     1.3006 C.3     
   7 C7             1.7057     3.6707     1.5107 C.3     
   8 C8             4.9008     2.0531     0.1176 C.ar    
   9 C9             6.0023     2.8731     0.3755 C.ar    
  10 C10            7.2599     2.4888    -0.0393 C.ar    
  11 C11            7.4351     1.2889    -0.7134 C.ar    
  12 C12            6.3414     0.4663    -0.9741 C.ar    
  13 C13            5.0785     0.8418    -0.5559 C.ar    
  14 O14            8.6769     0.9153    -1.1209 O.3     
  15 C15            9.7534     1.8060    -0.8213 C.3     
  16 O16           -0.8468     2.5034     1.3072 O.2     
  17 O17            6.5171    -0.7092    -1.6352 O.3     
  18 C18            5.3518    -1.5028    -1.8684 C.3     
  19 C19           -1.6315     0.2272     0.2196 C.ar    
  20 C20           -2.4774     0.6356    -0.7948 C.ar    
  21 C21           -3.8253     0.3314    -0.7390 C.ar    
  22 C22           -4.3298    -0.3817     0.3308 C.ar    
  23 C23           -3.4829    -0.7929     1.3504 C.ar    
  24 C24           -2.1302    -0.4909     1.2894 C.ar    
  25 O25           -3.9768    -1.4946     2.4040 O.3     
  26 C26           -5.2836    -1.8654     2.3673 C.ar    
  27 C27           -5.6478    -3.0713     1.7856 C.ar    
  28 C28           -6.9769    -3.4458     1.7496 C.ar    
  29 C29           -7.9441    -2.6201     2.2925 C.ar    
  30 C30           -7.5838    -1.4176     2.8724 C.ar    
  31 C31           -6.2555    -1.0413     2.9165 C.ar    
  32 H32            0.1510     0.6177    -0.8869 H       
  33 H33            0.4081    -0.2161     0.6645 H       
  34 H34            3.7514     3.7694     2.2580 H       
  35 H35            3.4917     4.6087     0.6960 H       
  36 H36            1.2095     4.5004     1.0074 H       
  37 H37            1.4664     3.6674     2.5741 H       
  38 H38            5.8687     3.8080     0.8995 H       
  39 H39            8.1105     3.1235     0.1607 H       
  40 H40            4.2306     0.2027    -0.7532 H       
  41 H41           10.6863     1.3891    -1.2007 H       
  42 H42            9.5684     2.7711    -1.2930 H       
  43 H43            9.8266     1.9373     0.2583 H       
  44 H44            4.6388    -0.9346    -2.4657 H       
  45 H45            5.6315    -2.4107    -2.4029 H       
  46 H46            4.8963    -1.7685    -0.9144 H       
  47 H47           -2.0849     1.1936    -1.6320 H       
  48 H48           -4.4840     0.6520    -1.5325 H       
  49 H49           -5.3826    -0.6187     0.3741 H       
  50 H50           -1.4689    -0.8098     2.0815 H       
  51 H51           -4.8928    -3.7164     1.3611 H       
  52 H52           -7.2610    -4.3842     1.2966 H       
  53 H53           -8.9827    -2.9147     2.2633 H       
  54 H54           -8.3413    -0.7742     3.2951 H       
  55 H55           -5.9746    -0.1020     3.3696 H       
@<TRIPOS>BOND
   1    1    2 1
   2    1    3 am
   3    1   16 2
   4    2   19 1
   5    2   32 1
   6    2   33 1
   7    3    4 1
   8    3    7 1
   9    4    5 2
  10    5    6 1
  11    5    8 1
  12    6    7 1
  13    6   34 1
  14    6   35 1
  15    7   36 1
  16    7   37 1
  17    8    9 ar
  18    8   13 ar
  19    9   10 ar
  20    9   38 1
  21   10   11 ar
  22   10   39 1
  23   11   12 ar
  24   11   14 1
  25   12   13 ar
  26   12   17 1
  27   13   40 1
  28   14   15 1
  29   15   41 1
  30   15   42 1
  31   15   43 1
  32   17   18 1
  33   18   44 1
  34   18   45 1
  35   18   46 1
  36   19   20 ar
  37   19   24 ar
  38   20   21 ar
  39   20   47 1
  40   21   22 ar
  41   21   48 1
  42   22   23 ar
  43   22   49 1
  44   23   24 ar
  45   23   25 1
  46   24   50 1
  47   25   26 1
  48   26   27 ar
  49   26   31 ar
  50   27   28 ar
  51   27   51 1
  52   28   29 ar
  53   28   52 1
  54   29   30 ar
  55   29   53 1
  56   30   31 ar
  57   30   54 1
  58   31   55 1

#	End of record

