#	Name: ASD04400001
#	Creating user name:	WinNT
#	Creation time:	15. 06. 2019 20:49

#	Modifying user name:	WinNT
#	Modification time:	15. 06. 2019 20:49

#	Program:	/corina/corina34_cracker 3.40 0067  02.08.2006

@<TRIPOS>MOLECULE
ASD04400001
  84   87    0    0    0
SMALL
NO_CHARGES


@<TRIPOS>ATOM
   1 C1             0.0625     1.6431    -0.4492 C.ar    
   2 C2             0.0039     0.2472    -0.3988 C.ar    
   3 C3            -1.2155    -0.3929    -0.4989 C.ar    
   4 C4            -2.3771     0.3433    -0.6486 C.ar    
   5 C5            -2.3274     1.7249    -0.6993 C.ar    
   6 C6            -1.1164     2.3801    -0.5948 C.ar    
   7 Cl7           -1.0566     4.1139    -0.6586 Cl      
   8 Cl8            1.4602    -0.6789    -0.2116 Cl      
   9 C9             1.3615     2.3351    -0.3431 C.2     
  10 O10            1.8348     2.6979     0.8651 O.3     
  11 O11            2.0042     2.5777    -1.3451 O.2     
  12 C12            3.1190     3.3748     0.8938 C.3     
  13 C13            3.4832     3.7009     2.3194 C.2     
  14 C14            4.7781     4.4095     2.6231 C.3     
  15 O15            2.7374     3.3944     3.2183 O.2     
  16 N16            4.7425     4.9256     3.9937 N.am    
  17 C17            5.9428     3.4280     2.4778 C.3     
  18 C18            5.8092     2.3342     3.5059 C.2     
  19 O19            6.7595     1.3921     3.6108 O.3     
  20 O20            4.8468     2.3054     4.2358 O.2     
  21 C21            5.5493     5.9442     4.3513 C.2     
  22 O22            6.3712     6.3707     3.5679 O.2     
  23 C23            5.4303     6.5533     5.7246 C.3     
  24 C24            5.6927     5.5007     6.7775 C.2     
  25 C25            6.1641     5.7968     7.9589 C.2     
  26 C26            6.4853     7.2161     8.3686 C.3     
  27 N27            6.9490     7.9261     7.1732 N.am    
  28 N28            6.4375     7.6050     5.8915 N.am    
  29 C29            7.8354     8.9068     7.0097 C.2     
  30 N30            7.8949     9.2050     5.6929 N.am    
  31 C31            7.0393     8.4071     5.0148 C.2     
  32 O32            8.4786     9.4412     7.8917 O.2     
  33 O33            6.8527     8.4192     3.8138 O.2     
  34 C34            8.7519    10.2313     5.0941 C.3     
  35 C35           10.0979     9.6123     4.7119 C.3     
  36 C36           10.9929    10.6841     4.0865 C.3     
  37 C37           12.3187    10.0745     3.7101 C.2     
  38 O38           13.2688    10.8329     3.1411 O.3     
  39 O39           12.5264     8.9029     3.9204 O.2     
  40 C40            5.2300     7.8940     8.9214 C.3     
  41 C41            5.5911     9.2845     9.4478 C.3     
  42 N42            4.3891     9.9336     9.9771 N.am    
  43 C43            4.4670    11.1744    10.4974 C.2     
  44 C44            3.2305    11.8421    11.0418 C.3     
  45 O45            5.5321    11.7536    10.5276 O.2     
  46 C46            3.5862    13.2117    11.5604 C.ar    
  47 C47            3.5260    14.3064    10.7184 C.ar    
  48 C48            3.8521    15.5627    11.1935 C.ar    
  49 C49            4.2388    15.7245    12.5119 C.ar    
  50 C50            4.2989    14.6285    13.3541 C.ar    
  51 C51            3.9671    13.3736    12.8794 C.ar    
  52 Cl52           4.6491    17.3021    13.1092 Cl      
  53 H53           -1.2625    -1.4712    -0.4605 H       
  54 H54           -3.3278    -0.1632    -0.7267 H       
  55 H55           -3.2386     2.2926    -0.8167 H       
  56 H56            3.8816     2.7258     0.4634 H       
  57 H57            3.0571     4.2962     0.3148 H       
  58 H58            4.9114     5.2371     1.9265 H       
  59 H59            4.1383     4.5342     4.6438 H       
  60 H60            5.9278     2.9916     1.4791 H       
  61 H61            6.8841     3.9562     2.6294 H       
  62 H62            6.6300     0.7110     4.2849 H       
  63 H63            4.4323     6.9705     5.8590 H       
  64 H64            5.4825     4.4673     6.5446 H       
  65 H65            6.3299     4.9996     8.6683 H       
  66 H66            7.2697     7.2143     9.1255 H       
  67 H67            8.2700    10.6320     4.2023 H       
  68 H68            8.9125    11.0351     5.8126 H       
  69 H69           10.5798     9.2116     5.6037 H       
  70 H70            9.9373     8.8085     3.9934 H       
  71 H71           10.5110    11.0849     3.1947 H       
  72 H72           11.1536    11.4879     4.8050 H       
  73 H73           14.1027    10.3974     2.9174 H       
  74 H74            4.4882     7.9872     8.1281 H       
  75 H75            4.8202     7.2932     9.7333 H       
  76 H76            6.3329     9.1913    10.2411 H       
  77 H77            6.0009     9.8853     8.6359 H       
  78 H78            3.5372     9.4704     9.9530 H       
  79 H79            2.4888    11.9353    10.2486 H       
  80 H80            2.8207    11.2413    11.8537 H       
  81 H81            3.2244    14.1799     9.6891 H       
  82 H82            3.8053    16.4179    10.5355 H       
  83 H83            4.6007    14.7542    14.3834 H       
  84 H84            4.0140    12.5179    13.5367 H       
@<TRIPOS>BOND
   1    1    2 ar
   2    1    9 1
   3    1    6 ar
   4    2    3 ar
   5    2    8 1
   6    3    4 ar
   7    3   53 1
   8    4    5 ar
   9    4   54 1
  10    5    6 ar
  11    5   55 1
  12    6    7 1
  13    9   10 1
  14    9   11 2
  15   10   12 1
  16   12   13 1
  17   12   56 1
  18   12   57 1
  19   13   14 1
  20   13   15 2
  21   14   16 1
  22   14   17 1
  23   14   58 1
  24   16   21 am
  25   16   59 1
  26   17   18 1
  27   17   60 1
  28   17   61 1
  29   18   19 1
  30   18   20 2
  31   19   62 1
  32   21   22 2
  33   21   23 1
  34   23   24 1
  35   23   28 1
  36   23   63 1
  37   24   25 2
  38   24   64 1
  39   25   26 1
  40   25   65 1
  41   26   27 1
  42   26   40 1
  43   26   66 1
  44   27   28 1
  45   27   29 am
  46   28   31 am
  47   29   30 am
  48   29   32 2
  49   30   31 am
  50   30   34 1
  51   31   33 2
  52   34   35 1
  53   34   67 1
  54   34   68 1
  55   35   36 1
  56   35   69 1
  57   35   70 1
  58   36   37 1
  59   36   71 1
  60   36   72 1
  61   37   38 1
  62   37   39 2
  63   38   73 1
  64   40   41 1
  65   40   74 1
  66   40   75 1
  67   41   42 1
  68   41   76 1
  69   41   77 1
  70   42   43 am
  71   42   78 1
  72   43   44 1
  73   43   45 2
  74   44   46 1
  75   44   79 1
  76   44   80 1
  77   46   47 ar
  78   46   51 ar
  79   47   48 ar
  80   47   81 1
  81   48   49 ar
  82   48   82 1
  83   49   50 ar
  84   49   52 1
  85   50   51 ar
  86   50   83 1
  87   51   84 1

#	End of record

