#	Name: ASD07930577
#	Creating user name:	WinNT
#	Creation time:	15. 06. 2019 21:12

#	Modifying user name:	WinNT
#	Modification time:	15. 06. 2019 21:12

#	Program:	/corina/corina34_cracker 3.40 0067  02.08.2006

@<TRIPOS>MOLECULE
ASD07930577
  44   46    0    0    0
SMALL
NO_CHARGES


@<TRIPOS>ATOM
   1 C1            -0.0502     1.4821    -0.0094 C.3     
   2 N2             0.7773    -0.3946    -2.1782 N.2     
   3 N3            -0.8979    -1.7688    -1.3026 N.pl3   
   4 C4            -0.9127    -2.8082    -0.2679 C.3     
   5 C5            -1.2240    -2.1653     1.0907 C.3     
   6 S6             0.0077    -0.8612     1.4012 S.o2    
   7 N7            -0.0234     0.0174    -0.0143 N.am    
   8 C8            -0.0231    -0.7068    -1.1980 C.2     
   9 C9             0.4557    -3.4900    -0.2090 C.3     
  10 C10           -1.9712    -3.8296    -0.5958 C.ar    
  11 N11           -2.9585    -4.0401     0.2534 N.ar    
  12 C12           -3.9099    -4.9267     0.0067 C.ar    
  13 C13           -3.8976    -5.6715    -1.1669 C.ar    
  14 C14           -2.8754    -5.4748    -2.0789 C.ar    
  15 C15           -1.8985    -4.5307    -1.7859 C.ar    
  16 O16           -0.4553     0.0438     2.3940 O.2     
  17 O17            1.3184    -1.4077     1.4540 O.2     
  18 F18           -0.8837    -4.3074    -2.6493 F       
  19 N19           -4.9342    -5.1157     0.9333 N.am    
  20 C20           -4.8976    -4.4748     2.1184 C.2     
  21 O21           -3.9274    -3.8068     2.4183 O.2     
  22 C22           -6.0378    -4.5844     3.0539 C.ar    
  23 N23           -7.0953    -5.3157     2.7209 N.ar    
  24 C24           -7.0705    -4.0360     5.1495 C.ar    
  25 C25           -5.9917    -3.9227     4.2829 C.ar    
  26 C26           -8.1291    -5.4394     3.5228 C.ar    
  27 C27           -8.1552    -4.8052     4.7572 C.ar    
  28 Cl28          -9.5298    -4.9795     5.8030 Cl      
  29 F29           -4.9132    -3.1838     4.6236 F       
  30 H30            0.9706     1.8643    -0.0191 H       
  31 H31           -0.5801     1.8388    -0.8927 H       
  32 H32           -0.5611     1.8332     0.8872 H       
  33 H33            0.7641    -0.9119    -2.9987 H       
  34 H34           -1.4993    -1.8299    -2.0612 H       
  35 H35           -2.2231    -1.7299     1.0709 H       
  36 H36           -1.1667    -2.9193     1.8757 H       
  37 H37            1.2200    -2.7506     0.0301 H       
  38 H38            0.4440    -4.2623     0.5601 H       
  39 H39            0.6779    -3.9428    -1.1753 H       
  40 H40           -4.6753    -6.3944    -1.3642 H       
  41 H41           -2.8400    -6.0390    -2.9991 H       
  42 H42           -5.6733    -5.7084     0.7251 H       
  43 H43           -7.0650    -3.5362     6.1069 H       
  44 H44           -8.9708    -6.0430     3.2168 H       
@<TRIPOS>BOND
   1    1    7 1
   2    1   30 1
   3    1   31 1
   4    1   32 1
   5    2    8 2
   6    2   33 1
   7    3    4 1
   8    3    8 1
   9    3   34 1
  10    4    5 1
  11    4    9 1
  12    4   10 1
  13    5    6 1
  14    5   35 1
  15    5   36 1
  16    6    7 am
  17    6   16 2
  18    6   17 2
  19    7    8 1
  20    9   37 1
  21    9   38 1
  22    9   39 1
  23   10   11 ar
  24   10   15 ar
  25   11   12 ar
  26   12   13 ar
  27   12   19 1
  28   13   14 ar
  29   13   40 1
  30   14   15 ar
  31   14   41 1
  32   15   18 1
  33   19   20 am
  34   19   42 1
  35   20   21 2
  36   20   22 1
  37   22   23 ar
  38   22   25 ar
  39   23   26 ar
  40   24   25 ar
  41   24   27 ar
  42   24   43 1
  43   25   29 1
  44   26   27 ar
  45   26   44 1
  46   27   28 1

#	End of record

