#	Name: ASD01230591
#	Creating user name:	WinNT
#	Creation time:	15. 06. 2019 19:14

#	Modifying user name:	WinNT
#	Modification time:	15. 06. 2019 19:14

#	Program:	/corina/corina34_cracker 3.40 0067  02.08.2006

@<TRIPOS>MOLECULE
ASD01230591
  46   49    0    0    0
SMALL
NO_CHARGES


@<TRIPOS>ATOM
   1 C1            -0.0187     1.5258     0.0104 C.3     
   2 C2             0.0021    -0.0041     0.0020 C.3     
   3 O3            -1.3386    -0.4987     0.0122 O.3     
   4 C4            -1.5484    -1.6974     0.6122 C.ar    
   5 C5            -2.8322    -2.2281     0.6524 C.ar    
   6 N6            -0.5269    -2.3472     1.1461 N.ar    
   7 C7            -0.6798    -3.5140     1.7392 C.ar    
   8 C8            -1.9377    -4.1082     1.8240 C.ar    
   9 C9            -3.0392    -3.4493     1.2645 C.ar    
  10 C10           -2.1058    -5.4195     2.4912 C.2     
  11 C11           -1.4773    -6.6328     1.9268 C.2     
  12 C12           -2.8452    -5.5237     3.6491 C.2     
  13 C13           -2.9866    -6.7802     4.2542 C.2     
  14 C14           -2.4214    -7.8722     3.7117 C.2     
  15 N15           -1.6853    -7.8283     2.5536 N.pl3   
  16 C16           -1.1826    -9.1114     2.0558 C.3     
  17 C17            0.1998    -8.9381     1.4203 C.3     
  18 S18            0.0295    -7.7026     0.0939 S.o2    
  19 N19           -0.7461    -6.4532     0.8536 N.am    
  20 O20            1.2976    -7.1736    -0.2685 O.2     
  21 O21           -0.8951    -8.1440    -0.8907 O.2     
  22 C22            1.4167     2.0553    -0.0004 C.3     
  23 C23            2.1328     1.5619    -1.2592 C.3     
  24 C24            2.1536     0.0321    -1.2676 C.3     
  25 C25            0.7182    -0.4975    -1.2568 C.3     
  26 H26           -0.5459     1.8868    -0.8726 H       
  27 H27           -0.5289     1.8773     0.9072 H       
  28 H28            0.5293    -0.3651     0.8851 H       
  29 H29           -3.6588    -1.6917     0.2104 H       
  30 H30            0.1779    -4.0148     2.1633 H       
  31 H31           -4.0271    -3.8831     1.3138 H       
  32 H32           -3.3086    -4.6505     4.0840 H       
  33 H33           -3.5561    -6.8717     5.1673 H       
  34 H34           -2.5475    -8.8223     4.2095 H       
  35 H35           -1.1114    -9.8156     2.8847 H       
  36 H36           -1.8743    -9.5036     1.3102 H       
  37 H37            0.9105    -8.5851     2.1676 H       
  38 H38            0.5384    -9.8865     1.0032 H       
  39 H39            1.4019     3.1452     0.0056 H       
  40 H40            1.9439     1.6943     0.8826 H       
  41 H41            1.6057     1.9230    -2.1423 H       
  42 H42            3.1554     1.9392    -1.2670 H       
  43 H43            2.6638    -0.3194    -2.1644 H       
  44 H44            2.6808    -0.3290    -0.3846 H       
  45 H45            0.7330    -1.5874    -1.2628 H       
  46 H46            0.1910    -0.1364    -2.1398 H       
@<TRIPOS>BOND
   1    1    2 1
   2    1   22 1
   3    1   26 1
   4    1   27 1
   5    2    3 1
   6    2   25 1
   7    2   28 1
   8    3    4 1
   9    4    5 ar
  10    4    6 ar
  11    5    9 ar
  12    5   29 1
  13    6    7 ar
  14    7    8 ar
  15    7   30 1
  16    8    9 ar
  17    8   10 1
  18    9   31 1
  19   10   11 1
  20   10   12 2
  21   11   15 1
  22   11   19 2
  23   12   13 1
  24   12   32 1
  25   13   14 2
  26   13   33 1
  27   14   15 1
  28   14   34 1
  29   15   16 1
  30   16   17 1
  31   16   35 1
  32   16   36 1
  33   17   18 1
  34   17   37 1
  35   17   38 1
  36   18   19 am
  37   18   20 2
  38   18   21 2
  39   22   23 1
  40   22   39 1
  41   22   40 1
  42   23   24 1
  43   23   41 1
  44   23   42 1
  45   24   25 1
  46   24   43 1
  47   24   44 1
  48   25   45 1
  49   25   46 1

#	End of record

