#	Name: ASD01901071
#	Creating user name:	WinNT
#	Creation time:	15. 06. 2019 19:53

#	Modifying user name:	WinNT
#	Modification time:	15. 06. 2019 19:53

#	Program:	/corina/corina34_cracker 3.40 0067  02.08.2006

@<TRIPOS>MOLECULE
ASD01901071
  27   28    0    0    0
SMALL
NO_CHARGES


@<TRIPOS>ATOM
   1 C1            -0.0184     1.5028     0.0103 C.2     
   2 C2             0.0021    -0.0041     0.0020 C.3     
   3 C3             2.4725     1.5850    -0.0130 C.ar    
   4 C4             1.2453     2.2555     0.0023 C.ar    
   5 C5             1.2403     3.6588     0.0094 C.ar    
   6 C6             2.4551     4.3180     0.0009 C.ar    
   7 C7             3.6277     3.5799    -0.0142 C.ar    
   8 N8             3.6028     2.2592    -0.0206 N.ar    
   9 Cl9            5.1552     4.4048    -0.0255 Cl      
  10 O10           -1.3386    -0.4987     0.0122 O.3     
  11 C11           -1.4983    -1.8484     0.0064 C.ar    
  12 C12           -2.7733    -2.3978     0.0157 C.ar    
  13 C13           -2.9327    -3.7705     0.0099 C.ar    
  14 C14           -1.8235    -4.5962    -0.0051 C.ar    
  15 C15           -0.5531    -4.0513    -0.0139 C.ar    
  16 C16           -0.3882    -2.6792    -0.0144 C.ar    
  17 Br17          -4.2902    -1.2689     0.0368 Br      
  18 O18           -1.0766     2.0947     0.0185 O.2     
  19 H19            0.5123    -0.3556    -0.8948 H       
  20 H20            0.5293    -0.3651     0.8851 H       
  21 H21            2.4929     0.5052    -0.0142 H       
  22 H22            0.3113     4.2094     0.0209 H       
  23 H23            2.4900     5.3975     0.0056 H       
  24 H24           -3.9241    -4.1987     0.0174 H       
  25 H25           -1.9500    -5.6688    -0.0096 H       
  26 H26            0.3114    -4.6985    -0.0252 H       
  27 H27            0.6046    -2.2543    -0.0264 H       
@<TRIPOS>BOND
   1    1    2 1
   2    1    4 1
   3    1   18 2
   4    2   10 1
   5    2   19 1
   6    2   20 1
   7    3    4 ar
   8    3    8 ar
   9    3   21 1
  10    4    5 ar
  11    5    6 ar
  12    5   22 1
  13    6    7 ar
  14    6   23 1
  15    7    8 ar
  16    7    9 1
  17   10   11 1
  18   11   12 ar
  19   11   16 ar
  20   12   13 ar
  21   12   17 1
  22   13   14 ar
  23   13   24 1
  24   14   15 ar
  25   14   25 1
  26   15   16 ar
  27   15   26 1
  28   16   27 1

#	End of record

