#	Name: ASD01230145
#	Creating user name:	WinNT
#	Creation time:	15. 06. 2019 19:11

#	Modifying user name:	WinNT
#	Modification time:	15. 06. 2019 19:11

#	Program:	/corina/corina34_cracker 3.40 0067  02.08.2006

@<TRIPOS>MOLECULE
ASD01230145
  38   40    0    0    0
SMALL
NO_CHARGES


@<TRIPOS>ATOM
   1 C1            -0.0914     0.3224     0.5488 C.3     
   2 C2             0.2178    -1.0582     1.1601 C.3     
   3 O3             0.6309    -1.9757     0.1464 O.3     
   4 C4            -0.2718    -2.1401    -0.9442 C.3     
   5 C5            -0.4090    -0.7963    -1.6702 C.3     
   6 C6            -0.9736     0.2243    -0.6792 C.3     
   7 O7             1.1995     0.8732     0.2501 O.3     
   8 C8             2.0473     0.5512     1.3686 C.3     
   9 C9             1.4765    -0.7394     2.0143 C.3     
  10 C10            1.8812     1.6410     2.4484 C.3     
  11 N11            1.8251     0.8961     3.7319 N.3     
  12 C12            1.0110    -0.3064     3.4200 C.3     
  13 C13            3.5051     0.3737     0.9396 C.3     
  14 O14           -2.2865    -0.1792    -0.2846 O.3     
  15 O15           -1.2994    -0.9357    -2.7792 O.3     
  16 C16            3.0625     2.5767     2.4358 C.2     
  17 O17            4.0075     2.3664     3.1588 O.2     
  18 O18            3.0649     3.6437     1.6214 O.3     
  19 C19            3.5787    -0.6205    -0.1905 C.2     
  20 O20            2.5633    -1.0353    -0.6974 O.2     
  21 O21            4.7722    -1.0454    -0.6340 O.3     
  22 H22           -0.5901     0.9457     1.2910 H       
  23 H23           -0.6124    -1.4447     1.7514 H       
  24 H24            0.1182    -2.8900    -1.6325 H       
  25 H25           -1.2457    -2.4547    -0.5692 H       
  26 H26            0.5686    -0.4663    -2.0216 H       
  27 H27           -1.0283     1.2004    -1.1610 H       
  28 H28            2.1945    -1.5593     2.0311 H       
  29 H29            0.9557     2.1946     2.2899 H       
  30 H30            2.7501     0.6366     4.0401 H       
  31 H31           -0.0494    -0.0547     3.4082 H       
  32 H32            1.2069    -1.0963     4.1451 H       
  33 H33            3.9054     1.3316     0.6074 H       
  34 H34            4.0903     0.0084     1.7835 H       
  35 H35           -2.9141    -0.2462    -1.0171 H       
  36 H36           -1.0109    -1.5840    -3.4361 H       
  37 H37            3.8446     4.2150     1.6485 H       
  38 H38            4.7688    -1.6833    -1.3608 H       
@<TRIPOS>BOND
   1    1    2 1
   2    1    7 1
   3    1    6 1
   4    1   22 1
   5    2    3 1
   6    2    9 1
   7    2   23 1
   8    3    4 1
   9    4    5 1
  10    4   24 1
  11    4   25 1
  12    5    6 1
  13    5   15 1
  14    5   26 1
  15    6   14 1
  16    6   27 1
  17    7    8 1
  18    8    9 1
  19    8   13 1
  20    8   10 1
  21    9   12 1
  22    9   28 1
  23   10   11 1
  24   10   16 1
  25   10   29 1
  26   11   12 1
  27   11   30 1
  28   12   31 1
  29   12   32 1
  30   13   19 1
  31   13   33 1
  32   13   34 1
  33   14   35 1
  34   15   36 1
  35   16   17 2
  36   16   18 1
  37   18   37 1
  38   19   20 2
  39   19   21 1
  40   21   38 1

#	End of record

