#	Name: ASD01912039
#	Creating user name:	WinNT
#	Creation time:	15. 06. 2019 19:58

#	Modifying user name:	WinNT
#	Modification time:	15. 06. 2019 19:58

#	Program:	/corina/corina34_cracker 3.40 0067  02.08.2006

@<TRIPOS>MOLECULE
ASD01912039
  29   30    0    0    0
SMALL
NO_CHARGES


@<TRIPOS>ATOM
   1 C1            -0.0167     1.3828     0.0096 C.ar    
   2 C2             0.0021    -0.0041     0.0020 C.ar    
   3 C3            -1.1862    -0.7201     0.0100 C.ar    
   4 C4            -2.3933    -0.0571     0.0251 C.ar    
   5 C5            -2.4194     1.3423     0.0328 C.ar    
   6 C6            -1.2172     2.0583     0.0305 C.ar    
   7 C7             1.2790     2.1523     0.0014 C.3     
   8 C8            -3.7042     2.0566     0.0485 C.2     
   9 C9            -4.9969     1.2821     0.0563 C.3     
  10 O10           -3.7237     3.2692     0.0552 O.2     
  11 C11           -6.1579     2.2428     0.0721 C.2     
  12 C12           -7.5704     1.7175     0.0823 C.3     
  13 O13           -5.9564     3.4334     0.0767 O.2     
  14 F14            1.1828    -0.6605    -0.0137 F       
  15 C15           -8.6559     2.6210     0.6708 C.3     
  16 C16           -8.5835     2.3971    -0.8410 C.3     
  17 H17           -1.1647    -1.7999     0.0040 H       
  18 H18           -3.3176    -0.6157     0.0305 H       
  19 H19           -1.2305     3.1382     0.0368 H       
  20 H20            1.5815     2.3433    -1.0282 H       
  21 H21            1.1418     3.1003     0.5217 H       
  22 H22            2.0506     1.5699     0.5048 H       
  23 H23           -5.0527     0.6594    -0.8366 H       
  24 H24           -5.0363     0.6498     0.9433 H       
  25 H25           -7.6714     0.6433     0.2369 H       
  26 H26           -9.4712     2.1412     1.2122 H       
  27 H27           -8.3484     3.5954     1.0506 H       
  28 H28           -8.2284     3.2242    -1.4558 H       
  29 H29           -9.3512     1.7700    -1.2942 H       
@<TRIPOS>BOND
   1    1    2 ar
   2    1    7 1
   3    1    6 ar
   4    2    3 ar
   5    2   14 1
   6    3    4 ar
   7    3   17 1
   8    4    5 ar
   9    4   18 1
  10    5    6 ar
  11    5    8 1
  12    6   19 1
  13    7   20 1
  14    7   21 1
  15    7   22 1
  16    8    9 1
  17    8   10 2
  18    9   11 1
  19    9   23 1
  20    9   24 1
  21   11   12 1
  22   11   13 2
  23   12   15 1
  24   12   16 1
  25   12   25 1
  26   15   16 1
  27   15   26 1
  28   15   27 1
  29   16   28 1
  30   16   29 1

#	End of record

