#	Name: ASD09800038
#	Creating user name:	WinNT
#	Creation time:	15. 06. 2019 21:24

#	Modifying user name:	WinNT
#	Modification time:	15. 06. 2019 21:24

#	Program:	/corina/corina34_cracker 3.40 0067  02.08.2006

@<TRIPOS>MOLECULE
ASD09800038
  58   63    0    0    0
SMALL
NO_CHARGES


@<TRIPOS>ATOM
   1 C1            -3.2281     1.2292     2.8716 C.2     
   2 N2            -4.3131     0.5722     3.2392 N.2     
   3 C3            -5.0266    -0.1406     2.3579 C.2     
   4 C4            -4.6715    -0.2200     1.0627 C.2     
   5 C5            -2.8146     1.1851     1.5247 C.2     
   6 C6            -1.7586     1.7375     0.8081 C.2     
   7 N7            -3.5495     0.4433     0.6185 N.pl3   
   8 C8            -2.9488     0.5685    -0.5785 C.2     
   9 N9            -1.8935     1.3340    -0.4660 N.2     
  10 C10           -0.6908     2.6047     1.3462 C.ar    
  11 C11            0.1736     4.8258     1.8936 C.ar    
  12 C12            1.3570     4.2245     2.3743 C.ar    
  13 C13            1.4971     2.8530     2.3303 C.ar    
  14 C14            0.4866     2.0485     1.8218 C.ar    
  15 C15           -0.8606     4.0114     1.3743 C.ar    
  16 N16            2.3851     5.0167     2.8893 N.am    
  17 C17            3.6489     4.5491     2.9128 C.2     
  18 N18            4.6224     5.2677     3.5063 N.am    
  19 O19            3.9108     3.4788     2.3987 O.2     
  20 C20            5.9129     4.7386     3.6190 C.ar    
  21 C21            7.9526     4.4840     4.8555 C.ar    
  22 C22            6.6789     5.0076     4.7456 C.ar    
  23 C23            6.4275     3.9390     2.6073 C.ar    
  24 C24            7.7033     3.4172     2.7222 C.ar    
  25 C25            8.4659     3.6920     3.8456 C.ar    
  26 N26           -2.5059     1.9599     3.8002 N.pl3   
  27 C27           -3.4182    -0.0787    -1.8559 C.3     
  28 C28           -4.8329     0.2509    -2.3366 C.3     
  29 C29           -3.6213     0.8259    -3.0731 C.3     
  30 C30           -2.8989    -1.4958    -2.1072 C.3     
  31 C31            0.0050     6.2195     1.9199 C.ar    
  32 C32           -2.0346     4.6101     0.8963 C.ar    
  33 C33           -2.1661     5.9656     0.9373 C.ar    
  34 C34           -1.1486     6.7681     1.4479 C.ar    
  35 F35            8.2057     2.6389     1.7388 F       
  36 H36           -5.9085    -0.6649     2.6954 H       
  37 H37           -5.2645    -0.8026     0.3733 H       
  38 H38            2.4045     2.3984     2.6994 H       
  39 H39            0.6190     0.9769     1.7968 H       
  40 H40            2.1897     5.9036     3.2301 H       
  41 H41            4.4286     6.1518     3.8552 H       
  42 H42            8.5481     4.6938     5.7317 H       
  43 H43            6.2792     5.6263     5.5355 H       
  44 H44            5.8324     3.7244     1.7320 H       
  45 H45            9.4620     3.2842     3.9339 H       
  46 H46           -2.7421     1.9181     4.7401 H       
  47 H47           -1.7638     2.5135     3.5108 H       
  48 H48           -5.3935    -0.5417    -2.8321 H       
  49 H49           -5.4241     0.9359    -1.7288 H       
  50 H50           -3.4154     1.8892    -2.9498 H       
  51 H51           -3.3849     0.4116    -4.0531 H       
  52 H52           -3.1811    -2.1392    -1.2738 H       
  53 H53           -3.3329    -1.8837    -3.0288 H       
  54 H54           -1.8130    -1.4741    -2.1980 H       
  55 H55            0.7864     6.8533     2.3125 H       
  56 H56           -2.8312     3.9997     0.4971 H       
  57 H57           -3.0716     6.4242     0.5684 H       
  58 H58           -1.2760     7.8403     1.4691 H       
@<TRIPOS>BOND
   1    1    2 2
   2    1   26 1
   3    1    5 1
   4    2    3 1
   5    3    4 2
   6    3   36 1
   7    4    7 1
   8    4   37 1
   9    5    7 1
  10    5    6 2
  11    6    9 1
  12    6   10 1
  13    7    8 1
  14    8    9 2
  15    8   27 1
  16   10   15 ar
  17   10   14 ar
  18   11   12 ar
  19   11   15 ar
  20   11   31 ar
  21   12   13 ar
  22   12   16 1
  23   13   14 ar
  24   13   38 1
  25   14   39 1
  26   15   32 ar
  27   16   17 am
  28   16   40 1
  29   17   18 am
  30   17   19 2
  31   18   20 1
  32   18   41 1
  33   20   23 ar
  34   20   22 ar
  35   21   22 ar
  36   21   25 ar
  37   21   42 1
  38   22   43 1
  39   23   24 ar
  40   23   44 1
  41   24   25 ar
  42   24   35 1
  43   25   45 1
  44   26   46 1
  45   26   47 1
  46   27   28 1
  47   27   29 1
  48   27   30 1
  49   28   29 1
  50   28   48 1
  51   28   49 1
  52   29   50 1
  53   29   51 1
  54   30   52 1
  55   30   53 1
  56   30   54 1
  57   31   34 ar
  58   31   55 1
  59   32   33 ar
  60   32   56 1
  61   33   34 ar
  62   33   57 1
  63   34   58 1

#	End of record

