#	Name: ASD02560482
#	Creating user name:	WinNT
#	Creation time:	15. 06. 2019 20:25

#	Modifying user name:	WinNT
#	Modification time:	15. 06. 2019 20:25

#	Program:	/corina/corina34_cracker 3.40 0067  02.08.2006

@<TRIPOS>MOLECULE
ASD02560482
  40   43    0    0    0
SMALL
NO_CHARGES


@<TRIPOS>ATOM
   1 C1            -0.0050     1.4165     0.0632 C.2     
   2 C2             0.0087     0.0118    -0.0049 C.2     
   3 C3             1.1784    -0.6578    -0.0252 C.2     
   4 N4             2.3687     0.0173     0.0205 N.pl3   
   5 C5             2.3867     1.3918     0.0875 C.2     
   6 C6             1.1677     2.1023     0.1088 C.2     
   7 C7             3.6687    -0.4068     0.0136 C.2     
   8 C8             4.4573     0.7226     0.0767 C.2     
   9 N9             3.6461     1.7954     0.1203 N.2     
  10 C10            5.9388     0.7501     0.0941 C.ar    
  11 N11            4.1121    -1.7286    -0.0459 N.3     
  12 C12            2.9887    -2.6669     0.0792 C.3     
  13 C13            2.3641    -2.9530    -1.3090 C.3     
  14 C14            6.6268     1.7834    -0.5413 C.ar    
  15 C15            6.6495    -0.2541     0.7507 C.ar    
  16 C16            8.0061     1.8046    -0.5224 C.ar    
  17 C17            8.7078     0.8012     0.1260 C.ar    
  18 C18            8.0287    -0.2242     0.7640 C.ar    
  19 F19           10.0585     0.8260     0.1414 F       
  20 C20            3.4873    -4.0449     0.5610 C.3     
  21 C21            2.6549    -5.1002    -0.1883 C.3     
  22 C22            1.6795    -4.3265    -1.0992 C.3     
  23 H23           -0.9446     1.9490     0.0747 H       
  24 H24           -0.9229    -0.5333    -0.0408 H       
  25 H25            1.1767    -1.7365    -0.0776 H       
  26 H26            1.1666     3.1810     0.1615 H       
  27 H27            4.6317    -1.8979    -0.8941 H       
  28 H28            2.2377    -2.2723     0.7637 H       
  29 H29            1.6291    -2.1904    -1.5664 H       
  30 H30            3.1374    -3.0197    -2.0742 H       
  31 H31            6.0807     2.5656    -1.0477 H       
  32 H32            6.1210    -1.0538     1.2483 H       
  33 H33            8.5398     2.6044    -1.0142 H       
  34 H34            8.5801    -1.0041     1.2682 H       
  35 H35            4.5440    -4.1642     0.3218 H       
  36 H36            3.3340    -4.1427     1.6358 H       
  37 H37            3.3077    -5.7315    -0.7911 H       
  38 H38            2.0976    -5.7100     0.5228 H       
  39 H39            0.7155    -4.2010    -0.6064 H       
  40 H40            1.5577    -4.8415    -2.0522 H       
@<TRIPOS>BOND
   1    1    2 1
   2    1    6 2
   3    1   23 1
   4    2    3 2
   5    2   24 1
   6    3    4 1
   7    3   25 1
   8    4    5 1
   9    4    7 1
  10    5    6 1
  11    5    9 2
  12    6   26 1
  13    7    8 2
  14    7   11 1
  15    8    9 1
  16    8   10 1
  17   10   14 ar
  18   10   15 ar
  19   11   12 1
  20   11   27 1
  21   12   20 1
  22   12   13 1
  23   12   28 1
  24   13   22 1
  25   13   29 1
  26   13   30 1
  27   14   16 ar
  28   14   31 1
  29   15   18 ar
  30   15   32 1
  31   16   17 ar
  32   16   33 1
  33   17   18 ar
  34   17   19 1
  35   18   34 1
  36   20   21 1
  37   20   35 1
  38   20   36 1
  39   21   22 1
  40   21   37 1
  41   21   38 1
  42   22   39 1
  43   22   40 1

#	End of record

