#	Name: ASD05740104
#	Creating user name:	WinNT
#	Creation time:	15. 06. 2019 21:02

#	Modifying user name:	WinNT
#	Modification time:	15. 06. 2019 21:02

#	Program:	/corina/corina34_cracker 3.40 0067  02.08.2006

@<TRIPOS>MOLECULE
ASD05740104
  52   53    0    0    0
SMALL
NO_CHARGES


@<TRIPOS>ATOM
   1 C1            -0.2158     1.4688     0.2750 C.3     
   2 C2             1.3036    -0.5999    -0.0900 C.2     
   3 C3             1.4019    -2.0410    -0.2923 C.2     
   4 C4            -0.0427    -0.0131     0.0625 C.2     
   5 C5            -1.1184    -0.8333     0.0080 C.2     
   6 C6            -0.9545    -2.2168    -0.1896 C.2     
   7 O7             0.2501    -2.7812    -0.3314 O.3     
   8 C8            -2.5035    -0.2596     0.1608 C.3     
   9 C9            -3.0887     0.0100    -1.2016 C.ar    
  10 C10           -2.9859     1.2710    -1.7608 C.ar    
  11 O11           -1.9441    -2.9254    -0.2330 O.2     
  12 C12           -4.2625    -0.7539    -3.1514 C.ar    
  13 C13           -4.1620     0.5146    -3.7055 C.ar    
  14 C14           -3.5212     1.5225    -3.0102 C.ar    
  15 N15           -4.9103    -1.7757    -3.8527 N.am    
  16 S16           -6.2281    -1.4279    -4.7933 S.o2    
  17 O17           -6.6541    -2.6601    -5.3585 O.2     
  18 O18           -7.0742    -0.5994    -4.0079 O.2     
  19 C19            2.6779    -2.4535    -0.4172 C.2     
  20 S20            3.7892    -1.1052    -0.2924 S.3     
  21 C21            2.5275     0.0151    -0.0775 C.2     
  22 N22            3.0651    -3.7843    -0.6199 N.pl3   
  23 N23           -5.6979    -0.4937    -6.0536 N.am    
  24 C24           -4.7702    -1.0527    -7.0401 C.3     
  25 C25           -3.7229    -1.0047    -1.8939 C.ar    
  26 F26           -3.8182    -2.2379    -1.3504 F       
  27 C27            4.4850    -4.1235    -0.7425 C.3     
  28 H28            0.7618     1.9505     0.2888 H       
  29 H29           -0.8144     1.8845    -0.5356 H       
  30 H30           -0.7202     1.6430     1.2254 H       
  31 H31           -3.1348    -0.9711     0.6931 H       
  32 H32           -2.4509     0.6720     0.7243 H       
  33 H33           -2.4864     2.0611    -1.2198 H       
  34 H34           -4.5839     0.7139    -4.6795 H       
  35 H35           -3.4389     2.5083    -3.4435 H       
  36 H36           -4.5877    -2.6883    -3.7881 H       
  37 H37            2.6733     1.0767     0.0573 H       
  38 H38            2.3931    -4.4813    -0.6792 H       
  39 H39           -6.0016     0.4236    -6.1387 H       
  40 H40           -4.5360    -0.2955    -7.7884 H       
  41 H41           -3.8534    -1.3654    -6.5403 H       
  42 H42           -5.2310    -1.9129    -7.5256 H       
  43 H43            4.5901    -5.1977    -0.8950 H       
  44 H44            4.9135    -3.5922    -1.5923 H       
  45 H45            5.0079    -3.8330     0.1687 H       
  46 C46           10.5351    10.1776     8.0937 C.3     
  47 N47           10.5550     8.7128     8.0857 N.2     
  48 C48           11.0957     8.1002     7.1397 C.1     
  49 O49           11.6183     7.5083     6.2254 O.2     
  50 H50           11.5577    10.5549     8.0860 H       
  51 H51           10.0079    10.5387     7.2107 H       
  52 H52           10.0249    10.5291     8.9905 H       
@<TRIPOS>BOND
   1    1    4 1
   2    1   28 1
   3    1   29 1
   4    1   30 1
   5    2    3 1
   6    2    4 1
   7    2   21 2
   8    3   19 2
   9    3    7 1
  10    4    5 2
  11    5    6 1
  12    5    8 1
  13    6    7 1
  14    6   11 2
  15    8    9 1
  16    8   31 1
  17    8   32 1
  18    9   10 ar
  19    9   25 ar
  20   10   14 ar
  21   10   33 1
  22   12   13 ar
  23   12   15 1
  24   12   25 ar
  25   13   14 ar
  26   13   34 1
  27   14   35 1
  28   15   16 am
  29   15   36 1
  30   16   17 2
  31   16   18 2
  32   16   23 am
  33   19   20 1
  34   19   22 1
  35   20   21 1
  36   21   37 1
  37   22   27 1
  38   22   38 1
  39   23   24 1
  40   23   39 1
  41   24   40 1
  42   24   41 1
  43   24   42 1
  44   25   26 1
  45   27   43 1
  46   27   44 1
  47   27   45 1
  48   46   47 1
  49   46   50 1
  50   46   51 1
  51   46   52 1
  52   47   48 2
  53   48   49 2

#	End of record

