#	Name: ASD01880025
#	Creating user name:	WinNT
#	Creation time:	15. 06. 2019 19:39

#	Modifying user name:	WinNT
#	Modification time:	15. 06. 2019 19:39

#	Program:	/corina/corina34_cracker 3.40 0067  02.08.2006

@<TRIPOS>MOLECULE
ASD01880025
  54   55    0    0    0
SMALL
NO_CHARGES


@<TRIPOS>ATOM
   1 C1            -0.0241     1.4696    -0.0943 C.2     
   2 C2            -0.0035    -0.0049    -0.0964 C.ar    
   3 C3            -1.2032    -0.7226    -0.0993 C.ar    
   4 C4            -1.1795    -2.0992    -0.1017 C.ar    
   5 C5             0.0350    -2.7754    -0.1013 C.ar    
   6 C6             1.2303    -2.0656    -0.0985 C.ar    
   7 C7             1.2156    -0.6889    -0.1014 C.ar    
   8 C8             3.6512   -10.4653    -0.1085 C.ar    
   9 C9             2.4531   -11.1747    -0.1108 C.ar    
  10 C10            2.4584   -12.5392    -0.1180 C.ar    
  11 C11            3.6740   -13.2364    -0.1235 C.ar    
  12 C12            4.8862   -12.5225    -0.1216 C.ar    
  13 C13            4.8646   -11.1388    -0.1138 C.ar    
  14 O14            6.0688   -13.1862    -0.1265 O.3     
  15 C15            3.6825   -14.7013    -0.1308 C.2     
  16 C16            2.3880   -15.4629    -0.0072 C.3     
  17 O17            4.7317   -15.3014    -0.2362 O.2     
  18 O18            0.0539    -4.1323    -0.1033 O.3     
  19 C19            1.3361    -4.7633    -0.1028 C.3     
  20 C20            2.3502    -8.4777    -0.1070 C.3     
  21 C21            1.1567    -6.2827    -0.1052 C.3     
  22 C22            2.5295    -6.9583    -0.1046 C.3     
  23 O23            3.6323    -9.1087    -0.1065 O.3     
  24 C24            6.1573   -10.3642    -0.1122 C.3     
  25 C25            6.5917   -10.0940    -1.5541 C.3     
  26 C26            7.9041    -9.3076    -1.5525 C.3     
  27 O27            1.1334     2.1595    -0.0916 O.3     
  28 O28           -1.0847     2.0624    -0.1001 O.2     
  29 H29           -2.1472    -0.1980    -0.0992 H       
  30 H30           -2.1059    -2.6544    -0.1035 H       
  31 H31            2.1717    -2.5949    -0.0979 H       
  32 H32            2.1446    -0.1382    -0.0996 H       
  33 H33            1.5138   -10.6417    -0.1066 H       
  34 H34            1.5249   -13.0824    -0.1191 H       
  35 H35            6.4106   -13.3743    -1.0113 H       
  36 H36            1.5707   -14.7639     0.1707 H       
  37 H37            2.2009   -16.0135    -0.9292 H       
  38 H38            2.4559   -16.1621     0.8262 H       
  39 H39            1.8899    -4.4614    -0.9917 H       
  40 H40            1.8879    -4.4640     0.7883 H       
  41 H41            1.7963    -8.7796     0.7819 H       
  42 H42            1.7983    -8.7770    -0.9981 H       
  43 H43            0.6029    -6.5846     0.7838 H       
  44 H44            0.6048    -6.5820    -0.9962 H       
  45 H45            3.0814    -6.6590     0.7864 H       
  46 H46            3.0834    -6.6564    -0.9936 H       
  47 H47            6.0126    -9.4170     0.4073 H       
  48 H48            6.9275   -10.9438     0.3967 H       
  49 H49            6.7363   -11.0412    -2.0736 H       
  50 H50            5.8215    -9.5144    -2.0631 H       
  51 H51            8.2136    -9.1150    -2.5798 H       
  52 H52            7.7594    -8.3603    -1.0330 H       
  53 H53            8.6743    -9.8871    -1.0436 H       
  54 H54            1.0694     3.1244    -0.0903 H       
@<TRIPOS>BOND
   1    1    2 1
   2    1   27 1
   3    1   28 2
   4    2    3 ar
   5    2    7 ar
   6    3    4 ar
   7    3   29 1
   8    4    5 ar
   9    4   30 1
  10    5    6 ar
  11    5   18 1
  12    6    7 ar
  13    6   31 1
  14    7   32 1
  15    8    9 ar
  16    8   13 ar
  17    8   23 1
  18    9   10 ar
  19    9   33 1
  20   10   11 ar
  21   10   34 1
  22   11   12 ar
  23   11   15 1
  24   12   13 ar
  25   12   14 1
  26   13   24 1
  27   14   35 1
  28   15   16 1
  29   15   17 2
  30   16   36 1
  31   16   37 1
  32   16   38 1
  33   18   19 1
  34   19   21 1
  35   19   39 1
  36   19   40 1
  37   20   23 1
  38   20   22 1
  39   20   41 1
  40   20   42 1
  41   21   22 1
  42   21   43 1
  43   21   44 1
  44   22   45 1
  45   22   46 1
  46   24   25 1
  47   24   47 1
  48   24   48 1
  49   25   26 1
  50   25   49 1
  51   25   50 1
  52   26   51 1
  53   26   52 1
  54   26   53 1
  55   27   54 1

#	End of record

