#	Name: ASD02030588
#	Creating user name:	WinNT
#	Creation time:	15. 06. 2019 20:15

#	Modifying user name:	WinNT
#	Modification time:	15. 06. 2019 20:15

#	Program:	/corina/corina34_cracker 3.40 0067  02.08.2006

@<TRIPOS>MOLECULE
ASD02030588
  50   52    0    0    0
SMALL
NO_CHARGES


@<TRIPOS>ATOM
   1 C1            -0.7315     1.8114     2.3473 C.ar    
   2 C2            -0.7041     0.4833     1.9189 C.ar    
   3 C3             0.5127    -0.1077     1.5749 C.ar    
   4 C4             1.6796     0.6233     1.6603 C.ar    
   5 C5             1.6455     1.9394     2.0857 C.ar    
   6 C6             0.4427     2.5312     2.4281 C.ar    
   7 C7            -1.9584    -0.2942     1.8302 C.2     
   8 N8            -1.9286    -1.5765     1.4162 N.am    
   9 O9            -3.0166     0.2229     2.1308 O.2     
  10 N10           -3.1172    -2.3133     1.3322 N.am    
  11 C11           -3.0874    -3.5955     0.9182 C.2     
  12 C12           -4.3418    -4.3731     0.8296 C.ar    
  13 O13           -2.0293    -4.1127     0.6177 O.2     
  14 C14           -5.4884    -6.4212     0.3208 C.ar    
  15 C15           -6.6912    -5.8295     0.6636 C.ar    
  16 C16           -6.7260    -4.5116     1.0836 C.ar    
  17 C17           -5.5592    -3.7805     1.1685 C.ar    
  18 C18           -4.3144    -5.7012     0.4012 C.ar    
  19 C19           -7.9698    -6.6221     0.5733 C.3     
  20 N20           -8.2174    -7.2967     1.8500 N.am    
  21 S21           -9.6981    -7.9720     2.1561 S.o2    
  22 O22           -9.6250    -8.5233     3.4638 O.2     
  23 O23          -10.6668    -7.0056     1.7731 O.2     
  24 C24           -9.8891    -9.3324     1.0527 C.ar    
  25 C25          -10.9100    -9.3284     0.1211 C.ar    
  26 C26          -11.0600   -10.3959    -0.7448 C.ar    
  27 C27          -10.1886   -11.4667    -0.6790 C.ar    
  28 C28           -9.1668   -11.4702     0.2523 C.ar    
  29 C29           -9.0143   -10.4012     1.1150 C.ar    
  30 N30           -7.9203   -10.4049     2.1121 N.pl3   
  31 O31           -7.2335   -11.4001     2.2588 O.2     
  32 O32           -7.7069    -9.4129     2.7858 O.2     
  33 H33           -1.6703     2.2759     2.6106 H       
  34 H34            0.5407    -1.1351     1.2431 H       
  35 H35            2.6218     0.1671     1.3948 H       
  36 H36            2.5619     2.5072     2.1511 H       
  37 H37            0.4229     3.5590     2.7595 H       
  38 H38           -1.0842    -1.9892     1.1764 H       
  39 H39           -3.9617    -1.9006     1.5721 H       
  40 H40           -5.4681    -7.4504    -0.0060 H       
  41 H41           -7.6682    -4.0556     1.3498 H       
  42 H42           -5.5877    -2.7520     1.4967 H       
  43 H43           -3.3762    -6.1641     0.1329 H       
  44 H44           -8.7988    -5.9503     0.3506 H       
  45 H45           -7.8814    -7.3652    -0.2192 H       
  46 H46           -7.5139    -7.3478     2.5159 H       
  47 H47          -11.5909    -8.4917     0.0696 H       
  48 H48          -11.8582   -10.3931    -1.4723 H       
  49 H49          -10.3061   -12.3008    -1.3548 H       
  50 H50           -8.4861   -12.3071     0.3040 H       
@<TRIPOS>BOND
   1    1    2 ar
   2    1    6 ar
   3    1   33 1
   4    2    3 ar
   5    2    7 1
   6    3    4 ar
   7    3   34 1
   8    4    5 ar
   9    4   35 1
  10    5    6 ar
  11    5   36 1
  12    6   37 1
  13    7    8 am
  14    7    9 2
  15    8   10 1
  16    8   38 1
  17   10   11 am
  18   10   39 1
  19   11   12 1
  20   11   13 2
  21   12   18 ar
  22   12   17 ar
  23   14   15 ar
  24   14   18 ar
  25   14   40 1
  26   15   16 ar
  27   15   19 1
  28   16   17 ar
  29   16   41 1
  30   17   42 1
  31   18   43 1
  32   19   20 1
  33   19   44 1
  34   19   45 1
  35   20   21 am
  36   20   46 1
  37   21   22 2
  38   21   23 2
  39   21   24 1
  40   24   25 ar
  41   24   29 ar
  42   25   26 ar
  43   25   47 1
  44   26   27 ar
  45   26   48 1
  46   27   28 ar
  47   27   49 1
  48   28   29 ar
  49   28   50 1
  50   29   30 1
  51   30   31 2
  52   30   32 2

#	End of record

