#	Name: ASD01913511
#	Creating user name:	WinNT
#	Creation time:	15. 06. 2019 20:01

#	Modifying user name:	WinNT
#	Modification time:	15. 06. 2019 20:01

#	Program:	/corina/corina34_cracker 3.40 0067  02.08.2006

@<TRIPOS>MOLECULE
ASD01913511
  42   44    0    0    0
SMALL
NO_CHARGES


@<TRIPOS>ATOM
   1 C1            -0.3779     0.7134    -1.9319 C.ar    
   2 C2             0.0213     0.0172    -0.7935 C.ar    
   3 C3             1.3243    -0.4727    -0.7434 C.ar    
   4 N4             2.1291    -0.2606    -1.7713 N.ar    
   5 C5             1.7130     0.4033    -2.8310 C.ar    
   6 N6             0.4883     0.8827    -2.9169 N.ar    
   7 C7            -2.1259     0.4115     0.2520 C.ar    
   8 C8            -3.2721    -0.3707     0.1805 C.ar    
   9 N9            -4.4681     0.1834     0.1672 N.ar    
  10 C10           -4.6302     1.4902     0.2211 C.ar    
  11 C11           -3.5341     2.3413     0.2941 C.ar    
  12 C12           -2.2542     1.7964     0.3104 C.ar    
  13 N13           -3.7152     3.7272     0.3505 N.am    
  14 C14           -2.8756     4.4874     1.0810 C.2     
  15 N15           -0.8620    -0.1841     0.2708 N.pl3   
  16 C16           -3.1237     5.9380     1.2203 C.ar    
  17 O17           -1.9142     3.9802     1.6253 O.2     
  18 C18           -4.2278     6.5224     0.5955 C.ar    
  19 C19           -4.4613     7.8774     0.7245 C.ar    
  20 C20           -3.6068     8.6635     1.4712 C.ar    
  21 C21           -2.4985     8.0920     2.1021 C.ar    
  22 C22           -2.2598     6.7244     1.9799 C.ar    
  23 C23           -1.6127     8.9088     2.8758 C.1     
  24 C24           -0.4627    -1.0195     1.4061 C.3     
  25 C25            0.2136    -0.1489     2.4670 C.3     
  26 N26           -0.9100     9.5568     3.4897 N.1     
  27 H27           -1.3813     1.1051    -2.0110 H       
  28 H28            1.6722    -1.0173     0.1219 H       
  29 H29            2.3957     0.5591    -3.6533 H       
  30 H30           -3.1820    -1.4460     0.1348 H       
  31 H31           -5.6273     1.9048     0.2079 H       
  32 H32           -1.3825     2.4315     0.3670 H       
  33 H33           -4.4451     4.1411    -0.1362 H       
  34 H34           -4.9004     5.9132     0.0099 H       
  35 H35           -5.3162     8.3241     0.2387 H       
  36 H36           -3.7950     9.7226     1.5677 H       
  37 H37           -1.4049     6.2775     2.4653 H       
  38 H38           -1.3447    -1.4954     1.8349 H       
  39 H39            0.2343    -1.7854     1.0663 H       
  40 H40           -0.4835     0.6170     2.8069 H       
  41 H41            0.5107    -0.7704     3.3117 H       
  42 H42            1.0955     0.3270     2.0382 H       
@<TRIPOS>BOND
   1    1    2 ar
   2    1    6 ar
   3    1   27 1
   4    2    3 ar
   5    2   15 1
   6    3    4 ar
   7    3   28 1
   8    4    5 ar
   9    5    6 ar
  10    5   29 1
  11    7    8 ar
  12    7   12 ar
  13    7   15 1
  14    8    9 ar
  15    8   30 1
  16    9   10 ar
  17   10   11 ar
  18   10   31 1
  19   11   12 ar
  20   11   13 1
  21   12   32 1
  22   13   14 am
  23   13   33 1
  24   14   16 1
  25   14   17 2
  26   15   24 1
  27   16   18 ar
  28   16   22 ar
  29   18   19 ar
  30   18   34 1
  31   19   20 ar
  32   19   35 1
  33   20   21 ar
  34   20   36 1
  35   21   22 ar
  36   21   23 1
  37   22   37 1
  38   23   26 3
  39   24   25 1
  40   24   38 1
  41   24   39 1
  42   25   40 1
  43   25   41 1
  44   25   42 1

#	End of record

