#	Name: ASD02320041
#	Creating user name:	WinNT
#	Creation time:	15. 06. 2019 20:20

#	Modifying user name:	WinNT
#	Modification time:	15. 06. 2019 20:20

#	Program:	/corina/corina34_cracker 3.40 0067  02.08.2006

@<TRIPOS>MOLECULE
ASD02320041
  80   86    0    0    0
SMALL
NO_CHARGES


@<TRIPOS>ATOM
   1 C1            -0.8460     3.1398    -1.3387 C.ar    
   2 C2            -0.9766     1.7604    -1.2455 C.ar    
   3 C3             0.1274     0.9579    -1.0663 C.ar    
   4 C4             1.3967     1.5362    -0.9771 C.ar    
   5 C5             1.5254     2.9409    -1.0729 C.ar    
   6 C6             0.3946     3.7340    -1.2537 C.ar    
   7 N7             2.5023     0.7852    -0.8013 N.2     
   8 C8             3.6918     1.3228    -0.7169 C.2     
   9 N9             3.9092     2.6709    -0.7989 N.am    
  10 C10            2.8724     3.5227    -0.9753 C.2     
  11 C11            4.8555     0.4320    -0.5235 C.ar    
  12 C12            5.7247     0.6386     0.5477 C.ar    
  13 C13            6.8126    -0.2004     0.7228 C.ar    
  14 C14            7.0358    -1.2432    -0.1659 C.ar    
  15 C15            6.1749    -1.4492    -1.2283 C.ar    
  16 C16            5.0852    -0.6227    -1.4091 C.ar    
  17 N17            8.0217     3.6201    -3.2701 N.pl3   
  18 C18            8.5919     4.6600    -3.9216 C.2     
  19 N19            8.1512     2.5673    -3.9993 N.2     
  20 N20            8.7717     2.8556    -5.0885 N.2     
  21 C21            9.0693     4.1598    -5.0852 C.2     
  22 C22            9.7929     4.9224    -6.1650 C.3     
  23 N23           11.2390     4.7932    -5.9687 N.am    
  24 C24           11.8995     3.7078    -6.4755 C.2     
  25 C25           11.9141     5.7513    -5.2917 C.2     
  26 C26           13.3635     5.5699    -5.1247 C.ar    
  27 C27           13.9599     4.4137    -5.6776 C.ar    
  28 N28           13.1878     3.5278    -6.3382 N.2     
  29 C29           14.1477     6.4995    -4.4443 C.ar    
  30 C30           15.5021     6.2790    -4.3182 C.ar    
  31 C31           16.0868     5.1428    -4.8623 C.ar    
  32 C32           15.3364     4.2182    -5.5324 C.ar    
  33 C33           11.1207     2.6901    -7.2124 C.ar    
  34 C34           10.3270     3.0658    -8.2968 C.ar    
  35 C35            9.6007     2.1071    -8.9825 C.ar    
  36 C36            9.6627     0.7763    -8.5907 C.ar    
  37 C37           10.4482     0.4027    -7.5163 C.ar    
  38 C38           11.1811     1.3492    -6.8296 C.ar    
  39 O39           11.3430     6.7262    -4.8388 O.2     
  40 O40            3.0482     4.7249    -1.0503 O.2     
  41 C41            5.2730     3.1959    -0.6951 C.3     
  42 C42            5.9496     3.1325    -2.0659 C.3     
  43 C43            7.3739     3.6808    -1.9575 C.3     
  44 O44            7.6622    -0.0024     1.7649 O.3     
  45 S45            7.2740    -0.7521     3.0312 S.o2    
  46 O46            8.1367    -0.2806     4.0572 O.2     
  47 O47            5.8570    -0.6883     3.1169 O.2     
  48 O48            7.6259    -2.2168     2.8134 O.3     
  49 Na49           9.5739    -2.6069     2.9274 Du      
  50 O50            8.8264     2.4686   -10.0393 O.3     
  51 S51            9.5496     2.4315   -11.3780 S.o2    
  52 O52            8.6704     3.0219   -12.3255 O.2     
  53 O53           10.8659     2.9091   -11.1363 O.2     
  54 O54            9.6890     0.9687   -11.7743 O.3     
  55 Na55           8.0000     0.1418   -12.4252 Du      
  56 H56           -1.7239     3.7519    -1.4834 H       
  57 H57           -1.9566     1.3117    -1.3142 H       
  58 H58            0.0133    -0.1136    -0.9945 H       
  59 H59            0.4894     4.8073    -1.3270 H       
  60 H60            5.5501     1.4505     1.2382 H       
  61 H61            7.8852    -1.8958    -0.0272 H       
  62 H62            6.3539    -2.2623    -1.9163 H       
  63 H63            4.4148    -0.7864    -2.2398 H       
  64 H64            8.6534     5.6832    -3.5817 H       
  65 H65            9.5211     4.5178    -7.1399 H       
  66 H66            9.5123     5.9745    -6.1171 H       
  67 H67           13.6980     7.3850    -4.0200 H       
  68 H68           16.1144     6.9963    -3.7918 H       
  69 H69           17.1500     4.9874    -4.7535 H       
  70 H70           15.8057     3.3397    -5.9500 H       
  71 H71           10.2791     4.1012    -8.6001 H       
  72 H72            9.0948     0.0305    -9.1272 H       
  73 H73           10.4918    -0.6338    -7.2159 H       
  74 H74           11.7941     1.0539    -5.9909 H       
  75 H75            5.2391     4.2306    -0.3542 H       
  76 H76            5.8396     2.5969     0.0178 H       
  77 H77            5.9836     2.0978    -2.4069 H       
  78 H78            5.3830     3.7315    -2.7788 H       
  79 H79            7.9405     3.0817    -1.2446 H       
  80 H80            7.3399     4.7155    -1.6166 H       
@<TRIPOS>BOND
   1    1    2 ar
   2    1    6 ar
   3    1   56 1
   4    2    3 ar
   5    2   57 1
   6    3    4 ar
   7    3   58 1
   8    4    5 ar
   9    4    7 1
  10    5    6 ar
  11    5   10 1
  12    6   59 1
  13    7    8 2
  14    8    9 1
  15    8   11 1
  16    9   10 am
  17    9   41 1
  18   10   40 2
  19   11   12 ar
  20   11   16 ar
  21   12   13 ar
  22   12   60 1
  23   13   14 ar
  24   13   44 1
  25   14   15 ar
  26   14   61 1
  27   15   16 ar
  28   15   62 1
  29   16   63 1
  30   17   18 1
  31   17   19 1
  32   17   43 1
  33   18   21 2
  34   18   64 1
  35   19   20 2
  36   20   21 1
  37   21   22 1
  38   22   23 1
  39   22   65 1
  40   22   66 1
  41   23   24 1
  42   23   25 am
  43   24   33 1
  44   24   28 2
  45   25   26 1
  46   25   39 2
  47   26   27 ar
  48   26   29 ar
  49   27   28 1
  50   27   32 ar
  51   29   30 ar
  52   29   67 1
  53   30   31 ar
  54   30   68 1
  55   31   32 ar
  56   31   69 1
  57   32   70 1
  58   33   34 ar
  59   33   38 ar
  60   34   35 ar
  61   34   71 1
  62   35   36 ar
  63   35   50 1
  64   36   37 ar
  65   36   72 1
  66   37   38 ar
  67   37   73 1
  68   38   74 1
  69   41   42 1
  70   41   75 1
  71   41   76 1
  72   42   43 1
  73   42   77 1
  74   42   78 1
  75   43   79 1
  76   43   80 1
  77   44   45 1
  78   45   46 2
  79   45   47 2
  80   45   48 1
  81   48   49 1
  82   50   51 1
  83   51   52 2
  84   51   53 2
  85   51   54 1
  86   54   55 1

#	End of record

