#	Name: ASD03092245
#	Creating user name:	WinNT
#	Creation time:	15. 06. 2019 20:32

#	Modifying user name:	WinNT
#	Modification time:	15. 06. 2019 20:32

#	Program:	/corina/corina34_cracker 3.40 0067  02.08.2006

@<TRIPOS>MOLECULE
ASD03092245
  50   53    0    0    0
SMALL
NO_CHARGES


@<TRIPOS>ATOM
   1 C1            -0.0173     1.4248     0.0099 C.3     
   2 O2             0.0021    -0.0041     0.0020 O.3     
   3 C3            -1.1998    -0.6372     0.0101 C.ar    
   4 C4            -2.3818     0.0928     0.0195 C.ar    
   5 C5            -3.5846    -0.5972     0.0276 C.ar    
   6 C6            -3.5746    -1.9801     0.0260 C.ar    
   7 N7            -2.4407    -2.6508     0.0170 N.ar    
   8 C8            -1.2668    -2.0339     0.0032 C.ar    
   9 C9            -0.0163    -2.8309    -0.0130 C.ar    
  10 C10            1.0964    -2.3663    -0.7075 C.ar    
  11 C11            2.2703    -3.1181    -0.7201 C.ar    
  12 C12            2.3254    -4.3332    -0.0366 C.ar    
  13 C13            1.2140    -4.7924     0.6537 C.ar    
  14 C14            0.0471    -4.0432     0.6722 C.ar    
  15 N15            1.2718    -6.0151     1.3395 N.pl3   
  16 C16            2.3502    -6.8104     1.5085 C.2     
  17 N17            1.9632    -7.8462     2.2060 N.2     
  18 N18            0.7136    -7.7600     2.4895 N.2     
  19 N19            0.2208    -6.6721     2.0033 N.2     
  20 C20            3.4552    -2.6287    -1.4571 C.2     
  21 O21            3.4061    -1.5702    -2.0526 O.2     
  22 N22            4.5896    -3.3563    -1.4686 N.am    
  23 C23            5.7635    -2.8715    -2.1988 C.3     
  24 C24            6.9068    -3.8776    -2.0521 C.3     
  25 C25            8.1143    -3.3788    -2.8033 C.ar    
  26 C26            8.3439    -3.7986    -4.0995 C.ar    
  27 C27            9.4517    -3.3413    -4.7889 C.ar    
  28 C28           10.3310    -2.4641    -4.1823 C.ar    
  29 C29           10.1036    -2.0431    -2.8855 C.ar    
  30 C30            8.9912    -2.4952    -2.1966 C.ar    
  31 F31            8.7646    -2.0797    -0.9312 F       
  32 H32            1.0053     1.8021     0.0021 H       
  33 H33           -0.5445     1.7859    -0.8732 H       
  34 H34           -0.5275     1.7763     0.9067 H       
  35 H35           -2.3643     1.1726     0.0209 H       
  36 H36           -4.5211    -0.0593     0.0354 H       
  37 H37           -4.5108    -2.5185     0.0327 H       
  38 H38            1.0505    -1.4255    -1.2359 H       
  39 H39            3.2342    -4.9167    -0.0455 H       
  40 H40           -0.8153    -4.4017     1.2146 H       
  41 H41            3.3471    -6.6252     1.1365 H       
  42 H42            4.6288    -4.2011    -0.9934 H       
  43 H43            5.5135    -2.7568    -3.2536 H       
  44 H44            6.0724    -1.9086    -1.7919 H       
  45 H45            7.1568    -3.9922    -0.9974 H       
  46 H46            6.5979    -4.8405    -2.4591 H       
  47 H47            7.6580    -4.4846    -4.5743 H       
  48 H48            9.6304    -3.6699    -5.8021 H       
  49 H49           11.1962    -2.1077    -4.7216 H       
  50 H50           10.7911    -1.3582    -2.4115 H       
@<TRIPOS>BOND
   1    1    2 1
   2    1   32 1
   3    1   33 1
   4    1   34 1
   5    2    3 1
   6    3    8 ar
   7    3    4 ar
   8    4    5 ar
   9    4   35 1
  10    5    6 ar
  11    5   36 1
  12    6    7 ar
  13    6   37 1
  14    7    8 ar
  15    8    9 1
  16    9   14 ar
  17    9   10 ar
  18   10   11 ar
  19   10   38 1
  20   11   12 ar
  21   11   20 1
  22   12   13 ar
  23   12   39 1
  24   13   14 ar
  25   13   15 1
  26   14   40 1
  27   15   19 1
  28   15   16 1
  29   16   17 2
  30   16   41 1
  31   17   18 1
  32   18   19 2
  33   20   21 2
  34   20   22 am
  35   22   23 1
  36   22   42 1
  37   23   24 1
  38   23   43 1
  39   23   44 1
  40   24   25 1
  41   24   45 1
  42   24   46 1
  43   25   30 ar
  44   25   26 ar
  45   26   27 ar
  46   26   47 1
  47   27   28 ar
  48   27   48 1
  49   28   29 ar
  50   28   49 1
  51   29   30 ar
  52   29   50 1
  53   30   31 1

#	End of record

