#	Name: ASD01810086
#	Creating user name:	WinNT
#	Creation time:	15. 06. 2019 19:23

#	Modifying user name:	WinNT
#	Modification time:	15. 06. 2019 19:23

#	Program:	/corina/corina34_cracker 3.40 0067  02.08.2006

@<TRIPOS>MOLECULE
ASD01810086
  39   42    0    0    0
SMALL
NO_CHARGES


@<TRIPOS>ATOM
   1 C1            -0.0167     1.3804     0.0096 C.ar    
   2 C2             0.0021    -0.0041     0.0020 C.ar    
   3 C3             1.2026    -0.6938    -0.0132 C.ar    
   4 C4             2.4070     0.0005    -0.0206 C.ar    
   5 C5             2.3834     1.4041    -0.0128 C.ar    
   6 C6             1.1680     2.0886     0.0021 C.ar    
   7 N7             3.7279    -0.4454    -0.0356 N.am    
   8 C8             4.5932     0.5834    -0.0383 C.2     
   9 C9             3.7893     1.8495    -0.0238 C.2     
  10 O10            4.2045     2.9898    -0.0223 O.2     
  11 O11            5.8036     0.5025    -0.0503 O.2     
  12 C12            4.1228    -1.8561    -0.0464 C.3     
  13 C13            4.2445    -2.3327    -1.4709 C.ar    
  14 C14            5.3854    -2.0425    -2.2009 C.ar    
  15 C15            5.5010    -2.4785    -3.5081 C.ar    
  16 C16            4.4680    -3.2098    -4.0888 C.ar    
  17 C17            3.3231    -3.4982    -3.3490 C.ar    
  18 C18            4.5861    -3.6802    -5.4921 C.2     
  19 C19            5.6792    -3.4632    -6.3535 C.2     
  20 N20            5.4108    -4.0291    -7.5003 N.2     
  21 N21            4.1464    -4.6247    -7.4174 N.pl3   
  22 C22            3.6580    -4.4062    -6.1798 C.2     
  23 C23            3.4725    -5.3624    -8.4888 C.3     
  24 F24            6.3860    -1.3325    -1.6354 F       
  25 C25            3.2192    -3.0633    -2.0433 C.ar    
  26 F26            1.2035    -2.0448    -0.0205 F       
  27 H27           -0.9597     1.9069     0.0170 H       
  28 H28           -0.9289    -0.5514     0.0084 H       
  29 H29            1.1541     3.1685     0.0077 H       
  30 H30            5.0827    -1.9686     0.4576 H       
  31 H31            3.3688    -2.4485     0.4717 H       
  32 H32            6.3903    -2.2520    -4.0775 H       
  33 H33            2.5196    -4.0651    -3.7955 H       
  34 H34            6.5818    -2.9230    -6.1088 H       
  35 H35            2.7025    -4.7401    -5.8031 H       
  36 H36            3.7375    -6.4178    -8.4255 H       
  37 H37            2.3933    -5.2519    -8.3830 H       
  38 H38            3.7854    -4.9666    -9.4550 H       
  39 H39            2.3317    -3.2870    -1.4699 H       
@<TRIPOS>BOND
   1    1    2 ar
   2    1    6 ar
   3    1   27 1
   4    2    3 ar
   5    2   28 1
   6    3    4 ar
   7    3   26 1
   8    4    5 ar
   9    4    7 1
  10    5    6 ar
  11    5    9 1
  12    6   29 1
  13    7    8 am
  14    7   12 1
  15    8    9 1
  16    8   11 2
  17    9   10 2
  18   12   13 1
  19   12   30 1
  20   12   31 1
  21   13   14 ar
  22   13   25 ar
  23   14   15 ar
  24   14   24 1
  25   15   16 ar
  26   15   32 1
  27   16   17 ar
  28   16   18 1
  29   17   25 ar
  30   17   33 1
  31   18   19 1
  32   18   22 2
  33   19   20 2
  34   19   34 1
  35   20   21 1
  36   21   22 1
  37   21   23 1
  38   22   35 1
  39   23   36 1
  40   23   37 1
  41   23   38 1
  42   25   39 1

#	End of record

