#	Name: ASD01140009
#	Creating user name:	WinNT
#	Creation time:	15. 06. 2019 18:59

#	Modifying user name:	WinNT
#	Modification time:	15. 06. 2019 18:59

#	Program:	/corina/corina34_cracker 3.40 0067  02.08.2006

@<TRIPOS>MOLECULE
ASD01140009
  50   53    0    0    0
SMALL
NO_CHARGES


@<TRIPOS>ATOM
   1 C1            -0.0187     1.5259     0.0104 C.3     
   2 C2             0.0021    -0.0041     0.0020 C.3     
   3 C3             0.7169    -0.4961    -1.2579 C.3     
   4 C4             2.1540     0.0294    -1.2681 C.3     
   5 C5             2.1364     1.5610    -1.2559 C.3     
   6 C6             1.4168     2.0547    -0.0004 C.3     
   7 C7             2.8695    -0.4735    -2.5228 C.3     
   8 C8             2.1612     0.0532    -3.7751 C.3     
   9 C9             2.1772     1.5792    -3.7469 C.3     
  10 C10            1.4077     2.0570    -2.5010 C.3     
  11 C11            1.4939     2.1836    -4.9478 C.3     
  12 C12            1.7379     3.7223    -4.8937 C.3     
  13 C13            0.8541     4.2673    -3.7841 C.3     
  14 C14            1.2874     3.5577    -2.5065 C.2     
  15 C15            2.0086     1.8318    -6.3084 C.2     
  16 N16            1.8511     2.9435    -7.1184 N.pl3   
  17 C17            1.3129     4.0776    -6.3248 C.3     
  18 O18           -1.3385    -0.4989     0.0133 O.3     
  19 H19            0.4051     1.6297    -2.5185 H       
  20 H20            0.4230     1.9864    -4.8984 H       
  21 O21            1.5311     4.1928    -1.5087 O.2     
  22 C22            3.5728     2.0878    -1.2610 C.3     
  23 H23            2.6791    -0.3340    -0.3847 H       
  24 H24            3.2074     1.9316    -3.6959 H       
  25 C25            3.2106     4.0481    -4.6372 C.3     
  26 N26            2.5106     0.6941    -6.6636 N.2     
  27 H27           -0.5457     1.8871    -0.8727 H       
  28 H28           -0.5287     1.8775     0.9073 H       
  29 H29            0.5305    -0.3653     0.8843 H       
  30 H30            0.7286    -1.5860    -1.2667 H       
  31 H31            0.1906    -0.1314    -2.1400 H       
  32 H32            1.4020     3.1446     0.0045 H       
  33 H33            1.9426     1.6954     0.8842 H       
  34 H34            3.9014    -0.1226    -2.5161 H       
  35 H35            2.8595    -1.5634    -2.5328 H       
  36 H36            2.6816    -0.3009    -4.6650 H       
  37 H37            1.1304    -0.3009    -3.7877 H       
  38 H38            1.0003     5.3427    -3.6831 H       
  39 H39           -0.1922     4.0488    -3.9974 H       
  40 H40            2.0613     2.9767    -8.0648 H       
  41 H41            0.2268     4.1240    -6.4049 H       
  42 H42            1.7649     5.0181    -6.6396 H       
  43 H43           -1.8524    -0.2248     0.7852 H       
  44 H44            4.0851     1.7375    -2.1571 H       
  45 H45            3.5601     3.1777    -1.2524 H       
  46 H46            4.0966     1.7235    -0.3773 H       
  47 H47            3.8201     3.6303    -5.4385 H       
  48 H48            3.3434     5.1295    -4.6058 H       
  49 H49            3.5176     3.6165    -3.6845 H       
  50 H50            2.8184     0.5628    -7.5740 H       
@<TRIPOS>BOND
   1    1    2 1
   2    1    6 1
   3    1   27 1
   4    1   28 1
   5    2    3 1
   6    2   18 1
   7    2   29 1
   8    3    4 1
   9    3   30 1
  10    3   31 1
  11    4    5 1
  12    4    7 1
  13    4   23 1
  14    5    6 1
  15    5   10 1
  16    5   22 1
  17    6   32 1
  18    6   33 1
  19    7    8 1
  20    7   34 1
  21    7   35 1
  22    8    9 1
  23    8   36 1
  24    8   37 1
  25    9   10 1
  26    9   24 1
  27    9   11 1
  28   10   19 1
  29   10   14 1
  30   11   15 1
  31   11   20 1
  32   11   12 1
  33   12   13 1
  34   12   25 1
  35   12   17 1
  36   13   14 1
  37   13   38 1
  38   13   39 1
  39   14   21 2
  40   15   16 1
  41   15   26 2
  42   16   17 1
  43   16   40 1
  44   17   41 1
  45   17   42 1
  46   18   43 1
  47   22   44 1
  48   22   45 1
  49   22   46 1
  50   25   47 1
  51   25   48 1
  52   25   49 1
  53   26   50 1

#	End of record

