#	Name: ASD01411097
#	Creating user name:	WinNT
#	Creation time:	15. 06. 2019 19:19

#	Modifying user name:	WinNT
#	Modification time:	15. 06. 2019 19:19

#	Program:	/corina/corina34_cracker 3.40 0067  02.08.2006

@<TRIPOS>MOLECULE
ASD01411097
  43   45    0    0    0
SMALL
NO_CHARGES


@<TRIPOS>ATOM
   1 C1            -0.0379     1.7538     0.1347 C.3     
   2 C2            -0.2176     0.2375     0.2975 C.3     
   3 O3             1.3529     2.0563    -0.0055 O.3     
   4 C4             0.7695    -0.2359     1.3349 C.2     
   5 C5             2.1191     1.8828     1.1931 C.3     
   6 C6             1.8285     0.5064     1.7435 C.2     
   7 C7             0.8109    -1.4756     2.0668 C.ar    
   8 C8             1.7191     2.9444     2.2197 C.3     
   9 C9             3.6105     2.0084     0.8751 C.3     
  10 N10            2.5373    -0.1812     2.6858 N.pl3   
  11 C11           -0.0160    -2.6199     2.0658 C.ar    
  12 C12            1.9490    -1.3945     2.9110 C.ar    
  13 C13            1.9706     4.3369     1.6378 C.3     
  14 C14            0.3479    -3.6553     2.9349 C.ar    
  15 C15            2.2801    -2.4451     3.7626 C.ar    
  16 C16            1.4476     5.3975     2.6087 C.3     
  17 C17            1.4576    -3.5616     3.7499 C.ar    
  18 C18            3.9942     0.9733    -0.1508 C.2     
  19 O19            3.1434     0.2828    -0.6598 O.2     
  20 O20            5.2812     0.8186    -0.4992 O.3     
  21 C21           -1.1676    -2.7162     1.2201 C.1     
  22 N22           -2.0811    -2.7926     0.5492 N.1     
  23 C23            3.4857    -2.3715     4.6638 C.3     
  24 H24           -0.5742     2.0900    -0.7527 H       
  25 H25           -0.4338     2.2631     1.0133 H       
  26 H26           -1.2332     0.0197     0.6280 H       
  27 H27           -0.0228    -0.2612    -0.6519 H       
  28 H28            0.6615     2.8368     2.4604 H       
  29 H29            2.3126     2.8163     3.1249 H       
  30 H30            3.8155     3.0038     0.4812 H       
  31 H31            4.1904     1.8510     1.7845 H       
  32 H32            3.3376     0.1420     3.1283 H       
  33 H33            3.0405     4.4795     1.4859 H       
  34 H34            1.4524     4.4309     0.6835 H       
  35 H35           -0.2556    -4.5503     2.9687 H       
  36 H36            0.3777     5.2549     2.7606 H       
  37 H37            1.9658     5.3035     3.5631 H       
  38 H38            1.6268     6.3895     2.1942 H       
  39 H39            1.6945    -4.3889     4.4025 H       
  40 H40            5.4786     0.1421    -1.1613 H       
  41 H41            3.1979    -1.9364     5.6208 H       
  42 H42            3.8807    -3.3746     4.8248 H       
  43 H43            4.2505    -1.7504     4.1975 H       
@<TRIPOS>BOND
   1    1    2 1
   2    1    3 1
   3    1   24 1
   4    1   25 1
   5    2    4 1
   6    2   26 1
   7    2   27 1
   8    3    5 1
   9    4    6 2
  10    4    7 1
  11    5    8 1
  12    5    9 1
  13    5    6 1
  14    6   10 1
  15    7   11 ar
  16    7   12 ar
  17    8   13 1
  18    8   28 1
  19    8   29 1
  20    9   18 1
  21    9   30 1
  22    9   31 1
  23   10   12 1
  24   10   32 1
  25   11   14 ar
  26   11   21 1
  27   12   15 ar
  28   13   16 1
  29   13   33 1
  30   13   34 1
  31   14   17 ar
  32   14   35 1
  33   15   17 ar
  34   15   23 1
  35   16   36 1
  36   16   37 1
  37   16   38 1
  38   17   39 1
  39   18   19 2
  40   18   20 1
  41   20   40 1
  42   21   22 3
  43   23   41 1
  44   23   42 1
  45   23   43 1

#	End of record

