#	Name: ASD04881304
#	Creating user name:	WinNT
#	Creation time:	15. 06. 2019 20:53

#	Modifying user name:	WinNT
#	Modification time:	15. 06. 2019 20:53

#	Program:	/corina/corina34_cracker 3.40 0067  02.08.2006

@<TRIPOS>MOLECULE
ASD04881304
  84   88    0    0    0
SMALL
NO_CHARGES


@<TRIPOS>ATOM
   1 C1             1.0111    -0.3179    -1.2324 C.ar    
   2 C2             0.8375    -1.2959    -2.1948 C.ar    
   3 C3             1.8213    -1.5230    -3.1394 C.ar    
   4 C4             2.9813    -0.7733    -3.1247 C.ar    
   5 C5             3.1589     0.2095    -2.1596 C.ar    
   6 C6             2.1683     0.4351    -1.2119 C.ar    
   7 N7             4.3309     0.9691    -2.1415 N.3     
   8 C8             5.0982     0.7243    -0.9124 C.3     
   9 C9             6.4093     1.5120    -0.9673 C.3     
  10 N10            6.1121     2.9427    -1.1229 N.3     
  11 C11            5.3447     3.1876    -2.3521 C.3     
  12 C12            4.0336     2.3999    -2.2972 C.3     
  13 C13            7.2804     3.7000    -1.1049 C.ar    
  14 C14            7.6920     4.3687    -2.2522 C.ar    
  15 C15            8.8469     5.1188    -2.2388 C.ar    
  16 C16            9.6089     5.2097    -1.0707 C.ar    
  17 C17            9.1973     4.5383     0.0840 C.ar    
  18 C18            8.0347     3.7914     0.0680 C.ar    
  19 N19            7.6152     3.1216     1.2257 N.am    
  20 C20            8.5202     2.7390     2.1482 C.2     
  21 C21            8.0820     1.9363     3.3460 C.3     
  22 O22            9.6874     3.0408     2.0144 O.2     
  23 C23           10.8463     6.0129    -1.0566 C.2     
  24 O24           11.5087     6.0914    -0.0399 O.2     
  25 N25           11.2427     6.6596    -2.1707 N.am    
  26 C26            4.0532    -1.0219    -4.1544 C.3     
  27 O27            9.2283     1.5561     4.1098 O.3     
  28 C28            9.7960     0.3034     3.7217 C.3     
  29 C29            7.1629     2.7704     4.2008 C.ar    
  30 C30            5.7942     2.5949     4.1189 C.ar    
  31 C31            4.9512     3.3600     4.9030 C.ar    
  32 C32            5.4769     4.3004     5.7692 C.ar    
  33 C33            6.8456     4.4752     5.8517 C.ar    
  34 C34            7.6889     3.7071     5.0708 C.ar    
  35 C35           12.4715     7.4571    -2.1568 C.3     
  36 C36           12.6905     8.0806    -3.5367 C.3     
  37 C37           13.9738     8.9135    -3.5222 C.3     
  38 N38           14.1835     9.5105    -4.8435 N.am    
  39 C39           13.6661    10.8219    -5.2513 C.3     
  40 C40           13.7451    10.8346    -6.7940 C.3     
  41 C41           14.8808     9.8195    -7.0599 C.3     
  42 C42           14.8795     8.9300    -5.8362 C.2     
  43 O43           15.4248     7.8492    -5.7625 O.2     
  44 H44            0.2388    -0.1401    -0.4987 H       
  45 H45           -0.0684    -1.8837    -2.2084 H       
  46 H46            1.6827    -2.2877    -3.8894 H       
  47 H47            2.3031     1.1989    -0.4603 H       
  48 H48            4.5157     1.0474    -0.0496 H       
  49 H49            5.3168    -0.3401    -0.8261 H       
  50 H50            6.9670     1.3548    -0.0440 H       
  51 H51            7.0039     1.1699    -1.8143 H       
  52 H52            5.1261     4.2519    -2.4384 H       
  53 H53            5.9272     2.8645    -3.2149 H       
  54 H54            3.4760     2.5571    -3.2204 H       
  55 H55            3.4390     2.7420    -1.4501 H       
  56 H56            7.1049     4.2996    -3.1561 H       
  57 H57            9.1642     5.6369    -3.1317 H       
  58 H58            9.7843     4.6065     0.9880 H       
  59 H59            6.6735     2.9334     1.3629 H       
  60 H60            7.5555     1.0425     3.0115 H       
  61 H61           10.7143     6.5969    -2.9818 H       
  62 H62            3.8261    -0.4577    -5.0589 H       
  63 H63            5.0176    -0.7023    -3.7594 H       
  64 H64            4.0914    -2.0856    -4.3896 H       
  65 H65           10.6609     0.0866     4.3486 H       
  66 H66            9.0531    -0.4851     3.8424 H       
  67 H67           10.1068     0.3531     2.6782 H       
  68 H68            5.3835     1.8602     3.4422 H       
  69 H69            3.8818     3.2234     4.8385 H       
  70 H70            4.8182     4.8986     6.3812 H       
  71 H71            7.2563     5.2101     6.5282 H       
  72 H72            8.7584     3.8411     5.1380 H       
  73 H73           12.3834     8.2471    -1.4110 H       
  74 H74           13.3177     6.8163    -1.9091 H       
  75 H75           12.7785     7.2905    -4.2825 H       
  76 H76           11.8442     8.7213    -3.7844 H       
  77 H77           13.8857     9.7035    -2.7764 H       
  78 H78           14.8201     8.2727    -3.2745 H       
  79 H79           12.6323    10.9374    -4.9256 H       
  80 H80           14.2844    11.6174    -4.8354 H       
  81 H81           12.8078    10.4958    -7.2354 H       
  82 H82           14.0127    11.8248    -7.1627 H       
  83 H83           14.6706     9.2383    -7.9577 H       
  84 H84           15.8377    10.3333    -7.1523 H       
@<TRIPOS>BOND
   1    1    2 ar
   2    1    6 ar
   3    1   44 1
   4    2    3 ar
   5    2   45 1
   6    3    4 ar
   7    3   46 1
   8    4    5 ar
   9    4   26 1
  10    5    6 ar
  11    5    7 1
  12    6   47 1
  13    7    8 1
  14    7   12 1
  15    8    9 1
  16    8   48 1
  17    8   49 1
  18    9   10 1
  19    9   50 1
  20    9   51 1
  21   10   11 1
  22   10   13 1
  23   11   12 1
  24   11   52 1
  25   11   53 1
  26   12   54 1
  27   12   55 1
  28   13   14 ar
  29   13   18 ar
  30   14   15 ar
  31   14   56 1
  32   15   16 ar
  33   15   57 1
  34   16   17 ar
  35   16   23 1
  36   17   18 ar
  37   17   58 1
  38   18   19 1
  39   19   20 am
  40   19   59 1
  41   20   21 1
  42   20   22 2
  43   21   27 1
  44   21   29 1
  45   21   60 1
  46   23   24 2
  47   23   25 am
  48   25   35 1
  49   25   61 1
  50   26   62 1
  51   26   63 1
  52   26   64 1
  53   27   28 1
  54   28   65 1
  55   28   66 1
  56   28   67 1
  57   29   30 ar
  58   29   34 ar
  59   30   31 ar
  60   30   68 1
  61   31   32 ar
  62   31   69 1
  63   32   33 ar
  64   32   70 1
  65   33   34 ar
  66   33   71 1
  67   34   72 1
  68   35   36 1
  69   35   73 1
  70   35   74 1
  71   36   37 1
  72   36   75 1
  73   36   76 1
  74   37   38 1
  75   37   77 1
  76   37   78 1
  77   38   39 1
  78   38   42 am
  79   39   40 1
  80   39   79 1
  81   39   80 1
  82   40   41 1
  83   40   81 1
  84   40   82 1
  85   41   42 1
  86   41   83 1
  87   41   84 1
  88   42   43 2

#	End of record

