#	Name: ASD01140109
#	Creating user name:	WinNT
#	Creation time:	15. 06. 2019 18:59

#	Modifying user name:	WinNT
#	Modification time:	15. 06. 2019 18:59

#	Program:	/corina/corina34_cracker 3.40 0067  02.08.2006

@<TRIPOS>MOLECULE
ASD01140109
  47   47    0    0    0
SMALL
NO_CHARGES


@<TRIPOS>ATOM
   1 C1            -0.0203     1.7069    -0.1989 C.3     
   2 C2             0.0172     0.1768     0.0019 C.3     
   3 C3             1.4373    -0.2025    -0.4730 C.3     
   4 C4             2.0615     1.1105    -0.8997 C.2     
   5 O5             1.3781     2.1092    -0.3114 O.3     
   6 O6             3.0084     1.2384    -1.6393 O.2     
   7 N7            -0.1647    -0.1647     1.4149 N.am    
   8 C8             2.2353    -0.8244     0.6747 C.3     
   9 C9             1.3636    -1.1680    -1.6576 C.3     
  10 C10           -1.4065    -0.3010     1.9207 C.2     
  11 O11           -1.5738    -0.6148     3.2193 O.3     
  12 O12           -2.3751    -0.1406     1.2048 O.2     
  13 C13           -2.9393    -0.7454     3.6953 C.3     
  14 C14            3.5985    -1.2867     0.1563 C.3     
  15 C15            4.4479    -1.7838     1.3278 C.3     
  16 C16            0.7146    -2.4785    -1.2078 C.3     
  17 C17            0.7354    -3.4809    -2.3635 C.3     
  18 C18           -3.6495    -1.8503     2.9106 C.3     
  19 C19           -2.9288    -1.1026     5.1830 C.3     
  20 C20           -3.6784     0.5789     3.4939 C.3     
  21 H21           -0.5605     1.9556    -1.1124 H       
  22 H22           -0.4854     2.1901     0.6603 H       
  23 H23           -0.7382    -0.3113    -0.6140 H       
  24 H24            0.6085    -0.2927     1.9864 H       
  25 H25            2.3780    -0.0834     1.4613 H       
  26 H26            1.6900    -1.6790     1.0752 H       
  27 H27            0.7674    -0.7217    -2.4535 H       
  28 H28            2.3697    -1.3685    -2.0261 H       
  29 H29            3.4592    -2.0959    -0.5606 H       
  30 H30            4.1039    -0.4528    -0.3308 H       
  31 H31            3.9425    -2.6178     1.8149 H       
  32 H32            5.4190    -2.1133     0.9584 H       
  33 H33            4.5872    -0.9747     2.0447 H       
  34 H34            1.2686    -2.8869    -0.3626 H       
  35 H35           -0.3165    -2.2895    -0.9093 H       
  36 H36            0.2731    -4.4145    -2.0431 H       
  37 H37            0.1815    -3.0724    -3.2087 H       
  38 H38            1.7666    -3.6698    -2.6621 H       
  39 H39           -3.1229    -2.7938     3.0540 H       
  40 H40           -4.6745    -1.9483     3.2679 H       
  41 H41           -3.6569    -1.5959     1.8507 H       
  42 H42           -2.4228    -0.3154     5.7420 H       
  43 H43           -3.9538    -1.2006     5.5404 H       
  44 H44           -2.4022    -2.0461     5.3265 H       
  45 H45           -3.6859     0.8334     2.4341 H       
  46 H46           -4.7035     0.4809     3.8513 H       
  47 H47           -3.1725     1.3661     4.0530 H       
@<TRIPOS>BOND
   1    1    2 1
   2    1    5 1
   3    1   21 1
   4    1   22 1
   5    2    3 1
   6    2    7 1
   7    2   23 1
   8    3    4 1
   9    3    9 1
  10    3    8 1
  11    4    5 1
  12    4    6 2
  13    7   10 am
  14    7   24 1
  15    8   14 1
  16    8   25 1
  17    8   26 1
  18    9   16 1
  19    9   27 1
  20    9   28 1
  21   10   11 1
  22   10   12 2
  23   11   13 1
  24   13   18 1
  25   13   19 1
  26   13   20 1
  27   14   15 1
  28   14   29 1
  29   14   30 1
  30   15   31 1
  31   15   32 1
  32   15   33 1
  33   16   17 1
  34   16   34 1
  35   16   35 1
  36   17   36 1
  37   17   37 1
  38   17   38 1
  39   18   39 1
  40   18   40 1
  41   18   41 1
  42   19   42 1
  43   19   43 1
  44   19   44 1
  45   20   45 1
  46   20   46 1
  47   20   47 1

#	End of record

