#	Name: ASD01912911
#	Creating user name:	WinNT
#	Creation time:	15. 06. 2019 20:00

#	Modifying user name:	WinNT
#	Modification time:	15. 06. 2019 20:00

#	Program:	/corina/corina34_cracker 3.40 0067  02.08.2006

@<TRIPOS>MOLECULE
ASD01912911
  44   48    0    0    0
SMALL
NO_CHARGES


@<TRIPOS>ATOM
   1 C1            -0.1040     1.1804     0.6595 C.2     
   2 N2             0.0086     0.0099    -0.0456 N.pl3   
   3 C3            -1.1059    -0.4867    -0.7050 C.2     
   4 C4            -2.2702     0.1482    -0.6650 C.2     
   5 N5            -2.4358     1.3307     0.0312 N.am    
   6 C6            -1.3942     1.8704     0.7029 C.2     
   7 C7             1.1391     1.4374     1.2069 C.2     
   8 C8             1.9472     0.3812     0.7893 C.2     
   9 N9             1.2158    -0.4229     0.0546 N.2     
  10 O10           -1.5237     2.9114     1.3215 O.2     
  11 C11           -3.6811     1.9650     0.0456 C.ar    
  12 C12            3.4051     0.1957     1.1228 C.3     
  13 O13            3.8475     1.2785     1.9437 O.3     
  14 C14            5.1484     1.2635     2.3365 C.ar    
  15 C15            5.6451     2.2838     3.1346 C.ar    
  16 C16            6.9679     2.2663     3.5325 C.ar    
  17 C17            7.7967     1.2331     3.1358 C.ar    
  18 C18            7.3042     0.2153     2.3400 C.ar    
  19 C19            5.9806     0.2250     1.9446 C.ar    
  20 C20           -3.9848     2.8916    -0.9280 C.ar    
  21 C21           -5.2361     3.5281    -0.9132 C.ar    
  22 C22           -6.1649     3.2028     0.1073 C.ar    
  23 C23           -5.8241     2.2539     1.0856 C.ar    
  24 C24           -4.6079     1.6474     1.0457 C.ar    
  25 N25           -5.5598     4.4322    -1.8442 N.ar    
  26 C26           -6.7263     5.0308    -1.8365 C.ar    
  27 C27           -7.6836     4.7571    -0.8626 C.ar    
  28 C28           -7.4177     3.8434     0.1177 C.ar    
  29 H29           -1.0244    -1.4081    -1.2623 H       
  30 H30           -3.1139    -0.2714    -1.1928 H       
  31 H31            1.4232     2.2764     1.8248 H       
  32 H32            3.5386    -0.7443     1.6583 H       
  33 H33            3.9887     0.1756     0.2024 H       
  34 H34            4.9982     3.0912     3.4444 H       
  35 H35            7.3550     3.0605     4.1535 H       
  36 H36            8.8305     1.2212     3.4479 H       
  37 H37            7.9538    -0.5903     2.0309 H       
  38 H38            5.5964    -0.5702     1.3229 H       
  39 H39           -3.2646     3.1270    -1.6975 H       
  40 H40           -6.5284     2.0034     1.8650 H       
  41 H41           -4.3502     0.9186     1.7999 H       
  42 H42           -6.9505     5.7555    -2.6052 H       
  43 H43           -8.6356     5.2667    -0.8825 H       
  44 H44           -8.1490     3.6192     0.8801 H       
@<TRIPOS>BOND
   1    1    2 1
   2    1    7 2
   3    1    6 1
   4    2    3 1
   5    2    9 1
   6    3    4 2
   7    3   29 1
   8    4    5 1
   9    4   30 1
  10    5    6 am
  11    5   11 1
  12    6   10 2
  13    7    8 1
  14    7   31 1
  15    8    9 2
  16    8   12 1
  17   11   20 ar
  18   11   24 ar
  19   12   13 1
  20   12   32 1
  21   12   33 1
  22   13   14 1
  23   14   15 ar
  24   14   19 ar
  25   15   16 ar
  26   15   34 1
  27   16   17 ar
  28   16   35 1
  29   17   18 ar
  30   17   36 1
  31   18   19 ar
  32   18   37 1
  33   19   38 1
  34   20   21 ar
  35   20   39 1
  36   21   22 ar
  37   21   25 ar
  38   22   23 ar
  39   22   28 ar
  40   23   24 ar
  41   23   40 1
  42   24   41 1
  43   25   26 ar
  44   26   27 ar
  45   26   42 1
  46   27   28 ar
  47   27   43 1
  48   28   44 1

#	End of record

