#	Name: ASD01940350
#	Creating user name:	WinNT
#	Creation time:	15. 06. 2019 20:12

#	Modifying user name:	WinNT
#	Modification time:	15. 06. 2019 20:12

#	Program:	/corina/corina34_cracker 3.40 0067  02.08.2006

@<TRIPOS>MOLECULE
ASD01940350
  46   49    0    0    0
SMALL
NO_CHARGES


@<TRIPOS>ATOM
   1 C1            -0.9559     2.6710    -2.0597 C.3     
   2 C2            -1.3420     1.3608    -2.7491 C.3     
   3 C3             0.0608     1.5322    -2.1628 C.3     
   4 S4            -0.6939     4.1255    -3.1116 S.o2    
   5 O5             0.4037     3.9150    -3.9892 O.2     
   6 O6            -1.9347     4.6205    -3.5959 O.2     
   7 N7            -0.1647     5.2989    -2.0698 N.am    
   8 C8             1.0215     5.1116    -1.3477 C.ar    
   9 C9             1.1299     5.5958    -0.0446 C.ar    
  10 C10            2.3072     5.4070     0.6663 C.ar    
  11 C11            3.3702     4.7385     0.0793 C.ar    
  12 C12            3.2603     4.2592    -1.2144 C.ar    
  13 C13            2.0876     4.4394    -1.9255 C.ar    
  14 N14            0.0533     6.2717     0.5457 N.pl3   
  15 C15            0.2652     7.0793     1.6673 C.ar    
  16 C16            0.8974     8.3117     1.5274 C.ar    
  17 C17            1.1066     9.1098     2.6340 C.ar    
  18 C18            0.6842     8.6805     3.8910 C.ar    
  19 C19            0.0519     7.4470     4.0279 C.ar    
  20 C20           -0.1605     6.6538     2.9190 C.ar    
  21 N21            0.9312    10.2773     7.1435 N.pl3   
  22 N22            1.5412    11.2368     6.3265 N.2     
  23 C23            1.5307    10.8005     5.0947 C.2     
  24 C24            0.9085     9.5371     5.0830 C.2     
  25 C25            0.5497     9.2431     6.3659 C.2     
  26 C26            0.7451    10.3765     8.5932 C.3     
  27 F27            1.3067     8.7264     0.3085 F       
  28 F28            4.5159     4.5548     0.7712 F       
  29 F29            2.4170     5.8748     1.9289 F       
  30 H30           -1.3898     2.8710    -1.0800 H       
  31 H31           -2.0299     0.6990    -2.2231 H       
  32 H32           -1.4386     1.3729    -3.8348 H       
  33 H33            0.8870     1.6571    -2.8627 H       
  34 H34            0.2957     0.9832    -1.2510 H       
  35 H35           -0.6758     6.1159    -1.9594 H       
  36 H36            4.0909     3.7395    -1.6686 H       
  37 H37            2.0039     4.0602    -2.9333 H       
  38 H38           -0.8388     6.1792     0.1762 H       
  39 H39            1.5973    10.0658     2.5261 H       
  40 H40           -0.2759     7.1133     5.0014 H       
  41 H41           -0.6548     5.6994     3.0251 H       
  42 H42            1.9294    11.3188     4.2351 H       
  43 H43            0.0506     8.3450     6.6987 H       
  44 H44           -0.2118    10.8536     8.8049 H       
  45 H45            0.7578     9.3780     9.0303 H       
  46 H46            1.5508    10.9716     9.0231 H       
@<TRIPOS>BOND
   1    1    2 1
   2    1    3 1
   3    1    4 1
   4    1   30 1
   5    2    3 1
   6    2   31 1
   7    2   32 1
   8    3   33 1
   9    3   34 1
  10    4    5 2
  11    4    6 2
  12    4    7 am
  13    7    8 1
  14    7   35 1
  15    8    9 ar
  16    8   13 ar
  17    9   10 ar
  18    9   14 1
  19   10   11 ar
  20   10   29 1
  21   11   12 ar
  22   11   28 1
  23   12   13 ar
  24   12   36 1
  25   13   37 1
  26   14   15 1
  27   14   38 1
  28   15   16 ar
  29   15   20 ar
  30   16   17 ar
  31   16   27 1
  32   17   18 ar
  33   17   39 1
  34   18   19 ar
  35   18   24 1
  36   19   20 ar
  37   19   40 1
  38   20   41 1
  39   21   22 1
  40   21   25 1
  41   21   26 1
  42   22   23 2
  43   23   24 1
  44   23   42 1
  45   24   25 2
  46   25   43 1
  47   26   44 1
  48   26   45 1
  49   26   46 1

#	End of record

