#	Name: ASD04590246
#	Creating user name:	WinNT
#	Creation time:	15. 06. 2019 20:50

#	Modifying user name:	WinNT
#	Modification time:	15. 06. 2019 20:50

#	Program:	/corina/corina34_cracker 3.40 0067  02.08.2006

@<TRIPOS>MOLECULE
ASD04590246
  41   43    0    0    0
SMALL
NO_CHARGES


@<TRIPOS>ATOM
   1 N1            -0.0169     1.3950     0.0097 N.pl3   
   2 N2             0.0021    -0.0041     0.0020 N.2     
   3 C3             1.2467    -0.4104    -0.0120 C.2     
   4 C4             2.0789     0.7380    -0.0138 C.2     
   5 C5             1.2484     1.8413     0.0000 C.2     
   6 N6             1.6782    -1.7391    -0.0226 N.am    
   7 C7             3.5511     0.7515    -0.0278 C.2     
   8 O8             4.1687    -0.2962    -0.0393 O.2     
   9 N9             4.2143     1.9248    -0.0278 N.am    
  10 C10            5.6792     1.9382    -0.0418 C.3     
  11 C11            6.1876     3.2487     0.5710 C.3     
  12 C12            7.7092     3.1590     0.7113 C.3     
  13 C13            8.3143     2.6861    -0.5793 C.2     
  14 N14            7.6166     2.0812    -1.5414 N.am    
  15 C15            6.1795     1.8454    -1.4838 C.3     
  16 C16            0.7763    -2.7406    -0.0191 C.2     
  17 O17           -0.4130    -2.4877    -0.0068 O.2     
  18 C18            1.2320    -4.1435    -0.0303 C.ar    
  19 C19            1.4380    -4.8067    -1.2449 C.ar    
  20 C20            1.8650    -6.1213    -1.2461 C.ar    
  21 C21            2.0881    -6.7812    -0.0512 C.ar    
  22 C22            1.8865    -6.1334     1.1540 C.ar    
  23 C23            1.4661    -4.8168     1.1737 C.ar    
  24 F24            1.2702    -4.1857     2.3520 F       
  25 F25            1.2199    -4.1642    -2.4131 F       
  26 O26            9.5009     2.8641    -0.7560 O.2     
  27 H27           -0.8125     1.9499     0.0167 H       
  28 H28            1.5606     2.8752     0.0019 H       
  29 H29            2.6270    -1.9408    -0.0324 H       
  30 H30            3.7217     2.7604    -0.0187 H       
  31 H31            6.0581     1.0940     0.5343 H       
  32 H32            5.9277     4.0833    -0.0802 H       
  33 H33            5.7365     3.3942     1.5525 H       
  34 H34            8.1085     4.1423     0.9595 H       
  35 H35            7.9586     2.4569     1.5069 H       
  36 H36            8.0957     1.7793    -2.3290 H       
  37 H37            5.9612     0.8528    -1.8778 H       
  38 H38            5.6673     2.5914    -2.0915 H       
  39 H39            2.0246    -6.6348    -2.1827 H       
  40 H40            2.4213    -7.8085    -0.0594 H       
  41 H41            2.0624    -6.6564     2.0824 H       
@<TRIPOS>BOND
   1    1    2 1
   2    1    5 1
   3    1   27 1
   4    2    3 2
   5    3    4 1
   6    3    6 1
   7    4    5 2
   8    4    7 1
   9    5   28 1
  10    6   16 am
  11    6   29 1
  12    7    8 2
  13    7    9 am
  14    9   10 1
  15    9   30 1
  16   10   11 1
  17   10   15 1
  18   10   31 1
  19   11   12 1
  20   11   32 1
  21   11   33 1
  22   12   13 1
  23   12   34 1
  24   12   35 1
  25   13   14 am
  26   13   26 2
  27   14   15 1
  28   14   36 1
  29   15   37 1
  30   15   38 1
  31   16   17 2
  32   16   18 1
  33   18   19 ar
  34   18   23 ar
  35   19   20 ar
  36   19   25 1
  37   20   21 ar
  38   20   39 1
  39   21   22 ar
  40   21   40 1
  41   22   23 ar
  42   22   41 1
  43   23   24 1

#	End of record

