#	Name: ASD03331391
#	Creating user name:	WinNT
#	Creation time:	15. 06. 2019 20:39

#	Modifying user name:	WinNT
#	Modification time:	15. 06. 2019 20:39

#	Program:	/corina/corina34_cracker 3.40 0067  02.08.2006

@<TRIPOS>MOLECULE
ASD03331391
  61   64    0    0    0
SMALL
NO_CHARGES


@<TRIPOS>ATOM
   1 N1            -0.2166     1.2526     0.7290 N.2     
   2 N2            -0.2498    -0.1494     0.7970 N.am    
   3 C3             1.0174    -0.5850     0.9867 C.2     
   4 C4             1.8288     0.4998     1.0398 C.2     
   5 C5             1.0337     1.6437     0.8749 C.2     
   6 C6             3.3198     0.4045     1.2461 C.3     
   7 C7             1.5287    -1.9980     1.1233 C.3     
   8 C8             3.0509    -1.9656     0.9216 C.3     
   9 O9             3.6183    -0.9183     1.7132 O.3     
  10 C10           -1.3481    -0.9235     0.6924 C.2     
  11 O11           -1.2490    -2.1320     0.7682 O.2     
  12 N12           -2.5564    -0.3569     0.5036 N.am    
  13 C13           -4.8083    -0.4658    -0.3941 C.2     
  14 C14           -3.7502    -1.1984     0.3899 C.3     
  15 C15           -4.2824    -1.5201     1.7878 C.3     
  16 C16           -4.4909    -0.2194     2.5660 C.3     
  17 O17           -4.9035     0.7400    -0.3046 O.2     
  18 N18           -5.6488    -1.1505    -1.1948 N.am    
  19 C19           -5.4577    -2.5886    -1.3986 C.3     
  20 O20           -7.6052    -1.0477    -2.6478 O.3     
  21 C21           -6.6950    -0.4934    -1.8260 C.2     
  22 N22           -6.9805     0.7814    -1.7324 N.2     
  23 N23           -8.0156     1.0396    -2.4515 N.2     
  24 C24           -8.4281    -0.0519    -3.0277 C.2     
  25 C25           -9.6116    -0.1783    -3.9520 C.3     
  26 C26           -5.6152    -2.2618     1.6679 C.3     
  27 C27           -3.2734    -2.4008     2.5275 C.3     
  28 C28            1.5153     3.0471     0.8661 C.ar    
  29 C29            0.9075     3.9892     0.0383 C.ar    
  30 C30            1.3595     5.2946     0.0335 C.ar    
  31 C31            2.4171     5.6669     0.8514 C.ar    
  32 C32            3.0228     4.7325     1.6743 C.ar    
  33 C33            2.5727     3.4277     1.6897 C.ar    
  34 F34            2.8572     6.9442     0.8442 F       
  35 F35            0.7717     6.2095    -0.7682 F       
  36 H36            3.8347     0.5872     0.3029 H       
  37 H37            3.6368     1.1375     1.9878 H       
  38 H38            1.2958    -2.3807     2.1170 H       
  39 H39            1.0690    -2.6322     0.3653 H       
  40 H40            3.4776    -2.9216     1.2251 H       
  41 H41            3.2738    -1.7869    -0.1303 H       
  42 H42           -2.6355     0.6079     0.4431 H       
  43 H43           -3.4940    -2.1251    -0.1235 H       
  44 H44           -5.2097     0.4081     2.0390 H       
  45 H45           -4.8701    -0.4486     3.5619 H       
  46 H46           -3.5414     0.3091     2.6514 H       
  47 H47           -5.9372    -3.1373    -0.5880 H       
  48 H48           -5.9022    -2.8830    -2.3493 H       
  49 H49           -4.3917    -2.8154    -1.4102 H       
  50 H50          -10.5049    -0.4041    -3.3697 H       
  51 H51           -9.7552     0.7594    -4.4889 H       
  52 H52           -9.4307    -0.9818    -4.6661 H       
  53 H53           -5.4518    -3.2278     1.1900 H       
  54 H54           -6.0367    -2.4147     2.6614 H       
  55 H55           -6.3068    -1.6715     1.0667 H       
  56 H56           -2.3239    -1.8724     2.6129 H       
  57 H57           -3.6526    -2.6300     3.5234 H       
  58 H58           -3.1249    -3.3275     1.9731 H       
  59 H59            0.0850     3.6991    -0.5986 H       
  60 H60            3.8458     5.0263     2.3090 H       
  61 H61            3.0431     2.7013     2.3357 H       
@<TRIPOS>BOND
   1    1    2 1
   2    1    5 2
   3    2    3 1
   4    2   10 am
   5    3    4 2
   6    3    7 1
   7    4    5 1
   8    4    6 1
   9    5   28 1
  10    6    9 1
  11    6   36 1
  12    6   37 1
  13    7    8 1
  14    7   38 1
  15    7   39 1
  16    8    9 1
  17    8   40 1
  18    8   41 1
  19   10   11 2
  20   10   12 am
  21   12   14 1
  22   12   42 1
  23   13   17 2
  24   13   18 am
  25   13   14 1
  26   14   15 1
  27   14   43 1
  28   15   16 1
  29   15   26 1
  30   15   27 1
  31   16   44 1
  32   16   45 1
  33   16   46 1
  34   18   19 1
  35   18   21 1
  36   19   47 1
  37   19   48 1
  38   19   49 1
  39   20   21 1
  40   20   24 1
  41   21   22 2
  42   22   23 1
  43   23   24 2
  44   24   25 1
  45   25   50 1
  46   25   51 1
  47   25   52 1
  48   26   53 1
  49   26   54 1
  50   26   55 1
  51   27   56 1
  52   27   57 1
  53   27   58 1
  54   28   29 ar
  55   28   33 ar
  56   29   30 ar
  57   29   59 1
  58   30   31 ar
  59   30   35 1
  60   31   32 ar
  61   31   34 1
  62   32   33 ar
  63   32   60 1
  64   33   61 1

#	End of record

