#	Name: ASD03940001
#	Creating user name:	WinNT
#	Creation time:	15. 06. 2019 20:47

#	Modifying user name:	WinNT
#	Modification time:	15. 06. 2019 20:47

#	Program:	/corina/corina34_cracker 3.40 0067  02.08.2006

@<TRIPOS>MOLECULE
ASD03940001
  97  100    0    0    0
SMALL
NO_CHARGES


@<TRIPOS>ATOM
   1 N1            -0.0161     1.3326     0.0094 N.am    
   2 C2             0.0021    -0.0041     0.0020 C.2     
   3 C3             1.1543     2.2131     0.0029 C.3     
   4 C4             0.7428     3.5280     0.6724 C.3     
   5 C5            -0.7908     3.4946     0.7727 C.3     
   6 C6            -1.2045     2.1921     0.0659 C.3     
   7 C7             2.2902     1.5721     0.7557 C.2     
   8 O8             2.3422     1.6473     1.9596 O.2     
   9 O9             3.2508     0.9130     0.0846 O.3     
  10 C10            4.3204     0.3106     0.8565 C.3     
  11 C11            5.4859    -0.0683    -0.0620 C.3     
  12 N12            5.8282     1.0781    -0.9090 N.am    
  13 C13            5.0836    -1.2305    -0.9318 C.2     
  14 O14            4.2944    -1.0576    -1.8370 O.2     
  15 O15            0.7286    -0.5984     0.7693 O.2     
  16 C16           -0.8124    -0.8214    -0.9730 C.3     
  17 C17           -2.3038    -0.7167    -0.6505 C.3     
  18 N18           -0.3806    -2.2365    -0.8171 N.am    
  19 C19            0.8679    -2.5201    -1.2648 C.2     
  20 C20            1.4589    -3.9021    -1.1686 C.3     
  21 O21            1.5305    -1.6292    -1.7687 O.2     
  22 C22            0.7078    -4.7629    -0.1526 C.3     
  23 N23            2.8747    -3.7315    -0.7140 N.am    
  24 C24            3.7881    -3.7776    -1.7252 C.2     
  25 C25            3.1913    -3.5416     0.7036 C.3     
  26 C26            5.2652    -3.6673    -1.4740 C.3     
  27 O27            3.3930    -3.9105    -2.8775 O.2     
  28 N28            5.5985    -2.4591    -0.7189 N.am    
  29 C29            5.7847    -4.8810    -0.6956 C.3     
  30 C30            6.7571    -4.3121     0.3514 C.3     
  31 C31            6.6007    -2.7881     0.2983 C.3     
  32 C32            6.6659     2.0288    -0.4499 C.2     
  33 C33            7.0179     3.2073    -1.3207 C.3     
  34 O34            7.1365     1.9359     0.6640 O.2     
  35 C35            7.6888     2.7115    -2.6032 C.3     
  36 N36            7.9370     4.0907    -0.5988 N.am    
  37 C37            8.0033     5.3988    -0.9163 C.2     
  38 O38            7.3001     5.8459    -1.8020 O.2     
  39 C39            8.9262     6.2858    -0.1914 C.2     
  40 C40            8.9916     7.5766    -0.5047 C.2     
  41 C41            9.9371     8.4853     0.2379 C.3     
  42 C42           10.8507     9.1973    -0.7617 C.3     
  43 C43           11.8106    10.1198    -0.0077 C.3     
  44 C44            7.9295     3.8774    -3.5272 C.ar    
  45 C45            9.1157     4.5835    -3.4545 C.ar    
  46 C46            9.3365     5.6529    -4.3021 C.ar    
  47 C47            8.3713     6.0160    -5.2227 C.ar    
  48 C48            7.1855     5.3094    -5.2960 C.ar    
  49 C49            6.9665     4.2372    -4.4514 C.ar    
  50 H50            1.4607     2.4017    -1.0287 H       
  51 H51            1.1809     3.6002     1.6656 H       
  52 H52            1.0567     4.3724     0.0599 H       
  53 H53           -1.0991     3.4689     1.8169 H       
  54 H54           -1.2236     4.3545     0.2670 H       
  55 H55           -1.5487     2.4130    -0.9411 H       
  56 H56           -1.9886     1.7050     0.6404 H       
  57 H57            4.6704     1.0213     1.6057 H       
  58 H58            3.9482    -0.5837     1.3557 H       
  59 H59            6.3496    -0.3425     0.5428 H       
  60 H60            5.4518     1.1524    -1.7999 H       
  61 H61           -0.6249    -0.4861    -1.9912 H       
  62 H62           -2.6173     0.3252    -0.7156 H       
  63 H63           -2.8726    -1.3125    -1.3643 H       
  64 H64           -2.4844    -1.0881     0.3582 H       
  65 H65           -0.9846    -2.8893    -0.4276 H       
  66 H66            1.4417    -4.3856    -2.1458 H       
  67 H67           -0.3356    -4.8541    -0.4545 H       
  68 H68            1.1614    -5.7531    -0.1094 H       
  69 H69            0.7621    -4.2952     0.8305 H       
  70 H70            3.3547    -4.5119     1.1726 H       
  71 H71            4.0932    -2.9366     0.7966 H       
  72 H72            2.3615    -3.0349     1.1965 H       
  73 H73            5.7804    -3.6249    -2.4456 H       
  74 H74            4.9716    -5.4158    -0.2125 H       
  75 H75            6.3198    -5.5550    -1.3697 H       
  76 H76            6.5012    -4.6835     1.3432 H       
  77 H77            7.7808    -4.5926     0.1001 H       
  78 H78            7.5556    -2.3310     0.0320 H       
  79 H79            6.2771    -2.4164     1.2705 H       
  80 H80            6.1106     3.7558    -1.5739 H       
  81 H81            8.6405     2.2407    -2.3568 H       
  82 H82            7.0410     1.9859    -3.0950 H       
  83 H83            8.4979     3.7340     0.1077 H       
  84 H84            9.5507     5.8887     0.5952 H       
  85 H85            8.3671     7.9737    -1.2913 H       
  86 H86            9.3652     9.2249     0.7983 H       
  87 H87           10.5419     7.8955     0.9267 H       
  88 H88           11.4226     8.4577    -1.3220 H       
  89 H89           10.2459     9.7871    -1.4505 H       
  90 H90           12.4155     9.5301     0.6811 H       
  91 H91           12.4615    10.6271    -0.7199 H       
  92 H92           11.2388    10.8595     0.5526 H       
  93 H93            9.8698     4.2998    -2.7353 H       
  94 H94           10.2630     6.2051    -4.2448 H       
  95 H95            8.5436     6.8520    -5.8844 H       
  96 H96            6.4313     5.5932    -6.0150 H       
  97 H97            6.0401     3.6851    -4.5087 H       
@<TRIPOS>BOND
   1    1    2 am
   2    1    3 1
   3    1    6 1
   4    2   15 2
   5    2   16 1
   6    3    4 1
   7    3    7 1
   8    3   50 1
   9    4    5 1
  10    4   51 1
  11    4   52 1
  12    5    6 1
  13    5   53 1
  14    5   54 1
  15    6   55 1
  16    6   56 1
  17    7    8 2
  18    7    9 1
  19    9   10 1
  20   10   11 1
  21   10   57 1
  22   10   58 1
  23   11   12 1
  24   11   13 1
  25   11   59 1
  26   12   32 am
  27   12   60 1
  28   13   14 2
  29   13   28 am
  30   16   17 1
  31   16   18 1
  32   16   61 1
  33   17   62 1
  34   17   63 1
  35   17   64 1
  36   18   19 am
  37   18   65 1
  38   19   20 1
  39   19   21 2
  40   20   22 1
  41   20   23 1
  42   20   66 1
  43   22   67 1
  44   22   68 1
  45   22   69 1
  46   23   24 am
  47   23   25 1
  48   24   26 1
  49   24   27 2
  50   25   70 1
  51   25   71 1
  52   25   72 1
  53   26   28 1
  54   26   29 1
  55   26   73 1
  56   28   31 1
  57   29   30 1
  58   29   74 1
  59   29   75 1
  60   30   31 1
  61   30   76 1
  62   30   77 1
  63   31   78 1
  64   31   79 1
  65   32   33 1
  66   32   34 2
  67   33   35 1
  68   33   36 1
  69   33   80 1
  70   35   44 1
  71   35   81 1
  72   35   82 1
  73   36   37 am
  74   36   83 1
  75   37   38 2
  76   37   39 1
  77   39   40 2
  78   39   84 1
  79   40   41 1
  80   40   85 1
  81   41   42 1
  82   41   86 1
  83   41   87 1
  84   42   43 1
  85   42   88 1
  86   42   89 1
  87   43   90 1
  88   43   91 1
  89   43   92 1
  90   44   45 ar
  91   44   49 ar
  92   45   46 ar
  93   45   93 1
  94   46   47 ar
  95   46   94 1
  96   47   48 ar
  97   47   95 1
  98   48   49 ar
  99   48   96 1
 100   49   97 1

#	End of record

