#	Name: ASD00431212
#	Creating user name:	WinNT
#	Creation time:	15. 06. 2019 18:35

#	Modifying user name:	WinNT
#	Modification time:	15. 06. 2019 18:35

#	Program:	/corina/corina34_cracker 3.40 0067  02.08.2006

@<TRIPOS>MOLECULE
ASD00431212
  49   51    0    0    0
SMALL
NO_CHARGES


@<TRIPOS>ATOM
   1 C1             0.0507     1.4757    -0.1827 C.2     
   2 N2             0.0509     0.1281    -0.1650 N.am    
   3 O3             1.1029     2.0834    -0.1896 O.2     
   4 O4            -1.1154     2.1486    -0.1982 O.3     
   5 C5             1.3197    -0.6041    -0.1542 C.3     
   6 C6             1.8230    -0.7313     1.2850 C.3     
   7 O7             0.0566    -2.7812    -0.5356 O.3     
   8 N8             0.1649    -3.8267    -1.1332 N.2     
   9 C9             1.2887    -3.8760    -1.8102 C.2     
  10 C10            1.9524    -2.6392    -1.5627 C.2     
  11 C11            1.1117    -1.9783    -0.7369 C.2     
  12 S12            3.2830    -5.0279    -3.5547 S.3     
  13 C13            2.9085    -6.5906    -4.1378 C.2     
  14 N14            1.7616    -6.9814    -3.6738 N.2     
  15 C15            1.1225    -6.1516    -2.8789 C.2     
  16 C16            1.7678    -4.9874    -2.6566 C.2     
  17 O17            3.6965    -7.3170    -4.9659 O.3     
  18 C18            3.3118    -8.5862    -5.2620 C.ar    
  19 C19            2.1538    -8.8080    -5.9921 C.ar    
  20 C20            1.7644   -10.1038    -6.2928 C.ar    
  21 C21            2.5339   -11.1760    -5.8628 C.ar    
  22 C22            3.6870   -10.9525    -5.1352 C.ar    
  23 C23            4.0805    -9.6614    -4.8389 C.ar    
  24 O24            0.6299   -10.3244    -7.0077 O.3     
  25 C25            0.3611   -11.6724    -7.3984 C.3     
  26 C26           -0.5438   -12.3344    -6.3573 C.3     
  27 C27           -0.3376   -11.6792    -8.7595 C.3     
  28 C28           -1.0397     3.5985    -0.2167 C.3     
  29 H29           -0.7891    -0.3570    -0.1594 H       
  30 H30            2.0558    -0.0644    -0.7501 H       
  31 H31            1.0869    -1.2711     1.8809 H       
  32 H32            2.7670    -1.2761     1.2931 H       
  33 H33            1.9734     0.2626     1.7065 H       
  34 H34            2.9060    -2.3074    -1.9461 H       
  35 H35            0.1623    -6.3820    -2.4413 H       
  36 H36            1.5561    -7.9725    -6.3254 H       
  37 H37            2.2309   -12.1858    -6.0969 H       
  38 H38            4.2841   -11.7881    -4.8013 H       
  39 H39            4.9848    -9.4891    -4.2742 H       
  40 H40            1.2985   -12.2242    -7.4684 H       
  41 H41           -0.0460   -12.3296    -5.3876 H       
  42 H42           -1.4812   -11.7826    -6.2872 H       
  43 H43           -0.7488   -13.3626    -6.6553 H       
  44 H44            0.3070   -11.2076    -9.5012 H       
  45 H45           -0.5427   -12.7075    -9.0575 H       
  46 H46           -1.2750   -11.1275    -8.6894 H       
  47 H47           -0.5127     3.9462     0.6718 H       
  48 H48           -0.5025     3.9229    -1.1079 H       
  49 H49           -2.0469     4.0148    -0.2279 H       
@<TRIPOS>BOND
   1    1    2 am
   2    1    3 2
   3    1    4 1
   4    2    5 1
   5    2   29 1
   6    4   28 1
   7    5    6 1
   8    5   11 1
   9    5   30 1
  10    6   31 1
  11    6   32 1
  12    6   33 1
  13    7    8 1
  14    7   11 1
  15    8    9 2
  16    9   10 1
  17    9   16 1
  18   10   11 2
  19   10   34 1
  20   12   13 1
  21   12   16 1
  22   13   14 2
  23   13   17 1
  24   14   15 1
  25   15   16 2
  26   15   35 1
  27   17   18 1
  28   18   19 ar
  29   18   23 ar
  30   19   20 ar
  31   19   36 1
  32   20   21 ar
  33   20   24 1
  34   21   22 ar
  35   21   37 1
  36   22   23 ar
  37   22   38 1
  38   23   39 1
  39   24   25 1
  40   25   26 1
  41   25   27 1
  42   25   40 1
  43   26   41 1
  44   26   42 1
  45   26   43 1
  46   27   44 1
  47   27   45 1
  48   27   46 1
  49   28   47 1
  50   28   48 1
  51   28   49 1

#	End of record

