#	Name: ASD01915316
#	Creating user name:	WinNT
#	Creation time:	15. 06. 2019 20:05

#	Modifying user name:	WinNT
#	Modification time:	15. 06. 2019 20:05

#	Program:	/corina/corina34_cracker 3.40 0067  02.08.2006

@<TRIPOS>MOLECULE
ASD01915316
  47   50    0    0    0
SMALL
NO_CHARGES


@<TRIPOS>ATOM
   1 N1             0.2330     1.1650     0.1296 N.2     
   2 N2             0.5117    -0.1275    -0.3446 N.pl3   
   3 N3             1.7151    -0.1066    -0.8081 N.2     
   4 N4             2.2089     1.0723    -0.6673 N.2     
   5 C5             1.3159     1.8726    -0.0927 C.2     
   6 C6             1.5118     3.3287     0.2427 C.3     
   7 C7            -0.3537    -1.2308    -0.3186 C.ar    
   8 C8             0.0629    -2.4532    -0.8269 C.ar    
   9 C9            -0.7926    -3.5390    -0.7999 C.ar    
  10 C10           -2.0628    -3.4070    -0.2671 C.ar    
  11 C11           -2.4798    -2.1897     0.2393 C.ar    
  12 C12           -1.6269    -1.1036     0.2208 C.ar    
  13 Cl13          -0.2731    -5.0688    -1.4352 Cl      
  14 N14            2.5144     3.4580     1.3089 N.am    
  15 C15            2.9694     4.8016     1.6916 C.3     
  16 C16            3.4517     5.5349     0.4360 C.3     
  17 C17            2.3397     5.5236    -0.6153 C.3     
  18 C18            2.0104     4.0785    -0.9966 C.3     
  19 C19            3.0069     2.3649     1.9246 C.2     
  20 O20            2.5505     1.2698     1.6729 O.2     
  21 C21            4.1248     2.5035     2.9258 C.3     
  22 C22            4.1310     1.2958     3.8794 C.3     
  23 C23            5.4964     0.6004     3.7009 C.3     
  24 C24            6.4221     1.7156     3.1546 C.3     
  25 C25            5.4866     2.4998     2.2011 C.3     
  26 H26            0.5666     3.7572     0.5760 H       
  27 H27            1.0541    -2.5561    -1.2433 H       
  28 H28           -2.7299    -4.2561    -0.2472 H       
  29 H29           -3.4719    -2.0894     0.6541 H       
  30 H30           -1.9534    -0.1534     0.6169 H       
  31 H31            2.1438     5.3525     2.1420 H       
  32 H32            3.7895     4.7202     2.4049 H       
  33 H33            3.7019     6.5650     0.6899 H       
  34 H34            4.3338     5.0333     0.0380 H       
  35 H35            1.4498     6.0035    -0.2078 H       
  36 H36            2.6714     6.0662    -1.5006 H       
  37 H37            2.9061     3.5906    -1.3811 H       
  38 H38            1.2348     4.0720    -1.7623 H       
  39 H39            4.0053     3.4265     3.4930 H       
  40 H40            4.0154     1.6329     4.9095 H       
  41 H41            3.3255     0.6096     3.6180 H       
  42 H42            5.8656     0.2333     4.6586 H       
  43 H43            5.4178    -0.2159     2.9830 H       
  44 H44            6.7742     2.3560     3.9633 H       
  45 H45            7.2612     1.2871     2.6065 H       
  46 H46            5.4065     1.9902     1.2409 H       
  47 H47            5.8486     3.5187     2.0642 H       
@<TRIPOS>BOND
   1    1    2 1
   2    1    5 2
   3    2    3 1
   4    2    7 1
   5    3    4 2
   6    4    5 1
   7    5    6 1
   8    6   14 1
   9    6   18 1
  10    6   26 1
  11    7    8 ar
  12    7   12 ar
  13    8    9 ar
  14    8   27 1
  15    9   10 ar
  16    9   13 1
  17   10   11 ar
  18   10   28 1
  19   11   12 ar
  20   11   29 1
  21   12   30 1
  22   14   15 1
  23   14   19 am
  24   15   16 1
  25   15   31 1
  26   15   32 1
  27   16   17 1
  28   16   33 1
  29   16   34 1
  30   17   18 1
  31   17   35 1
  32   17   36 1
  33   18   37 1
  34   18   38 1
  35   19   20 2
  36   19   21 1
  37   21   22 1
  38   21   25 1
  39   21   39 1
  40   22   23 1
  41   22   40 1
  42   22   41 1
  43   23   24 1
  44   23   42 1
  45   23   43 1
  46   24   25 1
  47   24   44 1
  48   24   45 1
  49   25   46 1
  50   25   47 1

#	End of record

