#	Name: ASD05313127
#	Creating user name:	WinNT
#	Creation time:	15. 06. 2019 20:58

#	Modifying user name:	WinNT
#	Modification time:	15. 06. 2019 20:58

#	Program:	/corina/corina34_cracker 3.40 0067  02.08.2006

@<TRIPOS>MOLECULE
ASD05313127
  41   44    0    0    0
SMALL
NO_CHARGES


@<TRIPOS>ATOM
   1 C1            -0.0853     1.0856     0.6957 C.2     
   2 C2             0.0530    -0.3913     0.4127 C.3     
   3 N3             0.9587     1.9512     0.7049 N.pl3   
   4 N4             1.4236    -0.6069    -0.0883 N.am    
   5 C5             2.5279     0.0839     0.5949 C.3     
   6 C6             2.3516     1.5987     0.4352 C.3     
   7 N7            -0.8636     3.0002     1.1562 N.2     
   8 N8            -1.1613     1.7599     0.9714 N.2     
   9 C9             0.4340     3.1713     1.0052 C.2     
  10 C10            1.6574    -1.4143    -1.1419 C.2     
  11 O11            2.7791    -1.5042    -1.6016 O.2     
  12 C12            0.5496    -2.1906    -1.7384 C.ar    
  13 C13            0.3185    -2.1387    -3.1141 C.ar    
  14 C14           -0.7165    -2.8658    -3.6644 C.ar    
  15 C15           -1.5251    -3.6451    -2.8558 C.ar    
  16 C16           -1.3015    -3.7010    -1.4918 C.ar    
  17 C17           -0.2660    -2.9830    -0.9294 C.ar    
  18 C18            1.1975    -1.2898    -3.9961 C.3     
  19 F19            0.7716    -1.4007    -5.3240 F       
  20 F20            1.1143     0.0463    -3.5897 F       
  21 F21            2.5224    -1.7270    -3.8931 F       
  22 C22            1.1778     4.4430     1.1391 C.ar    
  23 C23            0.4917     5.6163     1.4530 C.ar    
  24 C24            1.2017     6.7977     1.5752 C.ar    
  25 C25            2.5755     6.7687     1.3796 C.ar    
  26 C26            3.1919     5.5699     1.0705 C.ar    
  27 N27            2.4941     4.4577     0.9648 N.ar    
  28 H28           -0.1023    -0.9616     1.3285 H       
  29 H29           -0.6714    -0.6947    -0.3431 H       
  30 H30            2.5189    -0.1739     1.6539 H       
  31 H31            3.4767    -0.2208     0.1533 H       
  32 H32            2.6104     1.8898    -0.5828 H       
  33 H33            3.0017     2.1175     1.1397 H       
  34 H34           -0.8964    -2.8266    -4.7286 H       
  35 H35           -2.3346    -4.2120    -3.2916 H       
  36 H36           -1.9362    -4.3111    -0.8663 H       
  37 H37           -0.0899    -3.0307     0.1351 H       
  38 H38           -0.5784     5.6028     1.5982 H       
  39 H39            0.6979     7.7219     1.8170 H       
  40 H40            3.1577     7.6740     1.4676 H       
  41 H41            4.2607     5.5446     0.9175 H       
@<TRIPOS>BOND
   1    1    2 1
   2    1    3 1
   3    1    8 2
   4    2    4 1
   5    2   28 1
   6    2   29 1
   7    3    6 1
   8    3    9 1
   9    4    5 1
  10    4   10 am
  11    5    6 1
  12    5   30 1
  13    5   31 1
  14    6   32 1
  15    6   33 1
  16    7    8 1
  17    7    9 2
  18    9   22 1
  19   10   11 2
  20   10   12 1
  21   12   13 ar
  22   12   17 ar
  23   13   14 ar
  24   13   18 1
  25   14   15 ar
  26   14   34 1
  27   15   16 ar
  28   15   35 1
  29   16   17 ar
  30   16   36 1
  31   17   37 1
  32   18   19 1
  33   18   20 1
  34   18   21 1
  35   22   23 ar
  36   22   27 ar
  37   23   24 ar
  38   23   38 1
  39   24   25 ar
  40   24   39 1
  41   25   26 ar
  42   25   40 1
  43   26   27 ar
  44   26   41 1

#	End of record

