#	Name: ASD03091825
#	Creating user name:	WinNT
#	Creation time:	15. 06. 2019 20:31

#	Modifying user name:	WinNT
#	Modification time:	15. 06. 2019 20:31

#	Program:	/corina/corina34_cracker 3.40 0067  02.08.2006

@<TRIPOS>MOLECULE
ASD03091825
  47   51    0    0    0
SMALL
NO_CHARGES


@<TRIPOS>ATOM
   1 N1            -0.0165     1.3634     0.0095 N.pl3   
   2 C2             0.0021    -0.0041     0.0020 C.2     
   3 C3             1.2718    -0.4437    -0.0125 C.2     
   4 C4             2.1333     0.7377    -0.0143 C.ar    
   5 C5             3.5267     0.9315    -0.0270 C.ar    
   6 C6             4.0353     2.2241    -0.0253 C.ar    
   7 C7             3.1771     3.3113    -0.0108 C.ar    
   8 C8             1.8102     3.1321     0.0017 C.ar    
   9 C9             1.2726     1.8487    -0.0002 C.ar    
  10 C10            4.4429    -0.2321    -0.0415 C.ar    
  11 C11            5.8286    -0.0351    -0.0540 C.ar    
  12 C12            6.6423    -1.1540    -0.0674 C.ar    
  13 C13            6.0324    -2.4076    -0.0675 C.ar    
  14 N14            4.7122    -2.5004    -0.0550 N.ar    
  15 N15            3.9533    -1.4654    -0.0371 N.ar    
  16 O16            6.7919    -3.5319    -0.0807 O.3     
  17 C17            6.2573    -7.2003    -0.6802 C.3     
  18 C18            6.9402    -5.8299    -0.8158 C.3     
  19 C19            6.0999    -4.7822    -0.0800 C.3     
  20 C20            5.8620    -5.2319     1.3644 C.3     
  21 C21            5.2521    -6.6428     1.3523 C.3     
  22 C22            4.0951    -6.6490     0.3268 C.3     
  23 C23            4.7592    -7.0174    -1.0162 C.3     
  24 N24            6.2671    -7.5566     0.7636 N.3     
  25 C25            5.8879    -8.9620     0.9616 C.3     
  26 H26           -0.8178     1.9100     0.0165 H       
  27 H27           -0.8734    -0.6364     0.0073 H       
  28 H28            1.5947    -1.4743    -0.0208 H       
  29 H29            5.1037     2.3820    -0.0350 H       
  30 H30            3.5838     4.3118    -0.0089 H       
  31 H31            1.1547     3.9904     0.0132 H       
  32 H32            6.2496     0.9595    -0.0537 H       
  33 H33            7.7181    -1.0591    -0.0778 H       
  34 H34            6.7302    -7.9582    -1.3046 H       
  35 H35            7.9365    -5.8734    -0.3759 H       
  36 H36            7.0159    -5.5625    -1.8698 H       
  37 H37            5.1411    -4.6663    -0.5854 H       
  38 H38            6.8099    -5.2485     1.9024 H       
  39 H39            5.1748    -4.5413     1.8533 H       
  40 H40            4.9260    -6.9576     2.3435 H       
  41 H41            3.3506    -7.3969     0.5996 H       
  42 H42            3.6374    -5.6617     0.2654 H       
  43 H43            4.6281    -6.2112    -1.7380 H       
  44 H44            4.3413    -7.9465    -1.4038 H       
  45 H45            6.5942    -9.6061     0.4378 H       
  46 H46            5.9032    -9.1959     2.0261 H       
  47 H47            4.8850    -9.1266     0.5678 H       
@<TRIPOS>BOND
   1    1    2 1
   2    1    9 1
   3    1   26 1
   4    2    3 2
   5    2   27 1
   6    3    4 1
   7    3   28 1
   8    4    5 ar
   9    4    9 ar
  10    5    6 ar
  11    5   10 1
  12    6    7 ar
  13    6   29 1
  14    7    8 ar
  15    7   30 1
  16    8    9 ar
  17    8   31 1
  18   10   11 ar
  19   10   15 ar
  20   11   12 ar
  21   11   32 1
  22   12   13 ar
  23   12   33 1
  24   13   14 ar
  25   13   16 1
  26   14   15 ar
  27   16   19 1
  28   17   18 1
  29   17   23 1
  30   17   24 1
  31   17   34 1
  32   18   19 1
  33   18   35 1
  34   18   36 1
  35   19   20 1
  36   19   37 1
  37   20   21 1
  38   20   38 1
  39   20   39 1
  40   21   22 1
  41   21   24 1
  42   21   40 1
  43   22   23 1
  44   22   41 1
  45   22   42 1
  46   23   43 1
  47   23   44 1
  48   24   25 1
  49   25   45 1
  50   25   46 1
  51   25   47 1

#	End of record

