#	Name: ASD05060033
#	Creating user name:	WinNT
#	Creation time:	15. 06. 2019 20:56

#	Modifying user name:	WinNT
#	Modification time:	15. 06. 2019 20:56

#	Program:	/corina/corina34_cracker 3.40 0067  02.08.2006

@<TRIPOS>MOLECULE
ASD05060033
  55   58    0    0    0
SMALL
NO_CHARGES


@<TRIPOS>ATOM
   1 O1            -1.0090     1.8650    -0.3259 O.3     
   2 C2            -0.6296     0.5882    -0.4915 C.2     
   3 O3             0.5226     0.3285    -0.7463 O.2     
   4 C4            -1.6407    -0.5215    -0.3597 C.3     
   5 C5            -2.6652    -0.4007    -1.4583 C.ar    
   6 C6            -3.9119     0.1337    -1.1927 C.ar    
   7 C7            -4.8713     0.2490    -2.2119 C.ar    
   8 C8            -4.5965    -0.1606    -3.4771 C.ar    
   9 C9            -3.3372    -0.7090    -3.7805 C.ar    
  10 C10           -2.3590    -0.8248    -2.7607 C.ar    
  11 C11           -1.1017    -1.3734    -3.0702 C.ar    
  12 C12           -0.8407    -1.7849    -4.3409 C.ar    
  13 C13           -1.8024    -1.6709    -5.3432 C.ar    
  14 C14           -3.0282    -1.1398    -5.0817 C.ar    
  15 C15           -4.2394     0.5889     0.1804 C.ar    
  16 C16           -4.1635    -0.3019     1.2498 C.ar    
  17 C17           -4.4711     0.1271     2.5221 C.ar    
  18 C18           -4.8578     1.4458     2.7464 C.ar    
  19 C19           -4.9301     2.3341     1.6856 C.ar    
  20 C20           -4.6186     1.9096     0.4075 C.ar    
  21 C21           -5.3339     3.7723     1.8917 C.3     
  22 C22           -6.0404     3.9210     3.2413 C.3     
  23 C23           -5.1913     3.2197     4.3092 C.3     
  24 O24           -5.1620     1.8224     4.0158 O.3     
  25 O25           -0.9788    -1.7837    -0.4622 O.3     
  26 C26           -1.5811    -2.8208     0.3148 C.3     
  27 C27           -2.9994    -3.0825    -0.1959 C.3     
  28 C28           -0.7502    -4.0994     0.1904 C.3     
  29 C29           -1.6386    -2.3907     1.7820 C.3     
  30 H30           -0.3249     2.5420    -0.4202 H       
  31 H31           -2.1360    -0.4486     0.6086 H       
  32 H32           -5.8405     0.6688    -1.9864 H       
  33 H33           -5.3447    -0.0658    -4.2501 H       
  34 H34           -0.3469    -1.4674    -2.3035 H       
  35 H35            0.1258    -2.2055    -4.5761 H       
  36 H36           -1.5699    -2.0047    -6.3436 H       
  37 H37           -3.7630    -1.0581    -5.8689 H       
  38 H38           -3.8647    -1.3260     1.0812 H       
  39 H39           -4.4123    -0.5635     3.3504 H       
  40 H40           -4.6781     2.6022    -0.4191 H       
  41 H41           -4.4459     4.4043     1.8755 H       
  42 H42           -6.0099     4.0773     1.0929 H       
  43 H43           -6.1421     4.9778     3.4884 H       
  44 H44           -7.0260     3.4580     3.1931 H       
  45 H45           -4.1773     3.6194     4.2928 H       
  46 H46           -5.6333     3.3791     5.2927 H       
  47 H47           -2.9519    -3.5068    -1.1988 H       
  48 H48           -3.5025    -3.7824     0.4713 H       
  49 H49           -3.5542    -2.1447    -0.2241 H       
  50 H50            0.2603    -3.9130     0.5542 H       
  51 H51           -1.2096    -4.8904     0.7831 H       
  52 H52           -0.7092    -4.4058    -0.8549 H       
  53 H53           -2.1622    -1.4379     1.8611 H       
  54 H54           -2.1693    -3.1461     2.3615 H       
  55 H55           -0.6254    -2.2817     2.1687 H       
@<TRIPOS>BOND
   1    1    2 1
   2    1   30 1
   3    2    3 2
   4    2    4 1
   5    4    5 1
   6    4   25 1
   7    4   31 1
   8    5    6 ar
   9    5   10 ar
  10    6    7 ar
  11    6   15 1
  12    7    8 ar
  13    7   32 1
  14    8    9 ar
  15    8   33 1
  16    9   10 ar
  17    9   14 ar
  18   10   11 ar
  19   11   12 ar
  20   11   34 1
  21   12   13 ar
  22   12   35 1
  23   13   14 ar
  24   13   36 1
  25   14   37 1
  26   15   16 ar
  27   15   20 ar
  28   16   17 ar
  29   16   38 1
  30   17   18 ar
  31   17   39 1
  32   18   19 ar
  33   18   24 1
  34   19   20 ar
  35   19   21 1
  36   20   40 1
  37   21   22 1
  38   21   41 1
  39   21   42 1
  40   22   23 1
  41   22   43 1
  42   22   44 1
  43   23   24 1
  44   23   45 1
  45   23   46 1
  46   25   26 1
  47   26   27 1
  48   26   28 1
  49   26   29 1
  50   27   47 1
  51   27   48 1
  52   27   49 1
  53   28   50 1
  54   28   51 1
  55   28   52 1
  56   29   53 1
  57   29   54 1
  58   29   55 1

#	End of record

