#	Name: ASD02500685
#	Creating user name:	WinNT
#	Creation time:	15. 06. 2019 20:23

#	Modifying user name:	WinNT
#	Modification time:	15. 06. 2019 20:23

#	Program:	/corina/corina34_cracker 3.40 0067  02.08.2006

@<TRIPOS>MOLECULE
ASD02500685
  73   77    0    0    0
SMALL
NO_CHARGES


@<TRIPOS>ATOM
   1 N1            -3.5107     6.0322    -1.9829 N.ar    
   2 C2            -4.1230     6.6713    -2.9499 C.ar    
   3 C3            -5.5130     6.7329    -3.0229 C.ar    
   4 C4            -6.2737     6.1166    -2.0707 C.ar    
   5 C5            -5.6127     5.4308    -1.0340 C.ar    
   6 C6            -6.3276     4.7741    -0.0198 C.ar    
   7 C7            -5.6514     4.1220     0.9660 C.ar    
   8 C8            -4.2585     4.0980     0.9822 C.ar    
   9 C9            -3.5340     4.7241     0.0148 C.ar    
  10 C10           -4.1959     5.4079    -1.0196 C.ar    
  11 S11           -1.7732     4.6785     0.0598 S.o2    
  12 O12           -1.3321     6.0155    -0.1327 O.2     
  13 O13           -1.4208     3.8997     1.1949 O.2     
  14 N14           -1.2709     3.8248    -1.2673 N.am    
  15 C15           -1.6006     2.4798    -1.3945 C.ar    
  16 C16           -2.1024     2.0007    -2.5987 C.ar    
  17 C17           -2.4300     0.6626    -2.7255 C.ar    
  18 C18           -2.2524    -0.2026    -1.6340 C.ar    
  19 C19           -1.7464     0.2949    -0.4288 C.ar    
  20 C20           -1.4213     1.6160    -0.3160 C.ar    
  21 O21           -2.9207     0.1889    -3.8982 O.3     
  22 C22           -3.0743     1.1284    -4.9639 C.3     
  23 C23           -2.5982    -1.6283    -1.7575 C.2     
  24 O24           -3.7077    -1.9546    -2.1341 O.2     
  25 N25           -1.6852    -2.5719    -1.4533 N.am    
  26 C26           -1.9770    -3.9988    -1.6589 C.3     
  27 C27           -0.8286    -4.6197    -2.4613 C.3     
  28 N28            0.4451    -4.3372    -1.7861 N.3     
  29 C29            0.7144    -2.8939    -1.7387 C.3     
  30 C30           -0.3685    -2.2019    -0.9125 C.3     
  31 C31            1.5523    -5.0586    -2.4277 C.3     
  32 C32            2.8631    -4.5616    -1.8744 C.ar    
  33 C33            3.3179    -5.0245    -0.6475 C.ar    
  34 C34            4.5236    -4.5670    -0.1392 C.ar    
  35 C35            5.2723    -3.6478    -0.8581 C.ar    
  36 C36            4.8133    -3.1882    -2.0842 C.ar    
  37 C37            3.6137    -3.6500    -2.5915 C.ar    
  38 O38            6.4546    -3.1971    -0.3622 O.3     
  39 C39            7.1729    -2.2511    -1.1566 C.3     
  40 O40            2.5815    -5.9250     0.0551 O.3     
  41 C41            3.1107    -6.3577     1.3100 C.3     
  42 H42           -3.5343     7.1634    -3.7099 H       
  43 H43           -5.9885     7.2679    -3.8317 H       
  44 H44           -7.3522     6.1545    -2.1117 H       
  45 H45           -7.4075     4.7862    -0.0213 H       
  46 H46           -6.2021     3.6170     1.7458 H       
  47 H47           -3.7453     3.5746     1.7753 H       
  48 H48           -0.7467     4.2629    -1.9560 H       
  49 H49           -2.2367     2.6720    -3.4340 H       
  50 H50           -1.6090    -0.3679     0.4127 H       
  51 H51           -1.0270     1.9945     0.6155 H       
  52 H52           -3.7607     1.9174    -4.6566 H       
  53 H53           -2.1051     1.5642    -5.2066 H       
  54 H54           -3.4743     0.6203    -5.8414 H       
  55 H55           -2.0612    -4.4981    -0.6937 H       
  56 H56           -2.9100    -4.1056    -2.2123 H       
  57 H57           -0.9733    -5.6980    -2.5286 H       
  58 H58           -0.8119    -4.1914    -3.4635 H       
  59 H59            1.6888    -2.7205    -1.2819 H       
  60 H60            0.7097    -2.4896    -2.7509 H       
  61 H61           -0.2385    -1.1213    -0.9725 H       
  62 H62           -0.2951    -2.5252     0.1259 H       
  63 H63            1.4549    -6.1257    -2.2279 H       
  64 H64            1.5233    -4.8862    -3.5035 H       
  65 H65            4.8790    -4.9257     0.8155 H       
  66 H66            5.3962    -2.4722    -2.6446 H       
  67 H67            3.2602    -3.2944    -3.5480 H       
  68 H68            7.4110    -2.6948    -2.1233 H       
  69 H69            6.5600    -1.3622    -1.3058 H       
  70 H70            8.0957    -1.9747    -0.6465 H       
  71 H71            2.4264    -7.0735     1.7655 H       
  72 H72            4.0796    -6.8313     1.1519 H       
  73 H73            3.2297    -5.4983     1.9698 H       
@<TRIPOS>BOND
   1    1    2 ar
   2    1   10 ar
   3    2    3 ar
   4    2   42 1
   5    3    4 ar
   6    3   43 1
   7    4    5 ar
   8    4   44 1
   9    5    6 ar
  10    5   10 ar
  11    6    7 ar
  12    6   45 1
  13    7    8 ar
  14    7   46 1
  15    8    9 ar
  16    8   47 1
  17    9   10 ar
  18    9   11 1
  19   11   12 2
  20   11   13 2
  21   11   14 am
  22   14   15 1
  23   14   48 1
  24   15   16 ar
  25   15   20 ar
  26   16   17 ar
  27   16   49 1
  28   17   18 ar
  29   17   21 1
  30   18   19 ar
  31   18   23 1
  32   19   20 ar
  33   19   50 1
  34   20   51 1
  35   21   22 1
  36   22   52 1
  37   22   53 1
  38   22   54 1
  39   23   24 2
  40   23   25 am
  41   25   26 1
  42   25   30 1
  43   26   27 1
  44   26   55 1
  45   26   56 1
  46   27   28 1
  47   27   57 1
  48   27   58 1
  49   28   29 1
  50   28   31 1
  51   29   30 1
  52   29   59 1
  53   29   60 1
  54   30   61 1
  55   30   62 1
  56   31   32 1
  57   31   63 1
  58   31   64 1
  59   32   33 ar
  60   32   37 ar
  61   33   34 ar
  62   33   40 1
  63   34   35 ar
  64   34   65 1
  65   35   36 ar
  66   35   38 1
  67   36   37 ar
  68   36   66 1
  69   37   67 1
  70   38   39 1
  71   39   68 1
  72   39   69 1
  73   39   70 1
  74   40   41 1
  75   41   71 1
  76   41   72 1
  77   41   73 1

#	End of record

