#	Name: ASD00870006
#	Creating user name:	WinNT
#	Creation time:	15. 06. 2019 18:53

#	Modifying user name:	WinNT
#	Modification time:	15. 06. 2019 18:53

#	Program:	/corina/corina34_cracker 3.40 0067  02.08.2006

@<TRIPOS>MOLECULE
ASD00870006
  42   44    0    0    0
SMALL
NO_CHARGES


@<TRIPOS>ATOM
   1 C1            -0.0173     1.4248     0.0099 C.3     
   2 C2             1.4181     1.9544    -0.0010 C.3     
   3 C3             1.4088     3.4908    -0.1190 C.3     
   4 O4             2.0963     3.9058    -1.3010 O.3     
   5 C5             2.1631     3.9729     1.1441 C.3     
   6 O6             3.0363     5.0604     0.8326 O.3     
   7 C7             2.9710     2.7111     1.5412 C.3     
   8 O8             2.0700     1.6248     1.2370 O.3     
   9 N9             3.2902     2.7317     2.9708 N.pl3   
  10 C10            2.5783     2.1292     3.9650 C.2     
  11 N11            3.1456     2.3509     5.1151 N.2     
  12 C12            4.2543     3.1075     4.9325 C.ar    
  13 C13            5.2368     3.6428     5.7832 C.ar    
  14 N14            5.1850     3.4262     7.1490 N.pl3   
  15 N15            6.2168     4.3612     5.2454 N.ar    
  16 C16            6.2745     4.5727     3.9430 C.ar    
  17 N17            5.3771     4.0919     3.1088 N.ar    
  18 C18            4.3637     3.3560     3.5541 C.ar    
  19 P19           -1.3361    -0.8992     0.0100 P.3     
  20 O20           -2.2020    -0.5022    -1.1227 O.2     
  21 O21            0.0021    -0.0041     0.0020 O.3     
  22 O22           -0.7007    -4.9585    -0.8959 O.3     
  23 O23           -2.1257    -0.6718     1.3945 O.3     
  24 O24           -0.9428    -2.4537    -0.1344 O.3     
  25 P25           -1.7459    -3.7731    -0.5887 P.3     
  26 O26           -2.5295    -3.4778    -1.8091 O.2     
  27 O27           -2.7419    -4.2281     0.5916 O.3     
  28 H28           -0.5275     1.7763     0.9067 H       
  29 H29           -0.5445     1.7859    -0.8732 H       
  30 H30            1.9686     1.5218    -0.8364 H       
  31 H31            0.3859     3.8673    -0.1194 H       
  32 H32            2.1211     4.8645    -1.4255 H       
  33 H33            1.4637     4.2509     1.9325 H       
  34 H34            2.5828     5.8440     0.4930 H       
  35 H35            3.8802     2.6342     0.9449 H       
  36 H36            1.6764     1.5531     3.8197 H       
  37 H37            4.4646     2.8997     7.5296 H       
  38 H38            5.8690     3.8009     7.7258 H       
  39 H39            7.0883     5.1624     3.5478 H       
  40 H40           -1.1155    -5.7860    -1.1757 H       
  41 H41           -1.6172    -0.9117     2.1813 H       
  42 H42           -2.2959    -4.4379     1.4235 H       
@<TRIPOS>BOND
   1    1   21 1
   2    1    2 1
   3    1   28 1
   4    1   29 1
   5    2    3 1
   6    2    8 1
   7    2   30 1
   8    3    5 1
   9    3    4 1
  10    3   31 1
  11    4   32 1
  12    5    7 1
  13    5    6 1
  14    5   33 1
  15    6   34 1
  16    7    8 1
  17    7    9 1
  18    7   35 1
  19    9   10 1
  20    9   18 1
  21   10   11 2
  22   10   36 1
  23   11   12 1
  24   12   13 ar
  25   12   18 ar
  26   13   14 1
  27   13   15 ar
  28   14   37 1
  29   14   38 1
  30   15   16 ar
  31   16   17 ar
  32   16   39 1
  33   17   18 ar
  34   19   20 2
  35   19   21 1
  36   19   23 1
  37   19   24 1
  38   22   25 1
  39   22   40 1
  40   23   41 1
  41   24   25 1
  42   25   26 2
  43   25   27 1
  44   27   42 1

#	End of record

