#	Name: ASD01120108
#	Creating user name:	WinNT
#	Creation time:	15. 06. 2019 18:59

#	Modifying user name:	WinNT
#	Modification time:	15. 06. 2019 18:59

#	Program:	/corina/corina34_cracker 3.40 0067  02.08.2006

@<TRIPOS>MOLECULE
ASD01120108
  32   34    0    0    0
SMALL
NO_CHARGES


@<TRIPOS>ATOM
   1 C1            -0.0213     1.3881    -0.0723 C.ar    
   2 C2            -0.0740     0.1554     0.5615 C.ar    
   3 C3            -1.2587    -0.5533     0.5966 C.ar    
   4 C4            -2.3977    -0.0312    -0.0024 C.ar    
   5 C5            -2.3441     1.2033    -0.6363 C.ar    
   6 C6            -1.1598     1.9128    -0.6663 C.ar    
   7 N7            -3.5990    -0.7492     0.0324 N.pl3   
   8 C8            -4.8050    -0.0767     0.1526 C.2     
   9 N9            -5.9793    -0.6237     0.0792 N.2     
  10 C10           -7.0262     0.1788     0.2187 C.2     
  11 C11           -6.7358     1.4754     0.4213 C.2     
  12 S12           -4.9826     1.6523     0.4363 S.3     
  13 C13           -8.4216    -0.3204     0.1550 C.ar    
  14 C14           -8.6696    -1.6756    -0.0573 C.ar    
  15 C15           -9.9682    -2.1367    -0.1155 C.ar    
  16 C16          -11.0276    -1.2528     0.0370 C.ar    
  17 C17          -10.7840     0.0973     0.2485 C.ar    
  18 C18           -9.4876     0.5638     0.3131 C.ar    
  19 O19            1.1458     2.0854    -0.1065 O.3     
  20 O20          -12.3061    -1.7101    -0.0214 O.3     
  21 H21            0.8119    -0.2505     1.0272 H       
  22 H22           -1.2993    -1.5134     1.0895 H       
  23 H23           -3.2294     1.6100    -1.1023 H       
  24 H24           -1.1179     2.8728    -1.1592 H       
  25 H25           -3.5873    -1.7172    -0.0276 H       
  26 H26           -7.4534     2.2713     0.5556 H       
  27 H27           -7.8458    -2.3637    -0.1764 H       
  28 H28          -10.1611    -3.1864    -0.2804 H       
  29 H29          -11.6104     0.7825     0.3665 H       
  30 H30           -9.2987     1.6143     0.4781 H       
  31 H31            1.6994     1.8881    -0.8743 H       
  32 H32          -12.6663    -1.9813     0.8341 H       
@<TRIPOS>BOND
   1    1    2 ar
   2    1   19 1
   3    1    6 ar
   4    2    3 ar
   5    2   21 1
   6    3    4 ar
   7    3   22 1
   8    4    5 ar
   9    4    7 1
  10    5    6 ar
  11    5   23 1
  12    6   24 1
  13    7    8 1
  14    7   25 1
  15    8    9 2
  16    8   12 1
  17    9   10 1
  18   10   11 2
  19   10   13 1
  20   11   12 1
  21   11   26 1
  22   13   14 ar
  23   13   18 ar
  24   14   15 ar
  25   14   27 1
  26   15   16 ar
  27   15   28 1
  28   16   17 ar
  29   16   20 1
  30   17   18 ar
  31   17   29 1
  32   18   30 1
  33   19   31 1
  34   20   32 1

#	End of record

