#	Name: ASD03330272
#	Creating user name:	WinNT
#	Creation time:	15. 06. 2019 20:36

#	Modifying user name:	WinNT
#	Modification time:	15. 06. 2019 20:36

#	Program:	/corina/corina34_cracker 3.40 0067  02.08.2006

@<TRIPOS>MOLECULE
ASD03330272
  63   65    0    0    0
SMALL
NO_CHARGES


@<TRIPOS>ATOM
   1 C1             1.0716     1.3747    -0.6453 C.3     
   2 N2             0.7659     0.0158    -0.1763 N.3     
   3 C3             0.7367    -0.9403    -1.2979 C.3     
   4 C4             1.9961    -0.7517    -2.1037 C.2     
   5 N5             2.8040     0.3356    -1.9965 N.pl3   
   6 C6             2.5386     1.4540    -1.0871 C.3     
   7 C7             2.5445    -1.5701    -3.0361 C.2     
   8 N8             3.6762    -0.9805    -3.4849 N.2     
   9 C9             3.8375     0.1657    -2.8623 C.2     
  10 C10            4.9561     1.1117    -3.0691 C.ar    
  11 C11            5.7805     0.9878    -4.1878 C.ar    
  12 C12            2.0047    -2.8675    -3.4801 C.2     
  13 O13            0.9724    -3.2936    -2.9984 O.2     
  14 C14            2.1184    -4.8716    -4.8613 C.3     
  15 N15            2.6550    -3.5818    -4.4199 N.am    
  16 C16            6.8217     1.8735    -4.3753 C.ar    
  17 C17            7.0491     2.8828    -3.4568 C.ar    
  18 C18            6.2351     3.0110    -2.3455 C.ar    
  19 C19            5.1874     2.1349    -2.1494 C.ar    
  20 C20            2.6167    -5.1741    -6.2759 C.3     
  21 C21            4.1440    -5.0880    -6.3079 C.3     
  22 C22            2.1767    -6.5822    -6.6814 C.3     
  23 C23            2.0279    -4.1545    -7.2530 C.3     
  24 C24           -0.4982    -0.0111     0.5715 C.3     
  25 C25            2.5887    -5.9725    -3.9086 C.3     
  26 O26            4.0147    -6.0575    -3.9457 O.3     
  27 C27           -1.6481     0.3861    -0.3563 C.3     
  28 C28           -2.9589    -0.1934     0.1793 C.3     
  29 C29           -1.7516     1.9115    -0.4160 C.3     
  30 H30            0.4256     1.6212    -1.4879 H       
  31 H31            0.8978     2.0848     0.1632 H       
  32 H32            0.6949    -1.9590    -0.9125 H       
  33 H33           -0.1340    -0.7467    -1.9244 H       
  34 H34            2.7168     2.3976    -1.6028 H       
  35 H35            3.1895     1.3819    -0.2158 H       
  36 H36            5.6043     0.2000    -4.9053 H       
  37 H37            1.0292    -4.8313    -4.8606 H       
  38 H38            3.4783    -3.2420    -4.8041 H       
  39 H39            7.4609     1.7784    -5.2406 H       
  40 H40            7.8656     3.5733    -3.6078 H       
  41 H41            6.4177     3.8010    -1.6321 H       
  42 H42            4.5527     2.2360    -1.2814 H       
  43 H43            4.5669    -5.9286    -5.7578 H       
  44 H44            4.4881    -5.1203    -7.3417 H       
  45 H45            4.4650    -4.1538    -5.8472 H       
  46 H46            1.0887    -6.6435    -6.6586 H       
  47 H47            2.5317    -6.7977    -7.6892 H       
  48 H48            2.5962    -7.3085    -5.9854 H       
  49 H49            2.3414    -3.1513    -6.9641 H       
  50 H50            2.3829    -4.3700    -8.2608 H       
  51 H51            0.9398    -4.2158    -7.2302 H       
  52 H52           -0.6718    -1.0163     0.9556 H       
  53 H53           -0.4433     0.6912     1.4033 H       
  54 H54            2.2649    -5.7383    -2.8946 H       
  55 H55            2.1598    -6.9264    -4.2158 H       
  56 H56            4.3835    -6.7365    -3.3643 H       
  57 H57           -1.4598    -0.0047    -1.3562 H       
  58 H58           -3.1473     0.1974     1.1793 H       
  59 H59           -3.7782     0.0896    -0.4816 H       
  60 H60           -2.8852    -1.2801     0.2219 H       
  61 H61           -2.5537     2.1948    -1.0976 H       
  62 H62           -1.9664     2.3003     0.5794 H       
  63 H63           -0.8086     2.3259    -0.7723 H       
@<TRIPOS>BOND
   1    1    2 1
   2    1    6 1
   3    1   30 1
   4    1   31 1
   5    2    3 1
   6    2   24 1
   7    3    4 1
   8    3   32 1
   9    3   33 1
  10    4    5 1
  11    4    7 2
  12    5    6 1
  13    5    9 1
  14    6   34 1
  15    6   35 1
  16    7    8 1
  17    7   12 1
  18    8    9 2
  19    9   10 1
  20   10   11 ar
  21   10   19 ar
  22   11   16 ar
  23   11   36 1
  24   12   13 2
  25   12   15 am
  26   14   15 1
  27   14   25 1
  28   14   20 1
  29   14   37 1
  30   15   38 1
  31   16   17 ar
  32   16   39 1
  33   17   18 ar
  34   17   40 1
  35   18   19 ar
  36   18   41 1
  37   19   42 1
  38   20   21 1
  39   20   22 1
  40   20   23 1
  41   21   43 1
  42   21   44 1
  43   21   45 1
  44   22   46 1
  45   22   47 1
  46   22   48 1
  47   23   49 1
  48   23   50 1
  49   23   51 1
  50   24   27 1
  51   24   52 1
  52   24   53 1
  53   25   26 1
  54   25   54 1
  55   25   55 1
  56   26   56 1
  57   27   28 1
  58   27   29 1
  59   27   57 1
  60   28   58 1
  61   28   59 1
  62   28   60 1
  63   29   61 1
  64   29   62 1
  65   29   63 1

#	End of record

