#	Name: ASD09740268
#	Creating user name:	WinNT
#	Creation time:	15. 06. 2019 21:23

#	Modifying user name:	WinNT
#	Modification time:	15. 06. 2019 21:23

#	Program:	/corina/corina34_cracker 3.40 0067  02.08.2006

@<TRIPOS>MOLECULE
ASD09740268
  41   44    0    0    0
SMALL
NO_CHARGES


@<TRIPOS>ATOM
   1 N1            -0.0144     1.2085     0.0087 N.2     
   2 O2             0.0021    -0.0041     0.0020 O.3     
   3 C3             1.2057     1.6798    -0.0004 C.2     
   4 N4             2.0455     0.6239    -0.0141 N.2     
   5 C5             1.2699    -0.4439    -0.0125 C.2     
   6 C6             1.7129    -1.8543    -0.0243 C.ar    
   7 C7             1.5950     3.1130     0.0031 C.ar    
   8 C8             0.7715    -2.8845    -0.0208 C.ar    
   9 C9             1.1916    -4.1987    -0.0323 C.ar    
  10 C10            2.5425    -4.4962    -0.0473 C.ar    
  11 C11            3.4811    -3.4793    -0.0504 C.ar    
  12 C12            3.0744    -2.1612    -0.0447 C.ar    
  13 C13            0.6263     4.1194     0.0178 C.ar    
  14 C14            1.0315     5.4391     0.0211 C.ar    
  15 N15            2.3122     5.7539     0.0101 N.ar    
  16 C16            3.2577     4.8345    -0.0039 C.ar    
  17 C17            2.9397     3.4912    -0.0023 C.ar    
  18 C18            0.1765    -5.3126    -0.0281 C.3     
  19 C19            0.3524    -6.1699    -1.2846 C.3     
  20 C20            0.3830    -6.1883     1.2108 C.3     
  21 C21           -0.6104    -7.3520     1.1782 C.3     
  22 N22           -0.4012    -8.1418    -0.0420 N.3     
  23 C23           -0.6401    -7.3341    -1.2448 C.3     
  24 H24           -0.2834    -2.6536    -0.0088 H       
  25 H25            2.8661    -5.5265    -0.0563 H       
  26 H26            4.5343    -3.7182    -0.0617 H       
  27 H27            3.8079    -1.3685    -0.0475 H       
  28 H28           -0.4242     3.8688     0.0261 H       
  29 H29            0.2899     6.2241     0.0324 H       
  30 H30            4.2945     5.1367    -0.0129 H       
  31 H31            3.7191     2.7436    -0.0134 H       
  32 H32           -0.8280    -4.8898    -0.0133 H       
  33 H33            0.1646    -5.5617    -2.1694 H       
  34 H34            1.3696    -6.5599    -1.3195 H       
  35 H35            1.4007    -6.5786     1.2151 H       
  36 H36            0.2170    -5.5933     2.1088 H       
  37 H37           -0.4565    -7.9855     2.0518 H       
  38 H38           -1.6279    -6.9613     1.1879 H       
  39 H39            0.5227    -8.5473    -0.0563 H       
  40 H40           -1.6575    -6.9435    -1.2238 H       
  41 H41           -0.5077    -7.9546    -2.1312 H       
@<TRIPOS>BOND
   1    1    2 1
   2    1    3 2
   3    2    5 1
   4    3    4 1
   5    3    7 1
   6    4    5 2
   7    5    6 1
   8    6    8 ar
   9    6   12 ar
  10    7   13 ar
  11    7   17 ar
  12    8    9 ar
  13    8   24 1
  14    9   10 ar
  15    9   18 1
  16   10   11 ar
  17   10   25 1
  18   11   12 ar
  19   11   26 1
  20   12   27 1
  21   13   14 ar
  22   13   28 1
  23   14   15 ar
  24   14   29 1
  25   15   16 ar
  26   16   17 ar
  27   16   30 1
  28   17   31 1
  29   18   19 1
  30   18   20 1
  31   18   32 1
  32   19   23 1
  33   19   33 1
  34   19   34 1
  35   20   21 1
  36   20   35 1
  37   20   36 1
  38   21   22 1
  39   21   37 1
  40   21   38 1
  41   22   23 1
  42   22   39 1
  43   23   40 1
  44   23   41 1

#	End of record

