#	Name: ASD01910165
#	Creating user name:	WinNT
#	Creation time:	15. 06. 2019 19:55

#	Modifying user name:	WinNT
#	Modification time:	15. 06. 2019 19:55

#	Program:	/corina/corina34_cracker 3.40 0067  02.08.2006

@<TRIPOS>MOLECULE
ASD01910165
  58   62    0    0    0
SMALL
NO_CHARGES


@<TRIPOS>ATOM
   1 C1             0.0191     1.3741     0.7856 C.ar    
   2 C2             0.3627     0.0386     0.8670 C.ar    
   3 C3             1.4923    -0.4311     0.2082 C.ar    
   4 C4             2.2752     0.4426    -0.5322 C.ar    
   5 C5             1.9272     1.7837    -0.6123 C.ar    
   6 C6             0.7968     2.2470     0.0491 C.ar    
   7 N7             2.7140     2.6678    -1.3573 N.am    
   8 C8             3.2944     2.2536    -2.5010 C.2     
   9 C9             4.0395     3.2118    -3.3392 C.ar    
  10 N10            1.8401    -1.7838     0.2919 N.am    
  11 C11            0.8774    -2.7230     0.3787 C.2     
  12 C12            4.1460     4.5495    -2.9514 C.ar    
  13 C13            4.8435     5.4398    -3.7390 C.ar    
  14 C14            5.4397     5.0145    -4.9147 C.ar    
  15 C15            5.3417     3.6950    -5.3101 C.ar    
  16 C16            4.6496     2.7841    -4.5266 C.ar    
  17 O17           -0.2898    -2.4049     0.2914 O.2     
  18 O18            3.2038     1.0899    -2.8419 O.2     
  19 O19            4.5529     1.4875    -4.9136 O.3     
  20 C20            5.1890     1.1278    -6.1416 C.3     
  21 C21            2.5032    -6.1077    -0.3715 C.3     
  22 C22            1.2333    -6.9587    -0.3082 C.3     
  23 C23            0.3607    -6.4869     0.8565 C.3     
  24 C24           -0.0188    -5.0195     0.6477 C.3     
  25 C25            1.2511    -4.1684     0.5844 C.3     
  26 C26            2.1238    -4.6402    -0.5803 C.3     
  27 C27            2.0277    -4.3129     1.8947 C.3     
  28 C28            2.4071    -5.7803     2.1036 C.3     
  29 C29            3.2798    -6.2521     0.9388 C.3     
  30 C30            1.1373    -6.6314     2.1669 C.3     
  31 H31           -0.8617     1.7359     1.2952 H       
  32 H32           -0.2471    -0.6411     1.4435 H       
  33 H33            3.1539     0.0800    -1.0448 H       
  34 H34            0.5253     3.2905    -0.0129 H       
  35 H35            2.8421     3.5792    -1.0509 H       
  36 H36            2.7741    -2.0457     0.2874 H       
  37 H37            3.6822     4.8857    -2.0358 H       
  38 H38            4.9254     6.4739    -3.4383 H       
  39 H39            5.9840     5.7191    -5.5259 H       
  40 H40            5.8087     3.3711    -6.2285 H       
  41 H41            5.0355     0.0657    -6.3329 H       
  42 H42            4.7597     1.7096    -6.9572 H       
  43 H43            6.2571     1.3336    -6.0714 H       
  44 H44            3.1249    -6.4438    -1.2013 H       
  45 H45            0.6801    -6.8558    -1.2417 H       
  46 H46            1.5036    -8.0042    -0.1594 H       
  47 H47           -0.5440    -7.0932     0.9016 H       
  48 H48           -0.5720    -4.9165    -0.2858 H       
  49 H49           -0.6405    -4.6833     1.4775 H       
  50 H50            3.0285    -4.0339    -0.6254 H       
  51 H51            1.5705    -4.5373    -1.5138 H       
  52 H52            2.9324    -3.7065     1.8496 H       
  53 H53            1.4060    -3.9767     2.7245 H       
  54 H54            2.9604    -5.8832     3.0370 H       
  55 H55            3.5501    -7.2976     1.0876 H       
  56 H56            4.1845    -5.6458     0.8937 H       
  57 H57            0.5156    -6.2952     2.9967 H       
  58 H58            1.4076    -7.6768     2.3156 H       
@<TRIPOS>BOND
   1    1    2 ar
   2    1    6 ar
   3    1   31 1
   4    2    3 ar
   5    2   32 1
   6    3    4 ar
   7    3   10 1
   8    4    5 ar
   9    4   33 1
  10    5    6 ar
  11    5    7 1
  12    6   34 1
  13    7    8 am
  14    7   35 1
  15    8    9 1
  16    8   18 2
  17    9   12 ar
  18    9   16 ar
  19   10   11 am
  20   10   36 1
  21   11   17 2
  22   11   25 1
  23   12   13 ar
  24   12   37 1
  25   13   14 ar
  26   13   38 1
  27   14   15 ar
  28   14   39 1
  29   15   16 ar
  30   15   40 1
  31   16   19 1
  32   19   20 1
  33   20   41 1
  34   20   42 1
  35   20   43 1
  36   21   22 1
  37   21   26 1
  38   21   29 1
  39   21   44 1
  40   22   23 1
  41   22   45 1
  42   22   46 1
  43   23   24 1
  44   23   30 1
  45   23   47 1
  46   24   25 1
  47   24   48 1
  48   24   49 1
  49   25   26 1
  50   25   27 1
  51   26   50 1
  52   26   51 1
  53   27   28 1
  54   27   52 1
  55   27   53 1
  56   28   29 1
  57   28   30 1
  58   28   54 1
  59   29   55 1
  60   29   56 1
  61   30   57 1
  62   30   58 1

#	End of record

