#	Name: ASD05390003
#	Creating user name:	WinNT
#	Creation time:	15. 06. 2019 20:59

#	Modifying user name:	WinNT
#	Modification time:	15. 06. 2019 20:59

#	Program:	/corina/corina34_cracker 3.40 0067  02.08.2006

@<TRIPOS>MOLECULE
ASD05390003
  21   22    0    0    0
SMALL
NO_CHARGES


@<TRIPOS>ATOM
   1 C1            -0.0126     1.0758     0.0080 C.2     
   2 C2             1.1530     1.9631     0.0016 C.ar    
   3 C3             0.6434     3.2742     0.0130 C.ar    
   4 C4            -1.1024     1.8596     0.0167 C.2     
   5 C5             1.5270     4.3488     0.0149 C.ar    
   6 C6             2.8850     4.1180     0.0001 C.ar    
   7 C7             3.3828     2.8222    -0.0172 C.ar    
   8 C8             2.5332     1.7522    -0.0119 C.ar    
   9 C9            -2.5252     1.3629     0.0210 C.3     
  10 N10           -0.7299     3.1762     0.0253 N.pl3   
  11 N11            4.8458     2.5979    -0.0339 N.pl3   
  12 O12            5.6077     3.5482    -0.0325 O.2     
  13 O13            5.2878     1.4630    -0.0491 O.2     
  14 H14            0.0021    -0.0041     0.0020 H       
  15 H15            1.1496     5.3606     0.0275 H       
  16 H16            3.5693     4.9536     0.0015 H       
  17 H17            2.9277     0.7469    -0.0207 H       
  18 H18           -2.8634     1.2384     1.0497 H       
  19 H19           -3.1639     2.0858    -0.4865 H       
  20 H20           -2.5773     0.4053    -0.4971 H       
  21 H21           -1.3422     3.9285     0.0348 H       
@<TRIPOS>BOND
   1    1   14 1
   2    1    2 1
   3    1    4 2
   4    2    8 ar
   5    2    3 ar
   6    3   10 1
   7    3    5 ar
   8    4    9 1
   9    4   10 1
  10    5    6 ar
  11    5   15 1
  12    6    7 ar
  13    6   16 1
  14    7   11 1
  15    7    8 ar
  16    8   17 1
  17    9   18 1
  18    9   19 1
  19    9   20 1
  20   10   21 1
  21   11   12 2
  22   11   13 2

#	End of record

