#	Name: ASD00310040
#	Creating user name:	WinNT
#	Creation time:	15. 06. 2019 18:33

#	Modifying user name:	WinNT
#	Modification time:	15. 06. 2019 18:33

#	Program:	/corina/corina34_cracker 3.40 0067  02.08.2006

@<TRIPOS>MOLECULE
ASD00310040
  28   29    0    0    0
SMALL
NO_CHARGES


@<TRIPOS>ATOM
   1 N1            -0.0179     1.4659     0.0101 N.3     
   2 C2             0.0021    -0.0041     0.0020 C.3     
   3 C3             0.7497    -0.4921    -1.2417 C.3     
   4 O4             2.0659     0.0673    -1.2506 O.3     
   5 C5             2.0838     1.4973    -1.2437 C.3     
   6 C6             1.3496     2.0055    -0.0001 C.3     
   7 C7            -0.7359     1.9485     1.0986 C.ar    
   8 C8            -0.8692     3.3200     1.2812 C.ar    
   9 C9            -1.5866     3.7908     2.3680 C.ar    
  10 C10           -2.1492     2.8707     3.2399 C.ar    
  11 C11           -1.9777     1.5146     2.9988 C.ar    
  12 N12           -1.2904     1.0966     1.9478 N.ar    
  13 O13           -2.5249     0.6076     3.8468 O.3     
  14 C14           -2.3132    -0.7730     3.5449 C.3     
  15 Br15          -3.1386     3.4571     4.7410 Br      
  16 H16            0.5087    -0.3661     0.8967 H       
  17 H17           -1.0202    -0.3818    -0.0162 H       
  18 H18            0.8167    -1.5799    -1.2226 H       
  19 H19            0.2136    -0.1754    -2.1363 H       
  20 H20            3.1155     1.8483    -1.2262 H       
  21 H21            1.5864     1.8718    -2.1384 H       
  22 H22            1.3110     3.0946    -0.0198 H       
  23 H23            1.8778     1.6756     0.8946 H       
  24 H24           -0.4183     4.0104     0.5838 H       
  25 H25           -1.7050     4.8515     2.5333 H       
  26 H26           -2.7323    -0.9989     2.5643 H       
  27 H27           -1.2439    -0.9842     3.5404 H       
  28 H28           -2.8020    -1.3891     4.2996 H       
@<TRIPOS>BOND
   1    1    2 1
   2    1    6 1
   3    1    7 1
   4    2    3 1
   5    2   16 1
   6    2   17 1
   7    3    4 1
   8    3   18 1
   9    3   19 1
  10    4    5 1
  11    5    6 1
  12    5   20 1
  13    5   21 1
  14    6   22 1
  15    6   23 1
  16    7    8 ar
  17    7   12 ar
  18    8    9 ar
  19    8   24 1
  20    9   10 ar
  21    9   25 1
  22   10   11 ar
  23   10   15 1
  24   11   12 ar
  25   11   13 1
  26   13   14 1
  27   14   26 1
  28   14   27 1
  29   14   28 1

#	End of record

