#	Name: ASD08070186
#	Creating user name:	WinNT
#	Creation time:	15. 06. 2019 21:14

#	Modifying user name:	WinNT
#	Modification time:	15. 06. 2019 21:14

#	Program:	/corina/corina34_cracker 3.40 0067  02.08.2006

@<TRIPOS>MOLECULE
ASD08070186
  37   38    0    0    0
SMALL
NO_CHARGES


@<TRIPOS>ATOM
   1 C1            -0.0158     1.3146     0.0093 C.ar    
   2 N2             0.0021    -0.0041     0.0020 N.ar    
   3 C3            -1.1061    -0.7185     0.0088 C.ar    
   4 C4            -2.3442    -0.1073     0.0239 C.ar    
   5 C5            -2.4115     1.2898     0.0320 C.ar    
   6 C6            -1.2128     2.0080     0.0302 C.ar    
   7 N7            -3.7611     3.3358     0.0554 N.am    
   8 C8            -3.7177     1.9888     0.0477 C.2     
   9 O9            -4.7499     1.3476     0.0537 O.2     
  10 C10           -5.5485     4.1491     1.5132 C.3     
  11 Cl11           1.4823     2.1918    -0.0003 Cl      
  12 C12           -5.0527     4.0270     0.0709 C.3     
  13 C13           -4.8910     5.4236    -0.5327 C.3     
  14 C14           -6.8974     4.8709     1.5294 C.3     
  15 C15           -6.7357     6.2675     0.9258 C.3     
  16 C16           -6.2399     6.1455    -0.5165 C.3     
  17 C17           -3.8763     6.2203     0.2897 C.3     
  18 C18           -6.0782     7.5421    -1.1201 C.3     
  19 H19           -1.0446    -1.7967     0.0020 H       
  20 H20           -3.2474    -0.6993     0.0290 H       
  21 H21           -1.2208     3.0880     0.0362 H       
  22 H22           -2.9371     3.8476     0.0506 H       
  23 H23           -5.6637     3.1541     1.9432 H       
  24 H24           -4.8256     4.7167     2.0991 H       
  25 H25           -5.7756     3.4594    -0.5150 H       
  26 H26           -4.5378     5.3367    -1.5602 H       
  27 H27           -7.6203     4.3033     0.9435 H       
  28 H28           -7.2506     4.9579     2.5569 H       
  29 H29           -7.6967     6.7818     0.9373 H       
  30 H30           -6.0128     6.8351     1.5117 H       
  31 H31           -6.9628     5.5779    -1.1024 H       
  32 H32           -2.9153     5.7061     0.2782 H       
  33 H33           -3.7611     7.2153    -0.1403 H       
  34 H34           -4.2295     6.3073     1.3172 H       
  35 H35           -5.3553     8.1097    -0.5342 H       
  36 H36           -5.7250     7.4551    -2.1476 H       
  37 H37           -7.0392     8.0563    -1.1086 H       
@<TRIPOS>BOND
   1    1    2 ar
   2    1   11 1
   3    1    6 ar
   4    2    3 ar
   5    3    4 ar
   6    3   19 1
   7    4    5 ar
   8    4   20 1
   9    5    6 ar
  10    5    8 1
  11    6   21 1
  12    7    8 am
  13    7   12 1
  14    7   22 1
  15    8    9 2
  16   10   14 1
  17   10   12 1
  18   10   23 1
  19   10   24 1
  20   12   13 1
  21   12   25 1
  22   13   17 1
  23   13   16 1
  24   13   26 1
  25   14   15 1
  26   14   27 1
  27   14   28 1
  28   15   16 1
  29   15   29 1
  30   15   30 1
  31   16   18 1
  32   16   31 1
  33   17   32 1
  34   17   33 1
  35   17   34 1
  36   18   35 1
  37   18   36 1
  38   18   37 1

#	End of record

