#	Name: ASD01910755
#	Creating user name:	WinNT
#	Creation time:	15. 06. 2019 19:56

#	Modifying user name:	WinNT
#	Modification time:	15. 06. 2019 19:56

#	Program:	/corina/corina34_cracker 3.40 0067  02.08.2006

@<TRIPOS>MOLECULE
ASD01910755
  50   53    0    0    0
SMALL
NO_CHARGES


@<TRIPOS>ATOM
   1 C1             0.0726     1.7563    -0.3722 C.ar    
   2 C2             0.0157     0.3749    -0.3994 C.ar    
   3 C3             1.1798    -0.3667    -0.3539 C.ar    
   4 C4             2.4088     0.2765    -0.2807 C.ar    
   5 C5             2.4624     1.6643    -0.2535 C.ar    
   6 C6             1.2944     2.3998    -0.2993 C.ar    
   7 N7             3.5881    -0.4706    -0.2340 N.3     
   8 C8             4.7642     0.4064    -0.1594 C.3     
   9 C9             6.0176    -0.4442     0.0721 C.3     
  10 N10            6.0789    -1.4794    -0.9709 N.am    
  11 C11            4.8863    -2.3095    -1.1984 C.3     
  12 C12            3.6774    -1.3855    -1.3798 C.3     
  13 C13            7.1981    -1.6621    -1.6993 C.2     
  14 C14            7.2827    -2.7871    -2.6552 C.ar    
  15 O15            8.1380    -0.9022    -1.5703 O.2     
  16 C16            7.9015    -2.6074    -3.8943 C.ar    
  17 C17            7.9822    -3.6567    -4.7888 C.ar    
  18 C18            7.4528    -4.8897    -4.4660 C.ar    
  19 C19            6.8302    -5.0842    -3.2290 C.ar    
  20 C20            6.7503    -4.0299    -2.3194 C.ar    
  21 C21            6.2808    -6.3638    -2.8951 C.1     
  22 C22            5.8303    -7.4128    -2.6213 C.1     
  23 C23            5.2808    -8.6923    -2.2874 C.ar    
  24 C24            4.6585    -8.8883    -1.0517 C.ar    
  25 C25            4.1311   -10.1233    -0.7373 C.ar    
  26 C26            4.2176   -11.1670    -1.6417 C.ar    
  27 C27            4.8329   -10.9805    -2.8671 C.ar    
  28 C28            5.3593    -9.7493    -3.1980 C.ar    
  29 H29           -0.8390     2.3340    -0.4125 H       
  30 H30           -0.9402    -0.1245    -0.4560 H       
  31 H31            1.1346    -1.4456    -0.3749 H       
  32 H32            3.4163     2.1674    -0.1962 H       
  33 H33            1.3354     3.4789    -0.2785 H       
  34 H34            4.8665     0.9580    -1.0939 H       
  35 H35            4.6431     1.1078     0.6661 H       
  36 H36            6.9044     0.1870     0.0140 H       
  37 H37            5.9641    -0.9158     1.0533 H       
  38 H38            5.0250    -2.9115    -2.0964 H       
  39 H39            4.7240    -2.9604    -0.3393 H       
  40 H40            2.7681    -1.9836    -1.4394 H       
  41 H41            3.7948    -0.8089    -2.2974 H       
  42 H42            8.3178    -1.6452    -4.1539 H       
  43 H43            8.4617    -3.5115    -5.7456 H       
  44 H44            7.5190    -5.7058    -5.1703 H       
  45 H45            6.2708    -4.1741    -1.3625 H       
  46 H46            4.5909    -8.0748    -0.3446 H       
  47 H47            3.6498   -10.2763     0.2174 H       
  48 H48            3.8032   -12.1320    -1.3899 H       
  49 H49            4.8974   -11.7998    -3.5678 H       
  50 H50            5.8392    -9.6052    -4.1547 H       
@<TRIPOS>BOND
   1    1    2 ar
   2    1    6 ar
   3    1   29 1
   4    2    3 ar
   5    2   30 1
   6    3    4 ar
   7    3   31 1
   8    4    5 ar
   9    4    7 1
  10    5    6 ar
  11    5   32 1
  12    6   33 1
  13    7    8 1
  14    7   12 1
  15    8    9 1
  16    8   34 1
  17    8   35 1
  18    9   10 1
  19    9   36 1
  20    9   37 1
  21   10   11 1
  22   10   13 am
  23   11   12 1
  24   11   38 1
  25   11   39 1
  26   12   40 1
  27   12   41 1
  28   13   14 1
  29   13   15 2
  30   14   16 ar
  31   14   20 ar
  32   16   17 ar
  33   16   42 1
  34   17   18 ar
  35   17   43 1
  36   18   19 ar
  37   18   44 1
  38   19   20 ar
  39   19   21 1
  40   20   45 1
  41   21   22 3
  42   22   23 1
  43   23   24 ar
  44   23   28 ar
  45   24   25 ar
  46   24   46 1
  47   25   26 ar
  48   25   47 1
  49   26   27 ar
  50   26   48 1
  51   27   28 ar
  52   27   49 1
  53   28   50 1

#	End of record

