#	Name: ASD01913191
#	Creating user name:	WinNT
#	Creation time:	15. 06. 2019 20:01

#	Modifying user name:	WinNT
#	Modification time:	15. 06. 2019 20:01

#	Program:	/corina/corina34_cracker 3.40 0067  02.08.2006

@<TRIPOS>MOLECULE
ASD01913191
  59   63    0    0    0
SMALL
NO_CHARGES


@<TRIPOS>ATOM
   1 C1             0.2986     1.4549     0.2642 C.3     
   2 N2             0.1117     0.0023     0.1826 N.am    
   3 C3             1.0428    -0.7514    -0.6736 C.3     
   4 C4             2.4426    -0.6176    -0.0760 C.3     
   5 C5             2.7453     0.8179     0.2642 C.ar    
   6 C6             4.0794     1.1762     0.4171 C.ar    
   7 C7             4.4257     2.4721     0.7373 C.ar    
   8 C8             3.4389     3.4251     0.9093 C.ar    
   9 C9             2.1139     3.0732     0.7546 C.ar    
  10 C10            1.7643     1.7698     0.4284 C.ar    
  11 O11            0.5939     1.7317    -2.1477 O.3     
  12 C12           -0.2221     2.1081    -1.0176 C.3     
  13 C13           -1.6228     1.5539    -1.3825 C.3     
  14 C14           -1.6803     1.7981    -2.9102 C.3     
  15 C15           -0.2030     1.9343    -3.3267 C.3     
  16 C16           -0.8722    -0.6175     0.8640 C.2     
  17 C17           -1.7032     0.1445     1.8172 C.ar    
  18 C18           -2.1652    -0.4661     2.9823 C.ar    
  19 C19           -2.9486     0.2581     3.8781 C.ar    
  20 C20           -3.2670     1.5979     3.6006 C.ar    
  21 C21           -2.8020     2.1949     2.4377 C.ar    
  22 C22           -2.0223     1.4804     1.5542 C.ar    
  23 O23           -1.0754    -1.8041     0.6938 O.2     
  24 C24           -3.4280    -0.3609     5.0771 C.1     
  25 C25           -3.8209    -0.8685     6.0601 C.1     
  26 C26           -4.3002    -1.4876     7.2591 C.ar    
  27 C27           -5.0857    -0.7540     8.1527 C.ar    
  28 C28           -5.5404    -1.3667     9.3058 C.ar    
  29 C29           -5.1973    -2.6933     9.5320 C.ar    
  30 C30           -4.4168    -3.3608     8.6063 C.ar    
  31 N31           -3.9995    -2.7579     7.5119 N.ar    
  32 O32           -4.0292     2.3076     4.4691 O.3     
  33 C33           -4.3139     3.6646     4.1234 C.3     
  34 H34           -0.2540     1.8442     1.1193 H       
  35 H35            0.7518    -1.8015    -0.6999 H       
  36 H36            1.0316    -0.3394    -1.6827 H       
  37 H37            2.5052    -1.2215     0.8292 H       
  38 H38            3.1762    -0.9774    -0.7974 H       
  39 H39            4.8517     0.4331     0.2842 H       
  40 H40            5.4650     2.7417     0.8539 H       
  41 H41            3.7041     4.4406     1.1639 H       
  42 H42            1.3427     3.8173     0.8886 H       
  43 H43           -0.2518     3.1923    -0.9098 H       
  44 H44           -1.6914     0.4899    -1.1558 H       
  45 H45           -2.4071     2.1108    -0.8698 H       
  46 H46           -2.1424     0.9497    -3.4150 H       
  47 H47           -2.2248     2.7165    -3.1295 H       
  48 H48           -0.0219     2.9308    -3.7297 H       
  49 H49            0.0425     1.1799    -4.0741 H       
  50 H50           -1.9171    -1.4966     3.1894 H       
  51 H51           -3.0483     3.2249     2.2263 H       
  52 H52           -1.6596     1.9528     0.6532 H       
  53 H53           -5.3335     0.2766     7.9457 H       
  54 H54           -6.1488    -0.8254    10.0152 H       
  55 H55           -5.5371    -3.1991    10.4237 H       
  56 H56           -4.1491    -4.3925     8.7808 H       
  57 H57           -3.3803     4.2197     4.0318 H       
  58 H58           -4.8482     3.6932     3.1738 H       
  59 H59           -4.9302     4.1160     4.9008 H       
@<TRIPOS>BOND
   1    1    2 1
   2    1   10 1
   3    1   12 1
   4    1   34 1
   5    2    3 1
   6    2   16 am
   7    3    4 1
   8    3   35 1
   9    3   36 1
  10    4    5 1
  11    4   37 1
  12    4   38 1
  13    5    6 ar
  14    5   10 ar
  15    6    7 ar
  16    6   39 1
  17    7    8 ar
  18    7   40 1
  19    8    9 ar
  20    8   41 1
  21    9   10 ar
  22    9   42 1
  23   11   15 1
  24   11   12 1
  25   12   13 1
  26   12   43 1
  27   13   14 1
  28   13   44 1
  29   13   45 1
  30   14   15 1
  31   14   46 1
  32   14   47 1
  33   15   48 1
  34   15   49 1
  35   16   17 1
  36   16   23 2
  37   17   18 ar
  38   17   22 ar
  39   18   19 ar
  40   18   50 1
  41   19   20 ar
  42   19   24 1
  43   20   21 ar
  44   20   32 1
  45   21   22 ar
  46   21   51 1
  47   22   52 1
  48   24   25 3
  49   25   26 1
  50   26   27 ar
  51   26   31 ar
  52   27   28 ar
  53   27   53 1
  54   28   29 ar
  55   28   54 1
  56   29   30 ar
  57   29   55 1
  58   30   31 ar
  59   30   56 1
  60   32   33 1
  61   33   57 1
  62   33   58 1
  63   33   59 1

#	End of record

