#	Name: ASD02500917
#	Creating user name:	WinNT
#	Creation time:	15. 06. 2019 20:23

#	Modifying user name:	WinNT
#	Modification time:	15. 06. 2019 20:23

#	Program:	/corina/corina34_cracker 3.40 0067  02.08.2006

@<TRIPOS>MOLECULE
ASD02500917
  60   64    0    0    0
SMALL
NO_CHARGES


@<TRIPOS>ATOM
   1 C1            -0.0170     1.4039     0.0098 C.2     
   2 C2             0.0021    -0.0041     0.0020 C.2     
   3 C3            -1.2756    -0.7348     0.0131 C.ar    
   4 C4            -2.4435     0.0222    -0.2096 C.ar    
   5 O5            -2.3814     1.3521    -0.4522 O.3     
   6 C6            -1.3398     2.0750     0.0202 C.2     
   7 C7            -1.3495    -2.1052     0.2335 C.ar    
   8 C8            -2.5811    -2.7265     0.2443 C.ar    
   9 C9            -3.7345    -1.9855     0.0376 C.ar    
  10 C10           -3.6720    -0.6263    -0.1870 C.ar    
  11 C11            1.2454     1.9594     0.0007 C.2     
  12 C12            2.2477     1.0545    -0.0157 C.2     
  13 S13            1.5941    -0.5777    -0.0192 S.3     
  14 C14            3.6769     1.3858    -0.0290 C.2     
  15 O15            4.0317     2.5498    -0.0257 O.2     
  16 N16            4.5968     0.4010    -0.0450 N.am    
  17 O17           -1.4804     3.2101     0.4350 O.2     
  18 C18           -2.6729    -4.2121     0.4804 C.3     
  19 C19            6.0239     0.7318    -0.0583 C.3     
  20 C20            6.8464    -0.5582    -0.0751 C.3     
  21 N21            8.2774    -0.2264    -0.0885 N.3     
  22 C22            9.0980    -1.4251     0.1336 C.3     
  23 C23           10.5790    -1.0520     0.0334 C.3     
  24 N24           10.8883    -0.0141     1.0267 N.3     
  25 C25           10.0676     1.1846     0.8047 C.3     
  26 C26            8.5867     0.8115     0.9049 C.3     
  27 C27           12.3192     0.3177     1.0133 C.3     
  28 C28           12.5588     1.5429     1.8575 C.ar    
  29 C29           12.8387     1.4101     3.2047 C.ar    
  30 C30           13.0583     2.5339     3.9790 C.ar    
  31 C31           12.9985     3.7905     3.4060 C.ar    
  32 C32           12.7195     3.9233     2.0586 C.ar    
  33 C33           12.5042     2.7992     1.2834 C.ar    
  34 H34           -0.4492    -2.6795     0.3949 H       
  35 H35           -4.6949    -2.4794     0.0523 H       
  36 H36           -4.5806    -0.0643    -0.3453 H       
  37 H37            1.4174     3.0256     0.0058 H       
  38 H38            4.3141    -0.5269    -0.0476 H       
  39 H39           -2.7696    -4.4049     1.5489 H       
  40 H40           -3.5437    -4.6097    -0.0408 H       
  41 H41           -1.7717    -4.6962     0.1040 H       
  42 H42            6.2523     1.3199    -0.9472 H       
  43 H43            6.2714     1.3090     0.8326 H       
  44 H44            6.6181    -1.1462     0.8138 H       
  45 H45            6.5989    -1.1353    -0.9660 H       
  46 H46            8.8910    -1.8291     1.1246 H       
  47 H47            8.8598    -2.1740    -0.6217 H       
  48 H48           11.1900    -1.9338     0.2264 H       
  49 H49           10.7918    -0.6735    -0.9664 H       
  50 H50           10.3059     1.9335     1.5600 H       
  51 H51           10.2746     1.5885    -0.1864 H       
  52 H52            7.9756     1.6932     0.7118 H       
  53 H53            8.3739     0.4329     1.9046 H       
  54 H54           12.8899    -0.5188     1.4168 H       
  55 H55           12.6371     0.5141    -0.0106 H       
  56 H56           12.8854     0.4283     3.6523 H       
  57 H57           13.2763     2.4303     5.0317 H       
  58 H58           13.1695     4.6686     4.0111 H       
  59 H59           12.6725     4.9050     1.6111 H       
  60 H60           12.2862     2.9029     0.2307 H       
@<TRIPOS>BOND
   1    1    2 2
   2    1   11 1
   3    1    6 1
   4    2    3 1
   5    2   13 1
   6    3    4 ar
   7    3    7 ar
   8    4    5 1
   9    4   10 ar
  10    5    6 1
  11    6   17 2
  12    7    8 ar
  13    7   34 1
  14    8    9 ar
  15    8   18 1
  16    9   10 ar
  17    9   35 1
  18   10   36 1
  19   11   12 2
  20   11   37 1
  21   12   13 1
  22   12   14 1
  23   14   15 2
  24   14   16 am
  25   16   19 1
  26   16   38 1
  27   18   39 1
  28   18   40 1
  29   18   41 1
  30   19   20 1
  31   19   42 1
  32   19   43 1
  33   20   21 1
  34   20   44 1
  35   20   45 1
  36   21   22 1
  37   21   26 1
  38   22   23 1
  39   22   46 1
  40   22   47 1
  41   23   24 1
  42   23   48 1
  43   23   49 1
  44   24   25 1
  45   24   27 1
  46   25   26 1
  47   25   50 1
  48   25   51 1
  49   26   52 1
  50   26   53 1
  51   27   28 1
  52   27   54 1
  53   27   55 1
  54   28   29 ar
  55   28   33 ar
  56   29   30 ar
  57   29   56 1
  58   30   31 ar
  59   30   57 1
  60   31   32 ar
  61   31   58 1
  62   32   33 ar
  63   32   59 1
  64   33   60 1

#	End of record

