#	Name: ASD01680110
#	Creating user name:	WinNT
#	Creation time:	15. 06. 2019 19:22

#	Modifying user name:	WinNT
#	Modification time:	15. 06. 2019 19:22

#	Program:	/corina/corina34_cracker 3.40 0067  02.08.2006

@<TRIPOS>MOLECULE
ASD01680110
  86   89    0    0    0
SMALL
NO_CHARGES


@<TRIPOS>ATOM
   1 C1            -0.2977     1.2220     0.6416 C.2     
   2 C2            -0.2439    -0.2832     0.6919 C.3     
   3 C3            -1.0593    -0.8617    -0.4663 C.3     
   4 O4             0.7219     1.8593     0.5231 O.2     
   5 O5            -1.4789     1.8544     0.7228 O.3     
   6 N6             1.1479    -0.7262     0.5784 N.am    
   7 S7             2.0298    -1.0434     1.9436 S.o2    
   8 O8             3.3088    -1.4784     1.5031 O.2     
   9 O9             1.8425     0.0677     2.8095 O.2     
  10 C10            1.2808    -2.4258     2.7390 C.ar    
  11 C11            0.3449    -2.2258     3.7365 C.ar    
  12 C12           -0.2426    -3.3103     4.3605 C.ar    
  13 C13            0.1053    -4.5949     3.9867 C.ar    
  14 C14            1.0404    -4.7949     2.9885 C.ar    
  15 C15            1.6248    -3.7103     2.3615 C.ar    
  16 C16            2.6405    -3.9283     1.2698 C.3     
  17 C17           -0.5346    -5.7772     4.6676 C.3     
  18 C18           -0.0343    -0.8254     4.1441 C.3     
  19 N19           -0.9101    -2.3189    -0.4887 N.am    
  20 C20           -1.5432    -3.0468    -1.4298 C.2     
  21 O21           -2.2365    -2.4954    -2.2582 O.2     
  22 C22           -1.3897    -4.5458    -1.4528 C.3     
  23 O23           -2.1512    -5.0860    -2.5346 O.3     
  24 N24           -4.3910    -7.1141    -2.7286 N.am    
  25 C25           -3.2119    -7.1910    -1.8470 C.3     
  26 C26           -2.0739    -6.5086    -2.6463 C.3     
  27 C27           -2.3893    -6.9707    -4.0935 C.3     
  28 C28           -3.9321    -6.9946    -4.1202 C.3     
  29 C29           -5.6767    -7.1529    -2.3260 C.2     
  30 N30           -5.9707    -7.1714    -1.0109 N.am    
  31 O31           -6.5712    -7.1711    -3.1493 O.2     
  32 C32           -7.3038    -7.1011    -0.5909 C.ar    
  33 C33           -7.6697    -7.6041     0.6510 C.ar    
  34 C34           -8.9859    -7.5327     1.0627 C.ar    
  35 C35           -9.9393    -6.9611     0.2399 C.ar    
  36 C36           -9.5784    -6.4599    -0.9971 C.ar    
  37 C37           -8.2624    -6.5231    -1.4123 C.ar    
  38 C38           -6.6315    -8.2275     1.5479 C.3     
  39 F39           -7.2369    -8.6567     2.7339 F       
  40 F40           -6.0505    -9.3219     0.8983 F       
  41 F41           -5.6432    -7.2826     1.8443 F       
  42 C42           -4.4200    -8.1949    -4.9339 C.3     
  43 N43           -3.9952    -8.0450    -6.3280 N.pl3   
  44 C44           -4.4101    -8.9651    -7.2837 C.ar    
  45 C45           -5.2287   -10.0262    -6.9096 C.ar    
  46 C46           -5.6340   -10.9342    -7.8708 C.ar    
  47 C47           -5.2055   -10.7502    -9.1790 C.ar    
  48 C48           -4.3940    -9.6750    -9.4797 C.ar    
  49 N49           -4.0272    -8.8210    -8.5429 N.ar    
  50 H50           -0.6597    -0.6302     1.6378 H       
  51 H51           -2.1106    -0.6061    -0.3338 H       
  52 H52           -0.6999    -0.4452    -1.4073 H       
  53 H53           -1.4630     2.8206     0.6861 H       
  54 H54            1.5528    -0.8337    -0.2965 H       
  55 H55           -0.9733    -3.1540     5.1404 H       
  56 H56            1.3125    -5.7985     2.6967 H       
  57 H57            3.6440    -3.8839     1.6930 H       
  58 H58            2.4809    -4.9060     0.8150 H       
  59 H59            2.5313    -3.1528     0.5117 H       
  60 H60           -1.4389    -6.0609     4.1293 H       
  61 H61            0.1630    -6.6147     4.6730 H       
  62 H62           -0.7906    -5.5111     5.6932 H       
  63 H63           -0.6778    -0.3867     3.3814 H       
  64 H64           -0.5663    -0.8552     5.0950 H       
  65 H65            0.8667    -0.2213     4.2506 H       
  66 H66           -0.3556    -2.7599     0.1739 H       
  67 H67           -0.3384    -4.8013    -1.5854 H       
  68 H68           -1.7490    -4.9623    -0.5119 H       
  69 H69           -3.3977    -6.6532    -0.9172 H       
  70 H70           -2.9597    -8.2311    -1.6407 H       
  71 H71           -1.0980    -6.8713    -2.3237 H       
  72 H72           -2.0020    -6.2560    -4.8196 H       
  73 H73           -1.9850    -7.9661    -4.2772 H       
  74 H74           -4.3097    -6.0700    -4.5569 H       
  75 H75           -5.2584    -7.2336    -0.3554 H       
  76 H76           -9.2710    -7.9240     2.0281 H       
  77 H77          -10.9680    -6.9065     0.5642 H       
  78 H78          -10.3253    -6.0145    -1.6375 H       
  79 H79           -7.9803    -6.1272    -2.3767 H       
  80 H80           -3.9957    -9.1102    -4.5212 H       
  81 H81           -5.5078    -8.2463    -4.8891 H       
  82 H82           -3.4245    -7.3036    -6.5840 H       
  83 H83           -5.5431   -10.1393    -5.8826 H       
  84 H84           -6.2691   -11.7678    -7.6099 H       
  85 H85           -5.5040   -11.4417    -9.9531 H       
  86 H86           -4.0585    -9.5282   -10.4958 H       
@<TRIPOS>BOND
   1    1    2 1
   2    1    4 2
   3    1    5 1
   4    2    3 1
   5    2    6 1
   6    2   50 1
   7    3   19 1
   8    3   51 1
   9    3   52 1
  10    5   53 1
  11    6    7 am
  12    6   54 1
  13    7    8 2
  14    7    9 2
  15    7   10 1
  16   10   11 ar
  17   10   15 ar
  18   11   12 ar
  19   11   18 1
  20   12   13 ar
  21   12   55 1
  22   13   14 ar
  23   13   17 1
  24   14   15 ar
  25   14   56 1
  26   15   16 1
  27   16   57 1
  28   16   58 1
  29   16   59 1
  30   17   60 1
  31   17   61 1
  32   17   62 1
  33   18   63 1
  34   18   64 1
  35   18   65 1
  36   19   20 am
  37   19   66 1
  38   20   21 2
  39   20   22 1
  40   22   23 1
  41   22   67 1
  42   22   68 1
  43   23   26 1
  44   24   25 1
  45   24   28 1
  46   24   29 am
  47   25   26 1
  48   25   69 1
  49   25   70 1
  50   26   27 1
  51   26   71 1
  52   27   28 1
  53   27   72 1
  54   27   73 1
  55   28   42 1
  56   28   74 1
  57   29   30 am
  58   29   31 2
  59   30   32 1
  60   30   75 1
  61   32   33 ar
  62   32   37 ar
  63   33   34 ar
  64   33   38 1
  65   34   35 ar
  66   34   76 1
  67   35   36 ar
  68   35   77 1
  69   36   37 ar
  70   36   78 1
  71   37   79 1
  72   38   39 1
  73   38   40 1
  74   38   41 1
  75   42   43 1
  76   42   80 1
  77   42   81 1
  78   43   44 1
  79   43   82 1
  80   44   45 ar
  81   44   49 ar
  82   45   46 ar
  83   45   83 1
  84   46   47 ar
  85   46   84 1
  86   47   48 ar
  87   47   85 1
  88   48   49 ar
  89   48   86 1

#	End of record

