#	Name: ASD03091906
#	Creating user name:	WinNT
#	Creation time:	15. 06. 2019 20:31

#	Modifying user name:	WinNT
#	Modification time:	15. 06. 2019 20:31

#	Program:	/corina/corina34_cracker 3.40 0067  02.08.2006

@<TRIPOS>MOLECULE
ASD03091906
  31   32    0    0    0
SMALL
NO_CHARGES


@<TRIPOS>ATOM
   1 C1            -1.6189     0.9603     0.3334 C.3     
   2 C2            -0.7571    -0.2632     0.1564 C.ar    
   3 C3             0.0445    -0.6998     1.1954 C.ar    
   4 C4             0.8365    -1.8219     1.0369 C.ar    
   5 C5             0.8291    -2.5109    -0.1604 C.ar    
   6 C6             0.0251    -2.0754    -1.2052 C.ar    
   7 N7             0.0150    -2.7714    -2.4193 N.am    
   8 C8             0.1345    -4.1138    -2.4274 C.2     
   9 O9             0.3359    -4.7126    -1.3886 O.2     
  10 N10            0.0307    -4.7926    -3.5872 N.am    
  11 C11            0.1401    -6.2508    -3.7393 C.3     
  12 C12           -0.0181    -6.5679    -5.2413 C.3     
  13 C13            0.3571    -5.2248    -5.9215 C.3     
  14 C14           -0.2178    -4.1964    -4.9124 C.3     
  15 C15           -0.7730    -0.9506    -1.0412 C.ar    
  16 H16           -1.0591     1.8457     0.0320 H       
  17 H17           -2.5124     0.8678    -0.2839 H       
  18 H18           -1.9084     1.0524     1.3802 H       
  19 H19            0.0521    -0.1629     2.1324 H       
  20 H20           -1.4023    -0.6116    -1.8508 H       
  21 H21            1.4620    -2.1599     1.8499 H       
  22 H22            1.4483    -3.3871    -0.2837 H       
  23 H23           -0.0781    -2.2877    -3.2549 H       
  24 H24            1.1162    -6.5877    -3.3901 H       
  25 H25           -0.6493    -6.7431    -3.1713 H       
  26 H26           -1.2873    -4.0610    -5.0730 H       
  27 H27            0.3040    -3.2437    -5.0036 H       
  28 H28            0.6692    -7.3583    -5.5431 H       
  29 H29           -1.0477    -6.8422    -5.4712 H       
  30 H30            1.4383    -5.1230    -6.0151 H       
  31 H31           -0.1282    -5.1298    -6.8928 H       
@<TRIPOS>BOND
   1    1    2 1
   2    1   16 1
   3    1   17 1
   4    1   18 1
   5    2    3 ar
   6    2   15 ar
   7    3    4 ar
   8    3   19 1
   9    4    5 ar
  10    4   21 1
  11    5    6 ar
  12    5   22 1
  13    6    7 1
  14    6   15 ar
  15    7    8 am
  16    7   23 1
  17    8    9 2
  18    8   10 am
  19   10   11 1
  20   10   14 1
  21   11   12 1
  22   11   24 1
  23   11   25 1
  24   12   13 1
  25   12   28 1
  26   12   29 1
  27   13   14 1
  28   13   30 1
  29   13   31 1
  30   14   26 1
  31   14   27 1
  32   15   20 1

#	End of record

