#	Name: ASD05130006
#	Creating user name:	WinNT
#	Creation time:	15. 06. 2019 20:56

#	Modifying user name:	WinNT
#	Modification time:	15. 06. 2019 20:56

#	Program:	/corina/corina34_cracker 3.40 0067  02.08.2006

@<TRIPOS>MOLECULE
ASD05130006
  64   67    0    0    0
SMALL
NO_CHARGES


@<TRIPOS>ATOM
   1 N1            -0.6748     0.9082     0.3892 N.am    
   2 C2            -0.8252    -0.4275     0.2915 C.2     
   3 O3            -1.9242    -0.9016     0.0781 O.2     
   4 N4             0.2429    -1.2378     0.4302 N.am    
   5 C5            -1.8358     1.7890     0.2384 C.3     
   6 C6             0.6484     1.4791     0.6523 C.3     
   7 N7             2.0814    -5.6777     0.5127 N.am    
   8 C8             1.8928    -7.0119     0.5185 C.2     
   9 C9             0.5369    -7.5658     0.4873 C.2     
  10 C10           -0.5372    -6.7194     0.4525 C.2     
  11 C11           -0.3127    -5.3218     0.4476 C.ar    
  12 C12           -1.3824    -4.4187     0.4130 C.ar    
  13 N13           -1.1562    -3.1232     0.4089 N.ar    
  14 C14            0.0723    -2.6189     0.4368 C.ar    
  15 C15            1.1880    -3.4413     0.4720 C.ar    
  16 C16            1.0064    -4.8200     0.4779 C.ar    
  17 O17            2.8534    -7.7604     0.5495 O.2     
  18 C18            3.4421    -5.1361     0.5498 C.3     
  19 C19            4.1063    -5.5162     1.8747 C.3     
  20 C20            4.2530    -5.7144    -0.6116 C.3     
  21 C21            0.3304    -9.0330     0.4927 C.ar    
  22 C22            0.5118    -9.7607     1.6699 C.ar    
  23 C23            0.3183   -11.1283     1.6731 C.ar    
  24 C24           -0.0551   -11.7806     0.5109 C.ar    
  25 C25           -0.2379   -11.0620    -0.6664 C.ar    
  26 C26           -0.0512    -9.6891    -0.6762 C.ar    
  27 N27           -0.6155   -11.7261    -1.8411 N.am    
  28 C28           -1.2818   -11.0620    -2.8062 C.2     
  29 O29           -1.4923    -9.8701    -2.6897 O.2     
  30 N30           -1.7147   -11.7190    -3.9005 N.am    
  31 C31           -2.5142   -11.0604    -4.8413 C.ar    
  32 C32           -2.5202   -11.4805    -6.1647 C.ar    
  33 C33           -3.3117   -10.8273    -7.0920 C.ar    
  34 C34           -4.0971    -9.7554    -6.7003 C.ar    
  35 C35           -4.0917    -9.3365    -5.3831 C.ar    
  36 C36           -3.3074    -9.9892    -4.4518 C.ar    
  37 F37           -3.3185   -11.2344    -8.3802 F       
  38 F38           -0.2421   -13.1186     0.5195 F       
  39 Cl39           0.9813    -8.9471     3.1298 Cl      
  40 H40            1.1304    -0.8583     0.5254 H       
  41 H41           -2.2965     1.9529     1.2125 H       
  42 H42           -1.5155     2.7443    -0.1774 H       
  43 H43           -2.5591     1.3251    -0.4322 H       
  44 H44            1.3323     1.1950    -0.1476 H       
  45 H45            0.5731     2.5656     0.6971 H       
  46 H46            1.0246     1.1015     1.6031 H       
  47 H47           -1.5430    -7.1122     0.4288 H       
  48 H48           -2.3972    -4.7876     0.3888 H       
  49 H49            2.1815    -3.0183     0.4941 H       
  50 H50            3.4036    -4.0504     0.4610 H       
  51 H51            4.1448    -6.6019     1.9636 H       
  52 H52            5.1187    -5.1132     1.9024 H       
  53 H53            3.5285    -5.1042     2.7021 H       
  54 H54            3.7799    -5.4437    -1.5554 H       
  55 H55            5.2654    -5.3114    -0.5839 H       
  56 H56            4.2916    -6.8001    -0.5227 H       
  57 H57            0.4591   -11.6901     2.5847 H       
  58 H58           -0.1971    -9.1294    -1.5882 H       
  59 H59           -0.3974   -12.6638    -1.9597 H       
  60 H60           -1.4720   -12.6483    -4.0359 H       
  61 H61           -1.9075   -12.3160    -6.4696 H       
  62 H62           -4.7144    -9.2460    -7.4255 H       
  63 H63           -4.7048    -8.5004    -5.0807 H       
  64 H64           -3.3079    -9.6637    -3.4220 H       
@<TRIPOS>BOND
   1    1    2 am
   2    1    5 1
   3    1    6 1
   4    2    3 2
   5    2    4 am
   6    4   14 1
   7    4   40 1
   8    5   41 1
   9    5   42 1
  10    5   43 1
  11    6   44 1
  12    6   45 1
  13    6   46 1
  14    7    8 am
  15    7   16 1
  16    7   18 1
  17    8    9 1
  18    8   17 2
  19    9   10 2
  20    9   21 1
  21   10   11 1
  22   10   47 1
  23   11   12 ar
  24   11   16 ar
  25   12   13 ar
  26   12   48 1
  27   13   14 ar
  28   14   15 ar
  29   15   16 ar
  30   15   49 1
  31   18   19 1
  32   18   20 1
  33   18   50 1
  34   19   51 1
  35   19   52 1
  36   19   53 1
  37   20   54 1
  38   20   55 1
  39   20   56 1
  40   21   22 ar
  41   21   26 ar
  42   22   23 ar
  43   22   39 1
  44   23   24 ar
  45   23   57 1
  46   24   25 ar
  47   24   38 1
  48   25   26 ar
  49   25   27 1
  50   26   58 1
  51   27   28 am
  52   27   59 1
  53   28   29 2
  54   28   30 am
  55   30   31 1
  56   30   60 1
  57   31   32 ar
  58   31   36 ar
  59   32   33 ar
  60   32   61 1
  61   33   34 ar
  62   33   37 1
  63   34   35 ar
  64   34   62 1
  65   35   36 ar
  66   35   63 1
  67   36   64 1

#	End of record

