#	Name: ASD01411188
#	Creating user name:	WinNT
#	Creation time:	15. 06. 2019 19:19

#	Modifying user name:	WinNT
#	Modification time:	15. 06. 2019 19:19

#	Program:	/corina/corina34_cracker 3.40 0067  02.08.2006

@<TRIPOS>MOLECULE
ASD01411188
  70   72    0    0    0
SMALL
NO_CHARGES


@<TRIPOS>ATOM
   1 C1             0.6405     0.6824     0.1035 C.ar    
   2 C2             0.7247    -0.6873     0.0878 C.ar    
   3 C3             1.9597    -1.3321     0.1116 C.ar    
   4 C4             3.1208    -0.5726     0.1586 C.ar    
   5 C5             3.0421     0.8062     0.1769 C.ar    
   6 C6             1.8072     1.4404     0.1483 C.ar    
   7 P7            -0.7639    -1.7304     0.0406 P.3     
   8 N8            -0.2815    -3.2667     0.3888 N.2     
   9 C9             0.9816    -3.5643     0.3755 C.2     
  10 N10            2.0118    -2.7243     0.0816 N.pl3   
  11 C11            1.3375    -4.9551     0.7140 C.2     
  12 C12            0.4531    -5.9390     1.0355 C.2     
  13 C13            1.2701    -7.1824     1.3021 C.3     
  14 N14            2.6717    -6.7961     1.0998 N.am    
  15 C15            2.6978    -5.4973     0.7512 C.2     
  16 C16            3.8365    -7.6725     1.2456 C.3     
  17 C17            4.0676    -8.4352    -0.0604 C.3     
  18 C18            5.2841    -9.3505     0.0919 C.3     
  19 C19            5.0344   -10.3461     1.2265 C.3     
  20 C20            5.5152   -10.1133    -1.2142 C.3     
  21 C21            6.5192    -8.5076     0.4155 C.3     
  22 O22           -1.7395    -1.2653     1.0517 O.2     
  23 O23           -1.4243    -1.6805    -1.4269 O.3     
  24 O24           -0.8849    -5.8266     1.1031 O.3     
  25 O25            3.7066    -4.8629     0.5058 O.2     
  26 N26            1.7357     2.8378     0.1641 N.am    
  27 S27            1.2713     3.6276     1.5435 S.o2    
  28 O28            1.3214     5.0038     1.1931 O.2     
  29 O29            0.0449     3.0081     1.9061 O.2     
  30 C30            2.5662     3.2304     2.7503 C.3     
  31 C31           -1.8892    -0.4715    -2.0304 C.3     
  32 C32           -2.4558    -0.7792    -3.4179 C.3     
  33 C33            1.0562    -7.6550     2.7415 C.3     
  34 C34            1.3567    -6.5056     3.7057 C.3     
  35 C35           -0.3953    -8.1044     2.9204 C.3     
  36 H36           -0.3235     1.1686     0.0767 H       
  37 H37            4.0846    -1.0594     0.1812 H       
  38 H38            3.9468     1.3948     0.2135 H       
  39 H39            2.8557    -3.1304    -0.1711 H       
  40 H40            0.9932    -7.9708     0.6024 H       
  41 H41            4.7165    -7.0720     1.4762 H       
  42 H42            3.6587    -8.3817     2.0540 H       
  43 H43            3.1877    -9.0358    -0.2911 H       
  44 H44            4.2455    -7.7260    -0.8688 H       
  45 H45            4.1545   -10.9466     0.9959 H       
  46 H46            5.9011   -10.9982     1.3350 H       
  47 H47            4.8698    -9.8027     2.1570 H       
  48 H48            5.6930    -9.4040    -2.0226 H       
  49 H49            6.3818   -10.7654    -1.1057 H       
  50 H50            4.6352   -10.7138    -1.4448 H       
  51 H51            6.3546    -7.9642     1.3460 H       
  52 H52            7.3859    -9.1597     0.5240 H       
  53 H53            6.6971    -7.7984    -0.3928 H       
  54 H54           -1.2632    -4.9594     0.9033 H       
  55 H55            1.9582     3.3438    -0.6330 H       
  56 H56            3.5125     3.6608     2.4226 H       
  57 H57            2.2962     3.6437     3.7221 H       
  58 H58            2.6678     2.1482     2.8311 H       
  59 H59           -2.6691    -0.0317    -1.4088 H       
  60 H60           -1.0602     0.2301    -2.1239 H       
  61 H61           -1.6759    -1.2191    -4.0395 H       
  62 H62           -3.2847    -1.4808    -3.3245 H       
  63 H63           -2.8104     0.1430    -3.8783 H       
  64 H64            1.7239    -8.4903     2.9527 H       
  65 H65            0.6891    -5.6703     3.4945 H       
  66 H66            1.2044    -6.8423     4.7311 H       
  67 H67            2.3908    -6.1854     3.5782 H       
  68 H68           -1.0559    -7.2415     2.8355 H       
  69 H69           -0.6478    -8.8325     2.1496 H       
  70 H70           -0.5163    -8.5593     3.9035 H       
@<TRIPOS>BOND
   1    1    2 ar
   2    1    6 ar
   3    1   36 1
   4    2    3 ar
   5    2    7 1
   6    3    4 ar
   7    3   10 1
   8    4    5 ar
   9    4   37 1
  10    5    6 ar
  11    5   38 1
  12    6   26 1
  13    7    8 1
  14    7   22 2
  15    7   23 1
  16    8    9 2
  17    9   10 1
  18    9   11 1
  19   10   39 1
  20   11   12 2
  21   11   15 1
  22   12   13 1
  23   12   24 1
  24   13   14 1
  25   13   33 1
  26   13   40 1
  27   14   15 am
  28   14   16 1
  29   15   25 2
  30   16   17 1
  31   16   41 1
  32   16   42 1
  33   17   18 1
  34   17   43 1
  35   17   44 1
  36   18   19 1
  37   18   20 1
  38   18   21 1
  39   19   45 1
  40   19   46 1
  41   19   47 1
  42   20   48 1
  43   20   49 1
  44   20   50 1
  45   21   51 1
  46   21   52 1
  47   21   53 1
  48   23   31 1
  49   24   54 1
  50   26   27 am
  51   26   55 1
  52   27   28 2
  53   27   29 2
  54   27   30 1
  55   30   56 1
  56   30   57 1
  57   30   58 1
  58   31   32 1
  59   31   59 1
  60   31   60 1
  61   32   61 1
  62   32   62 1
  63   32   63 1
  64   33   34 1
  65   33   35 1
  66   33   64 1
  67   34   65 1
  68   34   66 1
  69   34   67 1
  70   35   68 1
  71   35   69 1
  72   35   70 1

#	End of record

