#	Name: ASD01150523
#	Creating user name:	WinNT
#	Creation time:	15. 06. 2019 19:04

#	Modifying user name:	WinNT
#	Modification time:	15. 06. 2019 19:04

#	Program:	/corina/corina34_cracker 3.40 0067  02.08.2006

@<TRIPOS>MOLECULE
ASD01150523
  50   53    0    0    0
SMALL
NO_CHARGES


@<TRIPOS>ATOM
   1 C1             1.9143     1.4016     0.9687 C.ar    
   2 C2             1.9596     0.0213     0.9430 C.ar    
   3 C3             0.4926     0.0046    -0.9573 C.ar    
   4 C4             0.4445     1.3911    -0.9341 C.ar    
   5 C5             1.1563     2.0910     0.0298 C.ar    
   6 N6             1.1105     3.4892     0.0567 N.am    
   7 C7            -0.0780     4.1147    -0.0078 C.2     
   8 N8            -0.1589     5.4581     0.0161 N.am    
   9 C9             0.9636     6.2013     0.1061 C.2     
  10 C10            2.2667     5.5231     0.1770 C.2     
  11 N11            2.3023     4.2168     0.1563 N.2     
  12 O12            0.8987     7.4163     0.1278 O.2     
  13 C13           -1.4670     6.1139    -0.0561 C.3     
  14 O14           -1.0968     3.4557    -0.0895 O.2     
  15 C15           -2.0092     6.3079     1.3365 C.ar    
  16 O16            3.4151     6.2432     0.2677 O.3     
  17 C17            4.6386     5.5078     0.3321 C.3     
  18 C18            1.2518    -0.6785    -0.0157 C.ar    
  19 C19           -2.9514     5.4323     1.8347 C.ar    
  20 C20           -3.4563     5.6002     3.1107 C.ar    
  21 C21           -3.0089     6.6521     3.8941 C.ar    
  22 C22           -2.0633     7.5258     3.3984 C.ar    
  23 C23           -1.5524     7.3674     2.1172 C.ar    
  24 N24           -0.2233    -0.7049    -1.9279 N.am    
  25 C25            0.2667    -1.8622    -2.4149 C.2     
  26 O26            1.3684    -2.2429    -2.0799 O.2     
  27 C27           -0.5545    -2.6831    -3.3755 C.3     
  28 O28           -0.6536     8.3460     1.8206 O.3     
  29 C29           -0.1864     8.9448     3.0414 C.3     
  30 C30           -1.3773     8.7348     4.0043 C.3     
  31 F31           -3.4986     6.8221     5.1417 F       
  32 H32            2.4650     1.9454     1.7220 H       
  33 H33            2.5496    -0.5122     1.6735 H       
  34 H34           -0.1453     1.9245    -1.6649 H       
  35 H35           -1.3610     7.0833    -0.5431 H       
  36 H36           -2.1540     5.4921    -0.6301 H       
  37 H37            5.4764     6.2016     0.4019 H       
  38 H38            4.6282     4.8614     1.2097 H       
  39 H39            4.7446     4.8993    -0.5660 H       
  40 H40            1.2893    -1.7577    -0.0331 H       
  41 H41           -3.2970     4.6110     1.2243 H       
  42 H42           -4.1967     4.9144     3.4954 H       
  43 H43           -1.0722    -0.3638    -2.2503 H       
  44 H44           -0.3365    -2.3725    -4.3973 H       
  45 H45           -0.3069    -3.7379    -3.2557 H       
  46 H46           -1.6140    -2.5328    -3.1682 H       
  47 H47            0.7002     8.4289     3.4101 H       
  48 H48            0.0146    10.0065     2.8985 H       
  49 H49           -2.0416     9.5990     3.9965 H       
  50 H50           -1.0284     8.5228     5.0150 H       
@<TRIPOS>BOND
   1    1    2 ar
   2    1    5 ar
   3    1   32 1
   4    2   18 ar
   5    2   33 1
   6    3    4 ar
   7    3   24 1
   8    3   18 ar
   9    4    5 ar
  10    4   34 1
  11    5    6 1
  12    6    7 am
  13    6   11 1
  14    7    8 am
  15    7   14 2
  16    8    9 am
  17    8   13 1
  18    9   10 1
  19    9   12 2
  20   10   11 2
  21   10   16 1
  22   13   15 1
  23   13   35 1
  24   13   36 1
  25   15   19 ar
  26   15   23 ar
  27   16   17 1
  28   17   37 1
  29   17   38 1
  30   17   39 1
  31   18   40 1
  32   19   20 ar
  33   19   41 1
  34   20   21 ar
  35   20   42 1
  36   21   22 ar
  37   21   31 1
  38   22   23 ar
  39   22   30 1
  40   23   28 1
  41   24   25 am
  42   24   43 1
  43   25   26 2
  44   25   27 1
  45   27   44 1
  46   27   45 1
  47   27   46 1
  48   28   29 1
  49   29   30 1
  50   29   47 1
  51   29   48 1
  52   30   49 1
  53   30   50 1

#	End of record

