#	Name: ASD02408444
#	Creating user name:	WinNT
#	Creation time:	15. 06. 2019 20:21

#	Modifying user name:	WinNT
#	Modification time:	15. 06. 2019 20:21

#	Program:	/corina/corina34_cracker 3.40 0067  02.08.2006

@<TRIPOS>MOLECULE
ASD02408444
  46   49    0    0    0
SMALL
NO_CHARGES


@<TRIPOS>ATOM
   1 C1            -0.0170     1.3996     0.0097 C.2     
   2 C2             0.0021    -0.0041     0.0020 C.2     
   3 N3            -1.2942    -0.4096     0.0122 N.pl3   
   4 N4            -2.1111     0.7280     0.0261 N.2     
   5 C5            -1.3663     1.7990     0.0303 C.2     
   6 C6            -1.7585    -1.7991     0.0084 C.3     
   7 C7            -2.5989    -2.0774     1.2670 C.3     
   8 C8            -4.0048    -2.4818     0.7775 C.3     
   9 C9            -3.7701    -3.0057    -0.6610 C.3     
  10 C10           -2.6831    -2.0440    -1.2019 C.3     
  11 C11            1.2638     2.1063     0.0013 C.2     
  12 N12            2.3912     1.3572    -0.0135 N.am    
  13 C13            2.3124     0.0026    -0.0204 C.2     
  14 N14            1.1828    -0.6424    -0.0127 N.2     
  15 O15            1.3139     3.3236     0.0070 O.2     
  16 C16            3.5931    -0.7914    -0.0379 C.3     
  17 C17            3.2664    -2.2861    -0.0432 C.3     
  18 C18            4.5600    -3.0904    -0.1866 C.3     
  19 C19            2.5752    -2.6617     1.2691 C.3     
  20 C20            2.2485    -4.1564     1.2638 C.3     
  21 C21            3.5421    -4.9607     1.1204 C.3     
  22 C22            4.2333    -4.5851    -0.1919 C.3     
  23 H23           -1.7240     2.8180     0.0405 H       
  24 H24           -0.9059    -2.4772    -0.0288 H       
  25 H25           -2.1546    -2.8912     1.8401 H       
  26 H26           -2.6613    -1.1787     1.8806 H       
  27 H27           -4.4163    -3.2699     1.4082 H       
  28 H28           -4.6679    -1.6168     0.7650 H       
  29 H29           -3.4036    -4.0321    -0.6434 H       
  30 H30           -4.6820    -2.9301    -1.2533 H       
  31 H31           -3.1326    -1.1082    -1.5341 H       
  32 H32           -2.1299    -2.5126    -2.0159 H       
  33 H33            3.2590     1.7906    -0.0194 H       
  34 H34            4.1636    -0.5411    -0.9323 H       
  35 H35            4.1816    -0.5513     0.8475 H       
  36 H36            2.6045    -2.5104    -0.8797 H       
  37 H37            5.0524    -2.8228    -1.1215 H       
  38 H38            5.2219    -2.8661     0.6499 H       
  39 H39            3.2371    -2.4374     2.1055 H       
  40 H40            1.6536    -2.0887     1.3712 H       
  41 H41            1.7560    -4.4240     2.1987 H       
  42 H42            1.5866    -4.3807     0.4273 H       
  43 H43            4.2040    -4.7364     1.9569 H       
  44 H44            3.3093    -6.0255     1.1166 H       
  45 H45            3.5714    -4.8094    -1.0283 H       
  46 H46            5.1549    -5.1581    -0.2940 H       
@<TRIPOS>BOND
   1    1    2 2
   2    1   11 1
   3    1    5 1
   4    2    3 1
   5    2   14 1
   6    3    4 1
   7    3    6 1
   8    4    5 2
   9    5   23 1
  10    6    7 1
  11    6   10 1
  12    6   24 1
  13    7    8 1
  14    7   25 1
  15    7   26 1
  16    8    9 1
  17    8   27 1
  18    8   28 1
  19    9   10 1
  20    9   29 1
  21    9   30 1
  22   10   31 1
  23   10   32 1
  24   11   12 am
  25   11   15 2
  26   12   13 1
  27   12   33 1
  28   13   14 2
  29   13   16 1
  30   16   17 1
  31   16   34 1
  32   16   35 1
  33   17   18 1
  34   17   19 1
  35   17   36 1
  36   18   22 1
  37   18   37 1
  38   18   38 1
  39   19   20 1
  40   19   39 1
  41   19   40 1
  42   20   21 1
  43   20   41 1
  44   20   42 1
  45   21   22 1
  46   21   43 1
  47   21   44 1
  48   22   45 1
  49   22   46 1

#	End of record

