#	Name: ASD00170023
#	Creating user name:	WinNT
#	Creation time:	15. 06. 2019 18:31

#	Modifying user name:	WinNT
#	Modification time:	15. 06. 2019 18:31

#	Program:	/corina/corina34_cracker 3.40 0067  02.08.2006

@<TRIPOS>MOLECULE
ASD00170023
  42   44    0    0    0
SMALL
NO_CHARGES


@<TRIPOS>ATOM
   1 O1            -0.0189     1.5185     0.0092 O.3     
   2 C2             6.6281     4.9936    -1.2920 C.2     
   3 N3             5.4545     4.4254    -1.2022 N.2     
   4 N4             5.0004     3.8343    -0.0251 N.am    
   5 C5             5.7301     3.8040     1.1002 C.2     
   6 C6             7.0308     4.3925     1.1297 C.2     
   7 C7             7.5248     5.0137    -0.1042 C.2     
   8 O8             5.2814     3.2729     2.1003 O.2     
   9 C9             7.9412     4.4777     2.1579 C.2     
  10 S10            9.3560     5.2867     1.6713 S.3     
  11 C11            8.7568     5.5333     0.0437 C.2     
  12 N12            7.7320     3.9692     3.4279 N.pl3   
  13 C13            7.0623     5.6048    -2.5608 C.2     
  14 O14            6.2480     5.5791    -3.6347 O.3     
  15 O15            8.1545     6.1319    -2.6389 O.2     
  16 C16            3.7294     3.2481    -0.0161 C.ar    
  17 C17            2.6370     3.9493    -0.5110 C.ar    
  18 C18            1.3839     3.3704    -0.5017 C.ar    
  19 C19            1.2154     2.0880     0.0008 C.ar    
  20 C20            2.3060     1.3868     0.4953 C.ar    
  21 C21            3.5606     1.9624     0.4824 C.ar    
  22 C22            6.7411     6.2002    -4.8510 C.3     
  23 C23            5.6867     6.0731    -5.9523 C.3     
  24 S24           -0.3465     0.7325    -1.2523 S.o2    
  25 O25           -1.7371     0.4607    -1.1446 O.2     
  26 O26            0.1633     1.5356    -2.3079 O.2     
  27 C27            0.6152    -0.7975    -1.0949 C.3     
  28 F28            0.2216    -1.4788     0.0619 F       
  29 F29            0.3890    -1.6076    -2.2129 F       
  30 F30            1.9766    -0.4862    -1.0124 F       
  31 H31            9.3046     6.0375    -0.7386 H       
  32 H32            6.8997     3.5178     3.6386 H       
  33 H33            8.4177     4.0642     4.1074 H       
  34 H34            2.7680     4.9475    -0.9021 H       
  35 H35            0.5346     3.9154    -0.8863 H       
  36 H36            2.1738     0.3889     0.8865 H       
  37 H37            4.4093     1.4164     0.8669 H       
  38 H38            6.9455     7.2544    -4.6635 H       
  39 H39            7.6582     5.7030    -5.1668 H       
  40 H40            5.4824     5.0190    -6.1397 H       
  41 H41            4.7696     6.5704    -5.6364 H       
  42 H42            6.0569     6.5394    -6.8653 H       
@<TRIPOS>BOND
   1    1   24 1
   2    1   19 1
   3    2    3 2
   4    2   13 1
   5    2    7 1
   6    3    4 1
   7    4    5 am
   8    4   16 1
   9    5    6 1
  10    5    8 2
  11    6    7 1
  12    6    9 2
  13    7   11 2
  14    9   10 1
  15    9   12 1
  16   10   11 1
  17   11   31 1
  18   12   32 1
  19   12   33 1
  20   13   14 1
  21   13   15 2
  22   14   22 1
  23   16   17 ar
  24   16   21 ar
  25   17   18 ar
  26   17   34 1
  27   18   19 ar
  28   18   35 1
  29   19   20 ar
  30   20   21 ar
  31   20   36 1
  32   21   37 1
  33   22   23 1
  34   22   38 1
  35   22   39 1
  36   23   40 1
  37   23   41 1
  38   23   42 1
  39   24   25 2
  40   24   26 2
  41   24   27 1
  42   27   28 1
  43   27   29 1
  44   27   30 1

#	End of record

