#	Name: ASD01812302
#	Creating user name:	WinNT
#	Creation time:	15. 06. 2019 19:28

#	Modifying user name:	WinNT
#	Modification time:	15. 06. 2019 19:28

#	Program:	/corina/corina34_cracker 3.40 0067  02.08.2006

@<TRIPOS>MOLECULE
ASD01812302
  53   56    0    0    0
SMALL
NO_CHARGES


@<TRIPOS>ATOM
   1 C1            -0.0060     1.6899    -0.3293 C.ar    
   2 C2            -0.1182     0.3166    -0.1826 C.ar    
   3 C3             1.0134    -0.4616    -0.0497 C.ar    
   4 C4             2.2702     0.1503    -0.0652 C.ar    
   5 C5             2.3784     1.5457    -0.2150 C.ar    
   6 C6             1.2384     2.3025    -0.3454 C.ar    
   7 C7             3.5082    -0.6197     0.0718 C.2     
   8 C8             4.7029     0.0982     0.0424 C.2     
   9 C9             4.6805     1.4693    -0.1103 C.2     
  10 N10            3.6442     2.1309    -0.2269 N.3     
  11 C11            5.9161     2.1570    -0.1347 C.2     
  12 N12            7.0727     1.4650    -0.1323 N.am    
  13 O13            5.9350     3.3748    -0.1579 O.2     
  14 C14            8.3487     2.1705    -0.2751 C.3     
  15 C15            9.3963     1.2176    -0.8542 C.3     
  16 C16           10.7289     1.9544    -1.0033 C.3     
  17 C17           11.1933     2.4508     0.3674 C.3     
  18 C18           10.1457     3.4037     0.9465 C.3     
  19 C19            8.8131     2.6669     1.0956 C.3     
  20 C20            3.4916    -2.1175     0.2374 C.3     
  21 C21            3.3038    -2.4600     1.6929 C.ar    
  22 C22            2.0303    -2.6233     2.2168 C.ar    
  23 C23            1.9048    -2.9379     3.5608 C.ar    
  24 C24            3.0465    -3.0776     4.3297 C.ar    
  25 N25            4.2428    -2.9147     3.7966 N.ar    
  26 C26            4.3987    -2.6207     2.5204 C.ar    
  27 Cl27           2.9040    -3.4709     6.0145 Cl      
  28 O28            8.9625     0.7539    -2.1344 O.3     
  29 O29            3.7553     2.8735    -1.4825 O.3     
  30 H30           -0.8976     2.2897    -0.4368 H       
  31 H31           -1.0941    -0.1458    -0.1719 H       
  32 H32            0.9290    -1.5321     0.0655 H       
  33 H33            1.3115     3.3738    -0.4612 H       
  34 H34            5.6461    -0.4189     0.1395 H       
  35 H35            3.6538     2.8205     0.5097 H       
  36 H36            7.0602     0.4999    -0.0360 H       
  37 H37            8.2208     3.0206    -0.9452 H       
  38 H38            9.5241     0.3675    -0.1840 H       
  39 H39           11.4752     1.2755    -1.4159 H       
  40 H40           10.6010     2.8045    -1.6734 H       
  41 H41           11.3211     1.6007     1.0375 H       
  42 H42           12.1427     2.9757     0.2612 H       
  43 H43           10.4766     3.7574     1.9230 H       
  44 H44           10.0179     4.2538     0.2764 H       
  45 H45            8.0668     3.3458     1.5082 H       
  46 H46            8.9409     1.8168     1.7658 H       
  47 H47            2.6709    -2.5382    -0.3437 H       
  48 H48            4.4360    -2.5325    -0.1146 H       
  49 H49            1.1567    -2.5078     1.5923 H       
  50 H50            0.9284    -3.0720     4.0023 H       
  51 H51            5.3936    -2.4952     2.1195 H       
  52 H52            9.5795     0.1441    -2.5616 H       
  53 H53            4.3940     3.5990    -1.4552 H       
@<TRIPOS>BOND
   1    1    2 ar
   2    1    6 ar
   3    1   30 1
   4    2    3 ar
   5    2   31 1
   6    3    4 ar
   7    3   32 1
   8    4    5 ar
   9    4    7 1
  10    5    6 ar
  11    5   10 1
  12    6   33 1
  13    7    8 2
  14    7   20 1
  15    8    9 1
  16    8   34 1
  17    9   10 2
  18    9   11 1
  19   10   29 1
  20   10   35 1
  21   11   12 am
  22   11   13 2
  23   12   14 1
  24   12   36 1
  25   14   15 1
  26   14   19 1
  27   14   37 1
  28   15   16 1
  29   15   28 1
  30   15   38 1
  31   16   17 1
  32   16   39 1
  33   16   40 1
  34   17   18 1
  35   17   41 1
  36   17   42 1
  37   18   19 1
  38   18   43 1
  39   18   44 1
  40   19   45 1
  41   19   46 1
  42   20   21 1
  43   20   47 1
  44   20   48 1
  45   21   22 ar
  46   21   26 ar
  47   22   23 ar
  48   22   49 1
  49   23   24 ar
  50   23   50 1
  51   24   25 ar
  52   24   27 1
  53   25   26 ar
  54   26   51 1
  55   28   52 1
  56   29   53 1

#	End of record

