#	Name: ASD03331580
#	Creating user name:	WinNT
#	Creation time:	15. 06. 2019 20:39

#	Modifying user name:	WinNT
#	Modification time:	15. 06. 2019 20:39

#	Program:	/corina/corina34_cracker 3.40 0067  02.08.2006

@<TRIPOS>MOLECULE
ASD03331580
  53   55    0    0    0
SMALL
NO_CHARGES


@<TRIPOS>ATOM
   1 C1             0.5852     2.0678    -0.7307 C.ar    
   2 C2             0.4501     0.6077    -0.5357 C.2     
   3 N3            -0.6385    -0.0283    -0.0126 N.pl3   
   4 C4            -0.3551    -1.3579     0.0187 C.2     
   5 C5             0.8892    -1.5166    -0.5101 C.2     
   6 N6             1.3547    -0.2924    -0.8419 N.2     
   7 C7             1.5989    -2.7950    -0.6930 C.2     
   8 O8             1.0702    -3.8375    -0.3574 O.2     
   9 N9             2.8340    -2.8089    -1.2322 N.am    
  10 C10            3.5396    -4.0798    -1.4141 C.3     
  11 C11            4.2610    -4.4527    -0.1174 C.3     
  12 C12           -1.8950     0.5921     0.4188 C.3     
  13 C13           -2.5429    -0.2794     1.4983 C.3     
  14 C14           -3.3887    -1.3698     0.8441 C.3     
  15 O15           -2.5817    -2.2305     0.0492 O.3     
  16 C16           -1.2605    -2.4315     0.5631 C.3     
  17 C17            4.5617    -3.9386    -2.5438 C.3     
  18 C18            5.4795    -2.7489    -2.2555 C.3     
  19 C19            5.3977    -5.2165    -2.6380 C.3     
  20 C20            3.8300    -3.7091    -3.8678 C.3     
  21 C21            1.8491     2.6402    -0.8771 C.ar    
  22 C22            1.9694     4.0042    -1.0589 C.ar    
  23 C23            0.8355     4.8035    -1.0953 C.ar    
  24 C24           -0.4208     4.2381    -0.9497 C.ar    
  25 C25           -0.5513     2.8762    -0.7744 C.ar    
  26 O26            5.2361    -3.4541     0.1894 O.3     
  27 F27            0.9572     6.1372    -1.2728 F       
  28 F28            3.1922     4.5608    -1.2010 F       
  29 H29            3.2558    -1.9774    -1.4999 H       
  30 H30            2.8226    -4.8604    -1.6683 H       
  31 H31            3.5377    -4.5160     0.6955 H       
  32 H32            4.7546    -5.4167    -0.2405 H       
  33 H33           -1.6913     1.5830     0.8246 H       
  34 H34           -2.5697     0.6783    -0.4329 H       
  35 H35           -1.7650    -0.7405     2.1069 H       
  36 H36           -3.1775     0.3403     2.1317 H       
  37 H37           -3.8805    -1.9558     1.6205 H       
  38 H38           -4.1463    -0.9052     0.2130 H       
  39 H39           -0.8934    -3.4100     0.2533 H       
  40 H40           -1.2799    -2.3752     1.6514 H       
  41 H41            6.1335    -2.9893    -1.4172 H       
  42 H42            6.0832    -2.5336    -3.1371 H       
  43 H43            4.8758    -1.8762    -2.0066 H       
  44 H44            4.7438    -6.0641    -2.8434 H       
  45 H45            6.1258    -5.1159    -3.4428 H       
  46 H46            5.9190    -5.3800    -1.6947 H       
  47 H47            3.2345    -2.7986    -3.8007 H       
  48 H48            4.5582    -3.6085    -4.6726 H       
  49 H49            3.1762    -4.5567    -4.0732 H       
  50 H50            2.7315     2.0182    -0.8481 H       
  51 H51           -1.3002     4.8644    -0.9783 H       
  52 H52           -1.5316     2.4372    -0.6611 H       
  53 H53            5.7331    -3.6259     1.0009 H       
@<TRIPOS>BOND
   1    1    2 1
   2    1   21 ar
   3    1   25 ar
   4    2    3 1
   5    2    6 2
   6    3    4 1
   7    3   12 1
   8    4    5 2
   9    4   16 1
  10    5    6 1
  11    5    7 1
  12    7    8 2
  13    7    9 am
  14    9   10 1
  15    9   29 1
  16   10   11 1
  17   10   17 1
  18   10   30 1
  19   11   26 1
  20   11   31 1
  21   11   32 1
  22   12   13 1
  23   12   33 1
  24   12   34 1
  25   13   14 1
  26   13   35 1
  27   13   36 1
  28   14   15 1
  29   14   37 1
  30   14   38 1
  31   15   16 1
  32   16   39 1
  33   16   40 1
  34   17   18 1
  35   17   19 1
  36   17   20 1
  37   18   41 1
  38   18   42 1
  39   18   43 1
  40   19   44 1
  41   19   45 1
  42   19   46 1
  43   20   47 1
  44   20   48 1
  45   20   49 1
  46   21   22 ar
  47   21   50 1
  48   22   23 ar
  49   22   28 1
  50   23   24 ar
  51   23   27 1
  52   24   25 ar
  53   24   51 1
  54   25   52 1
  55   26   53 1

#	End of record

