#	Name: ASD05430703
#	Creating user name:	WinNT
#	Creation time:	15. 06. 2019 21:00

#	Modifying user name:	WinNT
#	Modification time:	15. 06. 2019 21:00

#	Program:	/corina/corina34_cracker 3.40 0067  02.08.2006

@<TRIPOS>MOLECULE
ASD05430703
  64   68    0    0    0
SMALL
NO_CHARGES


@<TRIPOS>ATOM
   1 C1            -0.1778     1.3086    -0.2331 C.2     
   2 C2            -0.1751    -0.0638    -0.4949 C.2     
   3 C3            -1.3971    -0.7511    -0.5695 C.2     
   4 N4            -2.5273    -0.1210    -0.3975 N.2     
   5 N5            -2.5636     1.2515    -0.1341 N.am    
   6 C6            -1.4228     1.9641    -0.0449 C.2     
   7 C7            -5.3455     3.0128    -1.6340 C.ar    
   8 C8            -4.6215     1.9016    -1.2437 C.ar    
   9 C9            -3.8534     1.9206     0.0527 C.3     
  10 C10           -6.0506     2.9963    -2.8224 C.ar    
  11 C11           -6.0318     1.8663    -3.6223 C.ar    
  12 C12           -5.3064     0.7540    -3.2304 C.ar    
  13 C13           -4.6021     0.7728    -2.0416 C.ar    
  14 F14           -6.7211     1.8490    -4.7841 F       
  15 C15           -4.6555     1.1900     1.1315 C.3     
  16 N16            0.9902     2.0020    -0.1544 N.2     
  17 C17            1.1779     3.0598    -0.9095 C.2     
  18 O18           -1.4603     3.1616     0.1852 O.2     
  19 O19            0.9940    -0.7242    -0.6754 O.3     
  20 C20            3.3844    -0.8512    -0.8111 C.ar    
  21 C21            3.8753    -1.0384    -2.0897 C.ar    
  22 C22            4.9703    -1.8563    -2.2967 C.ar    
  23 C23            5.5746    -2.4868    -1.2252 C.ar    
  24 C24            5.0842    -2.2988     0.0536 C.ar    
  25 C25            3.9884    -1.4820     0.2605 C.ar    
  26 C26            2.1945     0.0455    -0.5846 C.3     
  27 C27            2.3856     3.8930    -0.7276 C.ar    
  28 C28            3.3620     3.5199     0.1980 C.ar    
  29 C29            4.4866     4.3016     0.3624 C.ar    
  30 C30            4.6482     5.4532    -0.3877 C.ar    
  31 C31            3.6842     5.8290    -1.3064 C.ar    
  32 C32            2.5575     5.0534    -1.4849 C.ar    
  33 C33            0.1816     3.4176    -1.9415 C.ar    
  34 C34           -0.2373     2.4646    -2.8721 C.ar    
  35 C35           -1.1675     2.8050    -3.8320 C.ar    
  36 C36           -1.6855     4.0874    -3.8741 C.ar    
  37 C37           -1.2744     5.0369    -2.9552 C.ar    
  38 C38           -0.3491     4.7083    -1.9864 C.ar    
  39 H39           -1.4021    -1.8120    -0.7716 H       
  40 H40           -5.3636     3.8925    -1.0077 H       
  41 H41           -3.6861     2.9527     0.3608 H       
  42 H42           -6.6163     3.8644    -3.1269 H       
  43 H43           -5.2908    -0.1279    -3.8537 H       
  44 H44           -4.0359    -0.0946    -1.7358 H       
  45 H45           -4.8228     0.1579     0.8234 H       
  46 H46           -4.0999     1.2038     2.0692 H       
  47 H47           -5.6151     1.6878     1.2704 H       
  48 H48            3.4032    -0.5458    -2.9269 H       
  49 H49            5.3534    -2.0032    -3.2958 H       
  50 H50            6.4296    -3.1264    -1.3870 H       
  51 H51            5.5559    -2.7919     0.8907 H       
  52 H52            3.6048    -1.3357     1.2594 H       
  53 H53            2.1814     0.8298    -1.3414 H       
  54 H54            2.2628     0.4967     0.4053 H       
  55 H55            3.2369     2.6216     0.7843 H       
  56 H56            5.2425     4.0144     1.0783 H       
  57 H57            5.5306     6.0617    -0.2551 H       
  58 H58            3.8162     6.7294    -1.8881 H       
  59 H59            1.8080     5.3454    -2.2055 H       
  60 H60            0.1665     1.4634    -2.8405 H       
  61 H61           -1.4921     2.0689    -4.5527 H       
  62 H62           -2.4136     4.3487    -4.6278 H       
  63 H63           -1.6821     6.0362    -2.9940 H       
  64 H64           -0.0324     5.4489    -1.2670 H       
@<TRIPOS>BOND
   1    1    2 2
   2    1   16 1
   3    1    6 1
   4    2    3 1
   5    2   19 1
   6    3    4 2
   7    3   39 1
   8    4    5 1
   9    5    6 am
  10    5    9 1
  11    6   18 2
  12    7    8 ar
  13    7   10 ar
  14    7   40 1
  15    8    9 1
  16    8   13 ar
  17    9   15 1
  18    9   41 1
  19   10   11 ar
  20   10   42 1
  21   11   12 ar
  22   11   14 1
  23   12   13 ar
  24   12   43 1
  25   13   44 1
  26   15   45 1
  27   15   46 1
  28   15   47 1
  29   16   17 2
  30   17   27 1
  31   17   33 1
  32   19   26 1
  33   20   21 ar
  34   20   25 ar
  35   20   26 1
  36   21   22 ar
  37   21   48 1
  38   22   23 ar
  39   22   49 1
  40   23   24 ar
  41   23   50 1
  42   24   25 ar
  43   24   51 1
  44   25   52 1
  45   26   53 1
  46   26   54 1
  47   27   28 ar
  48   27   32 ar
  49   28   29 ar
  50   28   55 1
  51   29   30 ar
  52   29   56 1
  53   30   31 ar
  54   30   57 1
  55   31   32 ar
  56   31   58 1
  57   32   59 1
  58   33   34 ar
  59   33   38 ar
  60   34   35 ar
  61   34   60 1
  62   35   36 ar
  63   35   61 1
  64   36   37 ar
  65   36   62 1
  66   37   38 ar
  67   37   63 1
  68   38   64 1

#	End of record

