#	Name: ASD01814292
#	Creating user name:	WinNT
#	Creation time:	15. 06. 2019 19:32

#	Modifying user name:	WinNT
#	Modification time:	15. 06. 2019 19:32

#	Program:	/corina/corina34_cracker 3.40 0067  02.08.2006

@<TRIPOS>MOLECULE
ASD01814292
  53   58    0    0    0
SMALL
NO_CHARGES


@<TRIPOS>ATOM
   1 C1            -0.0168     1.3869     0.0097 C.ar    
   2 C2             0.0021    -0.0041     0.0020 C.ar    
   3 C3             1.1801    -0.6897    -0.0129 C.ar    
   4 C4             2.3948     0.0129    -0.0207 C.ar    
   5 C5             2.3717     1.4289    -0.0129 C.ar    
   6 C6             1.1455     2.1014     0.0024 C.ar    
   7 C7             3.6294    -0.6695    -0.0365 C.ar    
   8 C8             4.8032     0.0061    -0.0446 C.ar    
   9 C9             4.8361     1.4094    -0.0369 C.ar    
  10 C10            3.6406     2.1511    -0.0211 C.ar    
  11 C11            6.1027     2.1517    -0.0451 C.2     
  12 N12            6.0338     3.5032    -0.0368 N.am    
  13 C13            4.8294     4.1317    -0.0210 C.2     
  14 N14            3.6956     3.4935    -0.0145 N.2     
  15 C15            3.6423    -2.1764    -0.0442 C.3     
  16 C16            3.5086    -2.6727    -1.4608 C.ar    
  17 C17            4.6397    -2.8891    -2.2260 C.ar    
  18 C18            4.5197    -3.3441    -3.5249 C.ar    
  19 C19            3.2630    -3.5838    -4.0613 C.ar    
  20 C20            2.1296    -3.3658    -3.2915 C.ar    
  21 C21            2.2552    -2.9162    -1.9913 C.ar    
  22 O22            7.1744     1.5734    -0.0584 O.2     
  23 C23            7.2120     4.2591    -0.0440 C.2     
  24 N24            8.4291     3.7687    -0.0591 N.2     
  25 N25            9.3127     4.8602    -0.0622 N.pl3   
  26 C26            8.5372     5.9779    -0.0482 C.2     
  27 N27            7.2746     5.5912    -0.0424 N.2     
  28 C28            9.0190     7.3685    -0.0456 C.2     
  29 C29            8.2390     8.4854    -0.0316 C.2     
  30 C30            9.1120     9.5892    -0.0337 C.2     
  31 C31           10.3687     9.1000    -0.0487 C.2     
  32 O32           10.3089     7.7592    -0.0507 O.3     
  33 O33            3.1423    -4.0309    -5.3390 O.3     
  34 C34            1.8176    -4.2562    -5.8251 C.3     
  35 H35           -0.9630     1.9075     0.0169 H       
  36 H36           -0.9305    -0.5488     0.0083 H       
  37 H37            1.1786    -1.7697    -0.0183 H       
  38 H38            1.1188     3.1811     0.0085 H       
  39 H39            5.7316    -0.5455    -0.0567 H       
  40 H40            4.8123     5.2116    -0.0144 H       
  41 H41            4.5811    -2.5338     0.3789 H       
  42 H42            2.8097    -2.5500     0.5518 H       
  43 H43            5.6178    -2.7020    -1.8080 H       
  44 H44            5.4035    -3.5126    -4.1223 H       
  45 H45            1.1502    -3.5517    -3.7069 H       
  46 H46            1.3732    -2.7468    -1.3915 H       
  47 H47           10.2820     4.8244    -0.0718 H       
  48 H48            7.1595     8.5175    -0.0215 H       
  49 H49            8.8290    10.6314    -0.0254 H       
  50 H50           11.2735     9.6897    -0.0540 H       
  51 H51            1.3254    -5.0053    -5.2049 H       
  52 H52            1.2530    -3.3246    -5.7863 H       
  53 H53            1.8638    -4.6104    -6.8549 H       
@<TRIPOS>BOND
   1    1    2 ar
   2    1    6 ar
   3    1   35 1
   4    2    3 ar
   5    2   36 1
   6    3    4 ar
   7    3   37 1
   8    4    5 ar
   9    4    7 ar
  10    5    6 ar
  11    5   10 ar
  12    6   38 1
  13    7    8 ar
  14    7   15 1
  15    8    9 ar
  16    8   39 1
  17    9   10 ar
  18    9   11 1
  19   10   14 1
  20   11   12 am
  21   11   22 2
  22   12   13 1
  23   12   23 1
  24   13   14 2
  25   13   40 1
  26   15   16 1
  27   15   41 1
  28   15   42 1
  29   16   17 ar
  30   16   21 ar
  31   17   18 ar
  32   17   43 1
  33   18   19 ar
  34   18   44 1
  35   19   20 ar
  36   19   33 1
  37   20   21 ar
  38   20   45 1
  39   21   46 1
  40   23   24 2
  41   23   27 1
  42   24   25 1
  43   25   26 1
  44   25   47 1
  45   26   27 2
  46   26   28 1
  47   28   29 2
  48   28   32 1
  49   29   30 1
  50   29   48 1
  51   30   31 2
  52   30   49 1
  53   31   32 1
  54   31   50 1
  55   33   34 1
  56   34   51 1
  57   34   52 1
  58   34   53 1

#	End of record

