#	Name: ASD01231357
#	Creating user name:	WinNT
#	Creation time:	15. 06. 2019 19:15

#	Modifying user name:	WinNT
#	Modification time:	15. 06. 2019 19:15

#	Program:	/corina/corina34_cracker 3.40 0067  02.08.2006

@<TRIPOS>MOLECULE
ASD01231357
  40   42    0    0    0
SMALL
NO_CHARGES


@<TRIPOS>ATOM
   1 C1            -0.0162     1.3436     0.0094 C.2     
   2 N2             0.0021    -0.0041     0.0020 N.am    
   3 O3             1.0277     1.9654     0.0028 O.2     
   4 O4            -1.1912     2.0008     0.0186 O.3     
   5 C5             1.2806    -0.7192    -0.0140 C.3     
   6 C6             1.1133    -2.1289     0.5918 C.3     
   7 C7             0.8194    -2.9919    -0.6536 C.3     
   8 C8             1.4695    -2.2577    -1.8067 C.ar    
   9 C9             1.8027    -2.6974    -3.0770 C.ar    
  10 C10            2.3985    -1.8356    -3.9768 C.ar    
  11 C11            2.6635    -0.5294    -3.6092 C.ar    
  12 C12            2.3319    -0.0891    -2.3429 C.ar    
  13 C13            1.7344    -0.9518    -1.4392 C.ar    
  14 C14            2.7599    -2.3186    -5.3578 C.3     
  15 Cl15           1.3711    -2.0417    -6.4738 Cl      
  16 C16           -1.1349     3.4517     0.0262 C.3     
  17 C17           -2.5351     4.0087     0.0359 C.ar    
  18 C18           -3.1717     4.2577     1.2374 C.ar    
  19 C19           -4.4561     4.7686     1.2463 C.ar    
  20 C20           -5.1038     5.0309     0.0536 C.ar    
  21 C21           -4.4670     4.7828    -1.1480 C.ar    
  22 C22           -3.1809     4.2760    -1.1568 C.ar    
  23 H23           -0.8313    -0.5005     0.0073 H       
  24 H24            2.0344    -0.1575     0.5376 H       
  25 H25            2.0328    -2.4527     1.0794 H       
  26 H26            0.2747    -2.1546     1.2876 H       
  27 H27            1.2597    -3.9826    -0.5398 H       
  28 H28           -0.2558    -3.0712    -0.8138 H       
  29 H29            1.5964    -3.7177    -3.3648 H       
  30 H30            3.1297     0.1458    -4.3114 H       
  31 H31            2.5392     0.9314    -2.0565 H       
  32 H32            3.6304    -1.7705    -5.7182 H       
  33 H33            2.9902    -3.3833    -5.3216 H       
  34 H34           -0.6031     3.7900     0.9155 H       
  35 H35           -0.6116     3.7997    -0.8644 H       
  36 H36           -2.6656     4.0527     2.1692 H       
  37 H37           -4.9537     4.9624     2.1850 H       
  38 H38           -6.1076     5.4294     0.0605 H       
  39 H39           -4.9732     4.9875    -2.0798 H       
  40 H40           -2.6820     4.0856    -2.0955 H       
@<TRIPOS>BOND
   1    1    2 am
   2    1    3 2
   3    1    4 1
   4    2    5 1
   5    2   23 1
   6    4   16 1
   7    5    6 1
   8    5   13 1
   9    5   24 1
  10    6    7 1
  11    6   25 1
  12    6   26 1
  13    7    8 1
  14    7   27 1
  15    7   28 1
  16    8    9 ar
  17    8   13 ar
  18    9   10 ar
  19    9   29 1
  20   10   11 ar
  21   10   14 1
  22   11   12 ar
  23   11   30 1
  24   12   13 ar
  25   12   31 1
  26   14   15 1
  27   14   32 1
  28   14   33 1
  29   16   17 1
  30   16   34 1
  31   16   35 1
  32   17   18 ar
  33   17   22 ar
  34   18   19 ar
  35   18   36 1
  36   19   20 ar
  37   19   37 1
  38   20   21 ar
  39   20   38 1
  40   21   22 ar
  41   21   39 1
  42   22   40 1

#	End of record

