#	Name: ASD07930822
#	Creating user name:	WinNT
#	Creation time:	15. 06. 2019 21:13

#	Modifying user name:	WinNT
#	Modification time:	15. 06. 2019 21:13

#	Program:	/corina/corina34_cracker 3.40 0067  02.08.2006

@<TRIPOS>MOLECULE
ASD07930822
  82   87    0    0    0
SMALL
NO_CHARGES


@<TRIPOS>ATOM
   1 C1            -2.4151     0.4654     0.5162 C.2     
   2 C2            -2.7011    -0.9827     0.4471 C.ar    
   3 C3            -1.6684    -1.9095     0.6015 C.ar    
   4 C4            -1.9424    -3.2599     0.5358 C.ar    
   5 C5            -3.2370    -3.6966     0.3171 C.ar    
   6 C6            -4.2651    -2.7834     0.1633 C.ar    
   7 C7            -4.0061    -1.4303     0.2329 C.ar    
   8 O8            -1.2790     0.8520     0.7077 O.2     
   9 N9            -3.4134     1.3576     0.3612 N.am    
  10 C10           -3.1525     2.6784     0.4242 C.2     
  11 N11           -4.1508     3.5706     0.2692 N.am    
  12 S12           -1.5532     3.2228     0.7010 S.2     
  13 O13           -3.3341     6.7213    -1.2072 O.3     
  14 C14           -2.8832     5.4175    -0.7798 C.3     
  15 C15           -3.8673     5.0062     0.3377 C.3     
  16 C16           -5.1410     5.8276     0.0373 C.3     
  17 C17           -4.7758     6.6379    -1.2262 C.3     
  18 C18           -5.3912     8.0370    -1.1579 C.3     
  19 O19           -5.0776     8.7542    -2.3535 O.3     
  20 C20           -5.6083    10.0805    -2.3918 C.3     
  21 C21           -9.8669     9.9190    -2.0987 C.ar    
  22 C22           -4.0409    12.3368     0.8792 C.ar    
  23 C23           -4.5039    11.9500    -6.0705 C.ar    
  24 C24           -9.1718     8.8619    -2.6560 C.ar    
  25 C25           -7.7938     8.9144    -2.7511 C.ar    
  26 C26           -7.1107    10.0235    -2.2885 C.ar    
  27 C27           -7.8057    11.0803    -1.7308 C.ar    
  28 C28           -9.1838    11.0281    -1.6361 C.ar    
  29 C29           -3.5049    12.4898    -0.3858 C.ar    
  30 C30           -4.0119    11.7593    -1.4442 C.ar    
  31 C31           -5.0553    10.8764    -1.2378 C.ar    
  32 C32           -5.5916    10.7238     0.0271 C.ar    
  33 C33           -5.0843    11.4539     1.0856 C.ar    
  34 C34           -3.6796    10.9947    -5.5059 C.ar    
  35 C35           -4.0368    10.3899    -4.3153 C.ar    
  36 C36           -5.2186    10.7401    -3.6895 C.ar    
  37 C37           -6.0432    11.6950    -4.2544 C.ar    
  38 C38           -5.6857    12.3001    -5.4447 C.ar    
  39 C39           -6.3237     4.8988    -0.2448 C.3     
  40 O40           -7.5122     5.6759    -0.4044 O.3     
  41 C41           -3.3116     5.3695     1.6906 C.ar    
  42 C42           -2.9960     6.6869     1.9783 C.ar    
  43 C43           -2.4861     7.0202     3.2210 C.ar    
  44 C44           -2.2922     6.0361     4.1752 C.ar    
  45 C45           -2.6085     4.7197     3.8853 C.ar    
  46 C46           -3.1226     4.3887     2.6456 C.ar    
  47 F47           -1.7942     6.3600     5.3886 F       
  48 F48           -3.1852     7.6462     1.0461 F       
  49 H49           -0.6574    -1.5700     0.7715 H       
  50 H50           -1.1445    -3.9779     0.6551 H       
  51 H51           -3.4459    -4.7549     0.2659 H       
  52 H52           -5.2733    -3.1309    -0.0075 H       
  53 H53           -4.8103    -0.7186     0.1175 H       
  54 H54           -4.3195     1.0491     0.2044 H       
  55 H55           -5.0569     3.2621     0.1124 H       
  56 H56           -2.9311     4.7095    -1.6071 H       
  57 H57           -1.8677     5.4768    -0.3883 H       
  58 H58           -5.3689     6.4963     0.8673 H       
  59 H59           -5.1140     6.1170    -2.1219 H       
  60 H60           -6.4734     7.9535    -1.0576 H       
  61 H61           -4.9867     8.5703    -0.2976 H       
  62 H62          -10.9439     9.8799    -2.0284 H       
  63 H63           -3.6419    12.9042     1.7070 H       
  64 H64           -4.2227    12.4256    -6.9984 H       
  65 H65           -9.7055     7.9952    -3.0170 H       
  66 H66           -7.2507     8.0882    -3.1859 H       
  67 H67           -7.2720    11.9468    -1.3691 H       
  68 H68           -9.7268    11.8538    -1.2004 H       
  69 H69           -2.6900    13.1799    -0.5471 H       
  70 H70           -3.5935    11.8793    -2.4326 H       
  71 H71           -6.4070    10.0342     0.1883 H       
  72 H72           -5.5034    11.3347     2.0738 H       
  73 H73           -2.7564    10.7208    -5.9950 H       
  74 H74           -3.3931     9.6431    -3.8745 H       
  75 H75           -6.9667    11.9684    -3.7657 H       
  76 H76           -6.3300    13.0462    -5.8860 H       
  77 H77           -6.1330     4.3348    -1.1578 H       
  78 H78           -6.4503     4.2083     0.5891 H       
  79 H79           -8.3038     5.1512    -0.5861 H       
  80 H80           -2.2393     8.0473     3.4461 H       
  81 H81           -2.4574     3.9518     4.6296 H       
  82 H82           -3.3729     3.3623     2.4218 H       
@<TRIPOS>BOND
   1    1    2 1
   2    1    8 2
   3    1    9 am
   4    2    3 ar
   5    2    7 ar
   6    3    4 ar
   7    3   49 1
   8    4    5 ar
   9    4   50 1
  10    5    6 ar
  11    5   51 1
  12    6    7 ar
  13    6   52 1
  14    7   53 1
  15    9   10 am
  16    9   54 1
  17   10   11 am
  18   10   12 2
  19   11   15 1
  20   11   55 1
  21   13   14 1
  22   13   17 1
  23   14   15 1
  24   14   56 1
  25   14   57 1
  26   15   41 1
  27   15   16 1
  28   16   17 1
  29   16   39 1
  30   16   58 1
  31   17   18 1
  32   17   59 1
  33   18   19 1
  34   18   60 1
  35   18   61 1
  36   19   20 1
  37   20   26 1
  38   20   31 1
  39   20   36 1
  40   21   24 ar
  41   21   28 ar
  42   21   62 1
  43   22   29 ar
  44   22   33 ar
  45   22   63 1
  46   23   34 ar
  47   23   38 ar
  48   23   64 1
  49   24   25 ar
  50   24   65 1
  51   25   26 ar
  52   25   66 1
  53   26   27 ar
  54   27   28 ar
  55   27   67 1
  56   28   68 1
  57   29   30 ar
  58   29   69 1
  59   30   31 ar
  60   30   70 1
  61   31   32 ar
  62   32   33 ar
  63   32   71 1
  64   33   72 1
  65   34   35 ar
  66   34   73 1
  67   35   36 ar
  68   35   74 1
  69   36   37 ar
  70   37   38 ar
  71   37   75 1
  72   38   76 1
  73   39   40 1
  74   39   77 1
  75   39   78 1
  76   40   79 1
  77   41   42 ar
  78   41   46 ar
  79   42   43 ar
  80   42   48 1
  81   43   44 ar
  82   43   80 1
  83   44   45 ar
  84   44   47 1
  85   45   46 ar
  86   45   81 1
  87   46   82 1

#	End of record

