#	Name: ASD01420118
#	Creating user name:	WinNT
#	Creation time:	15. 06. 2019 19:20

#	Modifying user name:	WinNT
#	Modification time:	15. 06. 2019 19:20

#	Program:	/corina/corina34_cracker 3.40 0067  02.08.2006

@<TRIPOS>MOLECULE
ASD01420118
  97  103    0    0    0
SMALL
NO_CHARGES


@<TRIPOS>ATOM
   1 C1            -0.0144     1.2120     0.0087 C.2     
   2 O2             0.1712     0.0715    -0.3706 O.2     
   3 C3             0.9809     3.3591     0.8570 C.3     
   4 N4             1.0184     1.9458     0.4682 N.am    
   5 C5             2.3945     1.4836     0.6748 C.3     
   6 C6             3.1958     2.6486     1.1990 C.ar    
   7 C7             4.5289     2.7498     1.5537 C.ar    
   8 C8             5.0350     3.9564     2.0174 C.ar    
   9 C9             4.1987     5.0607     2.1238 C.ar    
  10 C10            2.8696     4.9535     1.7683 C.ar    
  11 C11            2.3669     3.7484     1.3059 C.ar    
  12 N12            6.3808     4.0598     2.3764 N.3     
  13 C13            6.6999     5.4173     2.8367 C.3     
  14 C14            8.2060     5.5333     3.0820 C.3     
  15 C15            8.6275     4.5049     4.1351 C.3     
  16 C16            8.2404     3.1041     3.6528 C.3     
  17 C17            6.7333     3.0585     3.3911 C.3     
  18 N18           10.0817     4.5718     4.3322 N.3     
  19 C19           10.5071     3.6813     5.4212 C.3     
  20 C20           12.0324     3.7197     5.5416 C.3     
  21 N21           12.4666     5.1007     5.7943 N.3     
  22 C22           12.0412     5.9911     4.7053 C.3     
  23 C23           10.5160     5.9528     4.5849 C.3     
  24 C24           13.9208     5.1676     5.9914 C.3     
  25 C25           -1.3673     1.7935    -0.0398 C.ar    
  26 C26           -2.1790     1.5936    -1.1682 C.ar    
  27 C27           -3.4504     2.1407    -1.2137 C.ar    
  28 C28           -3.9261     2.8863    -0.1481 C.ar    
  29 C29           -3.1214     3.0906     0.9840 C.ar    
  30 C30           -1.8468     2.5392     1.0379 C.ar    
  31 C31           -3.6310     3.8867     2.1193 C.2     
  32 C32           -3.7023     5.2075     2.0239 C.2     
  33 C33           -4.0699     3.1979     3.3858 C.3     
  34 O34           -5.1719     3.4206    -0.1984 O.3     
  35 C35           -5.9363     3.1739    -1.3803 C.3     
  36 C36           -7.2823     3.8403    -1.2562 C.ar    
  37 C37           -7.4533     5.1398    -1.6954 C.ar    
  38 C38           -8.6879     5.7510    -1.5816 C.ar    
  39 C39           -9.7516     5.0626    -1.0289 C.ar    
  40 C40           -9.5809     3.7628    -0.5905 C.ar    
  41 C41           -8.3474     3.1501    -0.7084 C.ar    
  42 O42           -1.7172     0.8645    -2.2144 O.3     
  43 C43           -2.5958     0.7013    -3.3295 C.3     
  44 C44           -1.9166    -0.1306    -4.3867 C.ar    
  45 C45           -2.0503    -1.5065    -4.3752 C.ar    
  46 C46           -1.4273    -2.2696    -5.3449 C.ar    
  47 C47           -0.6709    -1.6568    -6.3264 C.ar    
  48 C48           -0.5379    -0.2809    -6.3384 C.ar    
  49 C49           -1.1646     0.4825    -5.3712 C.ar    
  50 H50            0.6838     3.9692     0.0040 H       
  51 H51            0.2747     3.4983     1.6756 H       
  52 H52            2.4061     0.6707     1.4008 H       
  53 H53            2.8152     1.1416    -0.2708 H       
  54 H54            5.1764     1.8895     1.4702 H       
  55 H55            4.5881     6.0013     2.4844 H       
  56 H56            2.2192     5.8117     1.8513 H       
  57 H57            6.3990     6.1385     2.0769 H       
  58 H58            6.1642     5.6217     3.7638 H       
  59 H59            8.7419     5.3426     2.1521 H       
  60 H60            8.4405     6.5363     3.4385 H       
  61 H61            8.1212     4.7189     5.0764 H       
  62 H62            8.7768     2.8752     2.7320 H       
  63 H63            8.4994     2.3716     4.4172 H       
  64 H64            6.1974     3.2740     4.3155 H       
  65 H65            6.4566     2.0665     3.0338 H       
  66 H66           10.0599     4.0134     6.3581 H       
  67 H67           10.1849     2.6628     5.2049 H       
  68 H68           12.3481     3.0823     6.3675 H       
  69 H69           12.4795     3.3619     4.6141 H       
  70 H70           12.3634     7.0097     4.9216 H       
  71 H71           12.4885     5.6591     3.7684 H       
  72 H72           10.2002     6.5902     3.7590 H       
  73 H73           10.0688     6.3106     5.5123 H       
  74 H74           14.4258     4.8004     5.0979 H       
  75 H75           14.2152     6.2006     6.1765 H       
  76 H76           14.2004     4.5514     6.8459 H       
  77 H77           -4.0724     1.9858    -2.0829 H       
  78 H78           -1.2274     2.6911     1.9095 H       
  79 H79           -3.3878     5.7012     1.1163 H       
  80 H80           -4.0749     5.7895     2.8539 H       
  81 H81           -3.2215     3.1103     4.0645 H       
  82 H82           -4.8577     3.7812     3.8624 H       
  83 H83           -4.4480     2.2039     3.1465 H       
  84 H84           -5.4093     3.5777    -2.2448 H       
  85 H85           -6.0729     2.0999    -1.5071 H       
  86 H86           -6.6222     5.6776    -2.1272 H       
  87 H87           -8.8213     6.7666    -1.9240 H       
  88 H88          -10.7160     5.5405    -0.9393 H       
  89 H89          -10.4119     3.2251    -0.1584 H       
  90 H90           -8.2149     2.1333    -0.3693 H       
  91 H91           -3.5076     0.2007    -3.0034 H       
  92 H92           -2.8456     1.6790    -3.7414 H       
  93 H93           -2.6413    -1.9852    -3.6084 H       
  94 H94           -1.5311    -3.3445    -5.3355 H       
  95 H95           -0.1835    -2.2530    -7.0836 H       
  96 H96            0.0533     0.1978    -7.1050 H       
  97 H97           -1.0637     1.5577    -5.3828 H       
@<TRIPOS>BOND
   1    1    2 2
   2    1    4 am
   3    1   25 1
   4    3    4 1
   5    3   11 1
   6    3   50 1
   7    3   51 1
   8    4    5 1
   9    5    6 1
  10    5   52 1
  11    5   53 1
  12    6    7 ar
  13    6   11 ar
  14    7    8 ar
  15    7   54 1
  16    8    9 ar
  17    8   12 1
  18    9   10 ar
  19    9   55 1
  20   10   11 ar
  21   10   56 1
  22   12   13 1
  23   12   17 1
  24   13   14 1
  25   13   57 1
  26   13   58 1
  27   14   15 1
  28   14   59 1
  29   14   60 1
  30   15   16 1
  31   15   18 1
  32   15   61 1
  33   16   17 1
  34   16   62 1
  35   16   63 1
  36   17   64 1
  37   17   65 1
  38   18   19 1
  39   18   23 1
  40   19   20 1
  41   19   66 1
  42   19   67 1
  43   20   21 1
  44   20   68 1
  45   20   69 1
  46   21   22 1
  47   21   24 1
  48   22   23 1
  49   22   70 1
  50   22   71 1
  51   23   72 1
  52   23   73 1
  53   24   74 1
  54   24   75 1
  55   24   76 1
  56   25   26 ar
  57   25   30 ar
  58   26   27 ar
  59   26   42 1
  60   27   28 ar
  61   27   77 1
  62   28   29 ar
  63   28   34 1
  64   29   30 ar
  65   29   31 1
  66   30   78 1
  67   31   32 2
  68   31   33 1
  69   32   79 1
  70   32   80 1
  71   33   81 1
  72   33   82 1
  73   33   83 1
  74   34   35 1
  75   35   36 1
  76   35   84 1
  77   35   85 1
  78   36   37 ar
  79   36   41 ar
  80   37   38 ar
  81   37   86 1
  82   38   39 ar
  83   38   87 1
  84   39   40 ar
  85   39   88 1
  86   40   41 ar
  87   40   89 1
  88   41   90 1
  89   42   43 1
  90   43   44 1
  91   43   91 1
  92   43   92 1
  93   44   45 ar
  94   44   49 ar
  95   45   46 ar
  96   45   93 1
  97   46   47 ar
  98   46   94 1
  99   47   48 ar
 100   47   95 1
 101   48   49 ar
 102   48   96 1
 103   49   97 1

#	End of record

