#	Name: ASD04590658
#	Creating user name:	WinNT
#	Creation time:	15. 06. 2019 20:51

#	Modifying user name:	WinNT
#	Modification time:	15. 06. 2019 20:51

#	Program:	/corina/corina34_cracker 3.40 0067  02.08.2006

@<TRIPOS>MOLECULE
ASD04590658
  60   65    0    0    0
SMALL
NO_CHARGES


@<TRIPOS>ATOM
   1 N1            -0.0171     1.3232    -0.0119 N.ar    
   2 C2             0.0017    -0.0035    -0.0051 C.ar    
   3 N3             1.1298    -0.6949    -0.0122 N.ar    
   4 C4             2.3050    -0.0728    -0.0266 C.ar    
   5 C5             2.3189     1.3366    -0.0341 C.ar    
   6 C6             1.1072     2.0202    -0.0262 C.ar    
   7 N7             3.6031    -0.5195    -0.0366 N.pl3   
   8 C8             4.4823     0.5496    -0.0505 C.ar    
   9 C9             3.7312     1.7385    -0.0496 C.ar    
  10 C10            5.8680     0.6419    -0.0642 C.ar    
  11 N11            6.4613     1.8181    -0.0759 N.ar    
  12 C12            5.7850     2.9533    -0.0754 C.ar    
  13 C13            4.4063     2.9585    -0.0619 C.ar    
  14 N14           -1.2019    -0.6887     0.0103 N.pl3   
  15 C15           -2.4019     0.0120     0.1313 C.ar    
  16 C16            4.0018    -1.9292    -0.0323 C.3     
  17 C17            3.4613    -2.6260     1.2287 C.3     
  18 C18            2.5281    -3.7543     0.7431 C.3     
  19 C19            3.0201    -4.0625    -0.6929 C.3     
  20 C20            3.3781    -2.6584    -1.2402 C.3     
  21 N21           -2.3782     1.3199     0.3319 N.ar    
  22 C22           -3.4880     2.0231     0.4522 C.ar    
  23 C23           -4.7291     1.4086     0.3721 C.ar    
  24 C24           -4.7935     0.0324     0.1615 C.ar    
  25 C25           -3.6090    -0.6707     0.0341 C.ar    
  26 N26           -5.9023     2.1614     0.5017 N.3     
  27 C27           -6.7485     1.6360     1.5822 C.3     
  28 C28           -7.9793     2.5312     1.7438 C.3     
  29 N29           -8.7187     2.5769     0.4746 N.3     
  30 C30           -7.8724     3.1023    -0.6059 C.3     
  31 C31           -6.6416     2.2071    -0.7675 C.3     
  32 C32           -8.6664     3.1194    -1.9136 C.3     
  33 F33           -9.7927     3.9358    -1.7647 F       
  34 F34           -7.8605     3.6196    -2.9420 F       
  35 F35           -9.0720     1.8184    -2.2300 F       
  36 H36            1.0848     3.1000    -0.0319 H       
  37 H37            6.4645    -0.2585    -0.0648 H       
  38 H38            6.3203     3.8913    -0.0850 H       
  39 H39            3.8596     3.8899    -0.0620 H       
  40 H40           -1.2103    -1.6559    -0.0630 H       
  41 H41            5.0882    -2.0098    -0.0668 H       
  42 H42            4.2854    -3.0454     1.8058 H       
  43 H43            2.9024    -1.9152     1.8375 H       
  44 H44            2.6305    -4.6340     1.3784 H       
  45 H45            1.4931    -3.4128     0.7266 H       
  46 H46            3.9008    -4.7043    -0.6701 H       
  47 H47            2.2252    -4.5165    -1.2845 H       
  48 H48            2.4804    -2.1399    -1.5770 H       
  49 H49            4.1009    -2.7384    -2.0523 H       
  50 H50           -3.4296     3.0891     0.6153 H       
  51 H51           -5.7459    -0.4726     0.0952 H       
  52 H52           -3.6218    -1.7380    -0.1303 H       
  53 H53           -7.0657     0.6227     1.3357 H       
  54 H54           -6.1828     1.6238     2.5139 H       
  55 H55           -8.6229     2.1270     2.5252 H       
  56 H56           -7.6634     3.5380     2.0171 H       
  57 H57           -9.0855     1.6675     0.2369 H       
  58 H58           -7.5553     4.1156    -0.3594 H       
  59 H59           -5.9981     2.6112    -1.5489 H       
  60 H60           -6.9576     1.2003    -1.0407 H       
@<TRIPOS>BOND
   1    1    2 ar
   2    1    6 ar
   3    2    3 ar
   4    2   14 1
   5    3    4 ar
   6    4    5 ar
   7    4    7 1
   8    5    6 ar
   9    5    9 1
  10    6   36 1
  11    7    8 1
  12    7   16 1
  13    8    9 ar
  14    8   10 ar
  15    9   13 ar
  16   10   11 ar
  17   10   37 1
  18   11   12 ar
  19   12   13 ar
  20   12   38 1
  21   13   39 1
  22   14   15 1
  23   14   40 1
  24   15   21 ar
  25   15   25 ar
  26   16   17 1
  27   16   20 1
  28   16   41 1
  29   17   18 1
  30   17   42 1
  31   17   43 1
  32   18   19 1
  33   18   44 1
  34   18   45 1
  35   19   20 1
  36   19   46 1
  37   19   47 1
  38   20   48 1
  39   20   49 1
  40   21   22 ar
  41   22   23 ar
  42   22   50 1
  43   23   24 ar
  44   23   26 1
  45   24   25 ar
  46   24   51 1
  47   25   52 1
  48   26   27 1
  49   26   31 1
  50   27   28 1
  51   27   53 1
  52   27   54 1
  53   28   29 1
  54   28   55 1
  55   28   56 1
  56   29   30 1
  57   29   57 1
  58   30   31 1
  59   30   32 1
  60   30   58 1
  61   31   59 1
  62   31   60 1
  63   32   33 1
  64   32   34 1
  65   32   35 1

#	End of record

