#	Name: ASD05430396
#	Creating user name:	WinNT
#	Creation time:	15. 06. 2019 21:00

#	Modifying user name:	WinNT
#	Modification time:	15. 06. 2019 21:00

#	Program:	/corina/corina34_cracker 3.40 0067  02.08.2006

@<TRIPOS>MOLECULE
ASD05430396
  62   65    0    0    0
SMALL
NO_CHARGES


@<TRIPOS>ATOM
   1 C1            -0.0183     1.3917     0.2596 C.ar    
   2 C2            -0.0007     0.0003     0.3573 C.ar    
   3 C3            -1.1931    -0.7121     0.3942 C.ar    
   4 C4            -2.3983    -0.0480     0.3345 C.ar    
   5 C5            -2.4238     1.3478     0.2369 C.ar    
   6 C6            -1.2233     2.0653     0.2051 C.ar    
   7 C7            -4.8664     1.3656     0.2085 C.2     
   8 C8            -3.7095     2.0589     0.1731 C.2     
   9 C9            -6.1456     2.0731     0.1450 C.2     
  10 O10            1.1505     2.0853     0.2238 O.3     
  11 C11            1.0578     3.5078     0.1231 C.3     
  12 C12            1.5787    -1.6348     1.3351 C.2     
  13 N13            1.2218    -0.6803     0.4178 N.pl3   
  14 C14            2.8311    -2.0222     1.0276 C.2     
  15 N15            3.2328    -1.3269    -0.0469 N.2     
  16 C16            2.2779    -0.5199    -0.4215 C.2     
  17 C17            3.6416    -3.0577     1.7636 C.3     
  18 C18           -9.7827     1.2428     0.1633 C.ar    
  19 C19          -10.7302     1.5054     1.1546 C.ar    
  20 C20          -12.1559    -0.1841     0.2306 C.ar    
  21 C21          -11.2187    -0.4485    -0.7561 C.ar    
  22 C22          -10.0357     0.2585    -0.7941 C.ar    
  23 C23          -11.9099     0.7924     1.1833 C.ar    
  24 F24          -13.3137    -0.8795     0.2629 F       
  25 N25           -7.3102     1.3593     0.1818 N.pl3   
  26 C26           -7.2689    -0.1015     0.2836 C.3     
  27 C27           -7.1803    -0.5079     1.7560 C.3     
  28 C28           -7.1372    -2.0336     1.8623 C.3     
  29 O29           -7.0545    -2.4131     3.2375 O.3     
  30 C30           -8.5191     2.0080     0.1240 C.2     
  31 C31           -8.5372     3.3703     0.0293 C.2     
  32 C32           -7.3088     4.0694    -0.0062 C.2     
  33 N33           -6.1547     3.3909     0.0585 N.2     
  34 O34           -7.2993     5.2886    -0.0912 O.2     
  35 C35           -7.0085    -3.8256     3.4489 C.3     
  36 H36           -1.1748    -1.7893     0.4695 H       
  37 H37           -3.3235    -0.6044     0.3627 H       
  38 H38           -1.2383     3.1426     0.1298 H       
  39 H39           -4.8482     0.2884     0.2838 H       
  40 H40           -3.7277     3.1361     0.0978 H       
  41 H41            0.5119     3.8980     0.9821 H       
  42 H42            2.0597     3.9367     0.1040 H       
  43 H43            0.5312     3.7736    -0.7934 H       
  44 H44            0.9733    -2.0020     2.1506 H       
  45 H45            2.3202     0.1613    -1.2586 H       
  46 H46            3.4596    -4.0396     1.3266 H       
  47 H47            4.7011    -2.8148     1.6827 H       
  48 H48            3.3504    -3.0679     2.8140 H       
  49 H49          -10.5393     2.2655     1.8978 H       
  50 H50          -11.4155    -1.2101    -1.4962 H       
  51 H51           -9.3063     0.0517    -1.5632 H       
  52 H52          -12.6435     0.9947     1.9496 H       
  53 H53           -8.1736    -0.5221    -0.1556 H       
  54 H54           -6.3967    -0.4785    -0.2505 H       
  55 H55           -6.2757    -0.0874     2.1952 H       
  56 H56           -8.0526    -0.1309     2.2900 H       
  57 H57           -8.0419    -2.4541     1.4231 H       
  58 H58           -6.2650    -2.4105     1.3283 H       
  59 H59           -9.4745     3.9048    -0.0180 H       
  60 H60           -6.9464    -4.0312     4.5175 H       
  61 H61           -7.9105    -4.2833     3.0426 H       
  62 H62           -6.1336    -4.2397     2.9478 H       
@<TRIPOS>BOND
   1    1    2 ar
   2    1   10 1
   3    1    6 ar
   4    2    3 ar
   5    2   13 1
   6    3    4 ar
   7    3   36 1
   8    4    5 ar
   9    4   37 1
  10    5    6 ar
  11    5    8 1
  12    6   38 1
  13    7    8 2
  14    7    9 1
  15    7   39 1
  16    8   40 1
  17    9   25 1
  18    9   33 2
  19   10   11 1
  20   11   41 1
  21   11   42 1
  22   11   43 1
  23   12   13 1
  24   12   14 2
  25   12   44 1
  26   13   16 1
  27   14   15 1
  28   14   17 1
  29   15   16 2
  30   16   45 1
  31   17   46 1
  32   17   47 1
  33   17   48 1
  34   18   19 ar
  35   18   22 ar
  36   18   30 1
  37   19   23 ar
  38   19   49 1
  39   20   21 ar
  40   20   24 1
  41   20   23 ar
  42   21   22 ar
  43   21   50 1
  44   22   51 1
  45   23   52 1
  46   25   26 1
  47   25   30 1
  48   26   27 1
  49   26   53 1
  50   26   54 1
  51   27   28 1
  52   27   55 1
  53   27   56 1
  54   28   29 1
  55   28   57 1
  56   28   58 1
  57   29   35 1
  58   30   31 2
  59   31   32 1
  60   31   59 1
  61   32   33 1
  62   32   34 2
  63   35   60 1
  64   35   61 1
  65   35   62 1

#	End of record

