#	Name: ASD01420126
#	Creating user name:	WinNT
#	Creation time:	15. 06. 2019 19:20

#	Modifying user name:	WinNT
#	Modification time:	15. 06. 2019 19:20

#	Program:	/corina/corina34_cracker 3.40 0067  02.08.2006

@<TRIPOS>MOLECULE
ASD01420126
  57   60    0    0    0
SMALL
NO_CHARGES


@<TRIPOS>ATOM
   1 O1             1.6268     0.9329     0.9353 O.3     
   2 C2             1.3122    -0.3120     0.5213 C.ar    
   3 C3             0.5171    -0.1852    -0.6325 C.ar    
   4 C4             0.3873     1.2554    -0.8673 C.2     
   5 C5             1.0856     1.8613     0.1224 C.2     
   6 C6             1.6189    -1.5785     1.0062 C.ar    
   7 C7             1.1476    -2.6988     0.3617 C.ar    
   8 C8             0.3562    -2.5796    -0.7872 C.ar    
   9 C9             0.0396    -1.3205    -1.2848 C.ar    
  10 C10            1.2326     3.3226     0.2861 C.ar    
  11 C11            0.1137     4.1530     0.1965 C.ar    
  12 C12            0.2550     5.5155     0.3503 C.ar    
  13 C13            1.5080     6.0626     0.5935 C.ar    
  14 C14            2.6234     5.2401     0.6832 C.ar    
  15 C15            2.4898     3.8760     0.5364 C.ar    
  16 O16            1.6432     7.4061     0.7435 O.3     
  17 C17           -0.3695     1.9269    -1.9843 C.3     
  18 C18            2.9603     7.9020     0.9915 C.3     
  19 C19            2.3018    10.1768     0.2034 C.3     
  20 C20            2.8846     9.3819     1.3759 C.3     
  21 O21            3.7538     7.7575    -0.1881 O.3     
  22 C22            3.2319     8.4406    -1.3297 C.3     
  23 C23            3.1673     9.9422    -1.0385 C.3     
  24 O24            2.0444     9.5354     2.5215 O.3     
  25 C25            4.1435     8.1931    -2.5333 C.3     
  26 O26            4.4858    10.4402    -0.8028 O.3     
  27 O27            2.2957    11.5689     0.5257 O.3     
  28 O28            4.1134     6.8062    -2.8763 O.3     
  29 C29           -0.1432    -3.7918    -1.4701 C.2     
  30 C30            0.1582    -4.9920    -0.9948 C.2     
  31 C31           -0.3509    -6.2278    -1.6911 C.3     
  32 H32            2.2291    -1.6831     1.8911 H       
  33 H33            1.3906    -3.6788     0.7450 H       
  34 H34           -0.5710    -1.2230    -2.1703 H       
  35 H35           -0.8610     3.7284     0.0067 H       
  36 H36           -0.6100     6.1585     0.2812 H       
  37 H37            3.5961     5.6694     0.8725 H       
  38 H38            3.3570     3.2366     0.6108 H       
  39 H39           -1.3685     2.1920    -1.6382 H       
  40 H40            0.1600     2.8289    -2.2911 H       
  41 H41           -0.4473     1.2454    -2.8314 H       
  42 H42            3.4138     7.3374     1.8061 H       
  43 H43            1.2833     9.8423     0.0065 H       
  44 H44            3.8847     9.7504     1.6045 H       
  45 H45            2.2309     8.0695    -1.5492 H       
  46 H46            2.7284    10.4600    -1.8914 H       
  47 H47            2.3539     9.0576     3.3032 H       
  48 H48            3.7957     8.7845    -3.3802 H       
  49 H49            5.1637     8.4831    -2.2821 H       
  50 H50            4.5196    11.3865    -0.6066 H       
  51 H51            1.7712    11.7893     1.3077 H       
  52 H52            4.6699     6.5760    -3.6329 H       
  53 H53           -0.7536    -3.6996    -2.3562 H       
  54 H54            0.7686    -5.0843    -0.1087 H       
  55 H55           -1.4408    -6.2153    -1.7027 H       
  56 H56            0.0232    -6.2483    -2.7146 H       
  57 H57           -0.0034    -7.1136    -1.1594 H       
@<TRIPOS>BOND
   1    1    2 1
   2    1    5 1
   3    2    3 ar
   4    2    6 ar
   5    3    4 1
   6    3    9 ar
   7    4    5 2
   8    4   17 1
   9    5   10 1
  10    6    7 ar
  11    6   32 1
  12    7    8 ar
  13    7   33 1
  14    8    9 ar
  15    8   29 1
  16    9   34 1
  17   10   11 ar
  18   10   15 ar
  19   11   12 ar
  20   11   35 1
  21   12   13 ar
  22   12   36 1
  23   13   14 ar
  24   13   16 1
  25   14   15 ar
  26   14   37 1
  27   15   38 1
  28   16   18 1
  29   17   39 1
  30   17   40 1
  31   17   41 1
  32   18   21 1
  33   18   20 1
  34   18   42 1
  35   19   20 1
  36   19   23 1
  37   19   27 1
  38   19   43 1
  39   20   24 1
  40   20   44 1
  41   21   22 1
  42   22   23 1
  43   22   25 1
  44   22   45 1
  45   23   26 1
  46   23   46 1
  47   24   47 1
  48   25   28 1
  49   25   48 1
  50   25   49 1
  51   26   50 1
  52   27   51 1
  53   28   52 1
  54   29   30 2
  55   29   53 1
  56   30   31 1
  57   30   54 1
  58   31   55 1
  59   31   56 1
  60   31   57 1

#	End of record

