#	Name: ASD03450002
#	Creating user name:	WinNT
#	Creation time:	15. 06. 2019 20:42

#	Modifying user name:	WinNT
#	Modification time:	15. 06. 2019 20:42

#	Program:	/corina/corina34_cracker 3.40 0067  02.08.2006

@<TRIPOS>MOLECULE
ASD03450002
  57   61    0    0    0
SMALL
NO_CHARGES


@<TRIPOS>ATOM
   1 C1            -0.0170     1.4053     0.0098 C.ar    
   2 C2             0.0021    -0.0041     0.0020 C.ar    
   3 C3            -1.1894    -0.7193     0.0708 C.ar    
   4 C4            -2.4069    -0.0310     0.1186 C.ar    
   5 C5            -2.4105     1.3873     0.0946 C.ar    
   6 C6            -1.1905     2.0855     0.0402 C.ar    
   7 C7            -3.6331    -0.7266     0.1885 C.ar    
   8 C8            -4.8150    -0.0227     0.2241 C.ar    
   9 C9            -4.8172     1.3686     0.1929 C.ar    
  10 C10           -3.6378     2.0758     0.1284 C.ar    
  11 C11            1.4189     1.9139    -0.0012 C.3     
  12 C12            2.2498     0.6869     0.3452 C.3     
  13 C13            1.3975    -0.4785    -0.1140 C.2     
  14 C14            1.6935     2.4532    -1.4027 C.3     
  15 C15            3.1823     2.7806    -1.5482 C.3     
  16 C16            3.9307     1.4788    -1.3834 C.2     
  17 C17            3.6620     0.6131    -0.1953 C.3     
  18 C18            4.5140     1.0951     1.0013 C.3     
  19 N19            3.6942     0.8233     2.1890 N.am    
  20 C20            2.4112     0.6010     1.8543 C.2     
  21 O21            4.7438     1.1389    -2.2090 O.2     
  22 O22            1.5164     0.3674     2.6389 O.2     
  23 O23            4.7779     2.4951     0.8905 O.3     
  24 C24            1.6094     3.0041     1.0552 C.3     
  25 C25            4.2079     0.7976     3.5608 C.3     
  26 C26            4.1085     2.1981     4.1688 C.3     
  27 O27            1.7778    -1.5656    -0.4944 O.2     
  28 H28            3.9127    -0.4215    -0.4297 H       
  29 O29           -3.6465    -2.0845     0.2201 O.3     
  30 S30            4.7445     2.1663     5.8674 S.o2    
  31 O31            3.8803     1.4158     6.7095 O.2     
  32 O32            6.1476     1.9411     5.8704 O.2     
  33 O33            4.5934     3.5997     6.3564 O.3     
  34 O34           -3.6583     3.4346     0.0969 O.3     
  35 S35           -3.6115     4.0864     1.4715 S.o2    
  36 O36           -3.9995     5.4766     1.2900 O.co2   
  37 O37           -4.5527     3.3622     2.3115 O.co2   
  38 O38           -2.2435     3.9594     1.9495 O.co2   
  39 H39           -1.1747    -1.7991     0.0867 H       
  40 H40           -1.1879     3.1654     0.0229 H       
  41 H41           -5.7524    -0.5565     0.2765 H       
  42 H42           -5.7567     1.9007     0.2194 H       
  43 H43            1.4136     1.7021    -2.1414 H       
  44 H44            1.1060     3.3568    -1.5651 H       
  45 H45            3.3772     3.2005    -2.5350 H       
  46 H46            3.4863     3.4860    -0.7749 H       
  47 H47            5.4483     0.5358     1.0503 H       
  48 H48            5.3093     2.8537     1.6144 H       
  49 H49            1.3606     2.6048     2.0384 H       
  50 H50            2.6472     3.3373     1.0504 H       
  51 H51            0.9562     3.8470     0.8295 H       
  52 H52            3.6188     0.1003     4.1564 H       
  53 H53            5.2500     0.4782     3.5526 H       
  54 H54            4.6977     2.8954     3.5733 H       
  55 H55            3.0664     2.5175     4.1770 H       
  56 H56           -3.6115    -2.4576     1.1115 H       
  57 H57            4.8969     3.7397     7.2638 H       
@<TRIPOS>BOND
   1    1    2 ar
   2    1   11 1
   3    1    6 ar
   4    2    3 ar
   5    2   13 1
   6    3    4 ar
   7    3   39 1
   8    4    5 ar
   9    4    7 ar
  10    5    6 ar
  11    5   10 ar
  12    6   40 1
  13    7    8 ar
  14    7   29 1
  15    8    9 ar
  16    8   41 1
  17    9   10 ar
  18    9   42 1
  19   10   34 1
  20   11   12 1
  21   11   14 1
  22   11   24 1
  23   12   13 1
  24   12   17 1
  25   12   20 1
  26   13   27 2
  27   14   15 1
  28   14   43 1
  29   14   44 1
  30   15   16 1
  31   15   45 1
  32   15   46 1
  33   16   17 1
  34   16   21 2
  35   17   28 1
  36   17   18 1
  37   18   19 1
  38   18   23 1
  39   18   47 1
  40   19   20 am
  41   19   25 1
  42   20   22 2
  43   23   48 1
  44   24   49 1
  45   24   50 1
  46   24   51 1
  47   25   26 1
  48   25   52 1
  49   25   53 1
  50   26   30 1
  51   26   54 1
  52   26   55 1
  53   29   56 1
  54   30   31 2
  55   30   32 2
  56   30   33 1
  57   33   57 1
  58   34   35 1
  59   35   36 ar
  60   35   37 ar
  61   35   38 ar

#	End of record

