#	Name: ASD01230238
#	Creating user name:	WinNT
#	Creation time:	15. 06. 2019 19:12

#	Modifying user name:	WinNT
#	Modification time:	15. 06. 2019 19:12

#	Program:	/corina/corina34_cracker 3.40 0067  02.08.2006

@<TRIPOS>MOLECULE
ASD01230238
  48   51    0    0    0
SMALL
NO_CHARGES


@<TRIPOS>ATOM
   1 S1             0.5415     1.3944     0.8658 S.o2    
   2 N2             0.1958    -0.1035     0.2734 N.am    
   3 C3             1.0536    -0.8910    -0.2418 C.2     
   4 N4             2.3944    -0.6188    -0.3396 N.pl3   
   5 C5             3.0441     0.3452     0.5414 C.3     
   6 C6             2.2901     1.6753     0.4834 C.3     
   7 C7             0.6215    -2.2415    -0.7897 C.3     
   8 C8             1.7468    -3.2354    -0.4913 C.3     
   9 C9             3.0373    -2.8350    -1.1937 C.3     
  10 C10            3.1559    -1.3265    -1.3742 C.3     
  11 C11           -0.6488    -2.6869    -0.1122 C.ar    
  12 C12           -1.7872    -2.9166    -0.8626 C.ar    
  13 C13           -2.9529    -3.3250    -0.2441 C.ar    
  14 C14           -2.9807    -3.5050     1.1314 C.ar    
  15 C15           -1.8367    -3.2743     1.8821 C.ar    
  16 C16           -0.6723    -2.8707     1.2580 C.ar    
  17 O17           -4.1262    -3.9063     1.7424 O.3     
  18 C18           -4.3524    -5.2409     1.8608 C.ar    
  19 C19           -5.5582    -5.6989     2.3728 C.ar    
  20 C20           -5.7857    -7.0560     2.4916 C.ar    
  21 C21           -4.8130    -7.9582     2.1013 C.ar    
  22 C22           -3.6109    -7.5046     1.5909 C.ar    
  23 C23           -3.3805    -6.1482     1.4646 C.ar    
  24 C24           -6.6182    -4.7163     2.7993 C.3     
  25 F25           -7.7337    -5.4121     3.2776 F       
  26 F26           -6.1119    -3.8943     3.8118 F       
  27 F27           -6.9932    -3.9303     1.7043 F       
  28 O28           -0.2793     2.2672     0.1018 O.2     
  29 O29            0.3557     1.2638     2.2685 O.2     
  30 H30            3.0358    -0.0332     1.5635 H       
  31 H31            4.0740     0.4968     0.2179 H       
  32 H32            2.3797     2.1006    -0.5162 H       
  33 H33            2.7150     2.3660     1.2118 H       
  34 H34            0.4640    -2.1718    -1.8660 H       
  35 H35            1.9204    -3.2660     0.5843 H       
  36 H36            1.4475    -4.2265    -0.8321 H       
  37 H37            3.8839    -3.1877    -0.6046 H       
  38 H38            3.0684    -3.3114    -2.1736 H       
  39 H39            2.7698    -1.0510    -2.3557 H       
  40 H40            4.2050    -1.0384    -1.3081 H       
  41 H41           -1.7651    -2.7763    -1.9332 H       
  42 H42           -3.8420    -3.5035    -0.8306 H       
  43 H43           -1.8557    -3.4137     2.9529 H       
  44 H44            0.2194    -2.6949     1.8413 H       
  45 H45           -6.7239    -7.4129     2.8900 H       
  46 H46           -4.9926    -9.0189     2.1957 H       
  47 H47           -2.8529    -8.2113     1.2868 H       
  48 H48           -2.4428    -5.7945     1.0620 H       
@<TRIPOS>BOND
   1    1    2 am
   2    1    6 1
   3    1   28 2
   4    1   29 2
   5    2    3 2
   6    3    4 1
   7    3    7 1
   8    4    5 1
   9    4   10 1
  10    5    6 1
  11    5   30 1
  12    5   31 1
  13    6   32 1
  14    6   33 1
  15    7    8 1
  16    7   11 1
  17    7   34 1
  18    8    9 1
  19    8   35 1
  20    8   36 1
  21    9   10 1
  22    9   37 1
  23    9   38 1
  24   10   39 1
  25   10   40 1
  26   11   12 ar
  27   11   16 ar
  28   12   13 ar
  29   12   41 1
  30   13   14 ar
  31   13   42 1
  32   14   15 ar
  33   14   17 1
  34   15   16 ar
  35   15   43 1
  36   16   44 1
  37   17   18 1
  38   18   19 ar
  39   18   23 ar
  40   19   20 ar
  41   19   24 1
  42   20   21 ar
  43   20   45 1
  44   21   22 ar
  45   21   46 1
  46   22   23 ar
  47   22   47 1
  48   23   48 1
  49   24   25 1
  50   24   26 1
  51   24   27 1

#	End of record

