#	Name: ASD04910001
#	Creating user name:	WinNT
#	Creation time:	15. 06. 2019 20:55

#	Modifying user name:	WinNT
#	Modification time:	15. 06. 2019 20:55

#	Program:	/corina/corina34_cracker 3.40 0067  02.08.2006

@<TRIPOS>MOLECULE
ASD04910001
  62   66    0    0    0
SMALL
NO_CHARGES


@<TRIPOS>ATOM
   1 O1            -0.0164     1.3548     0.0095 O.3     
   2 C2             0.0021    -0.0041     0.0020 C.ar    
   3 C3             0.0230    -0.7052     1.1987 C.ar    
   4 C4             0.0417    -2.0867     1.1884 C.ar    
   5 C5             0.0397    -2.7702    -0.0132 C.ar    
   6 C6             0.0193    -2.0736    -1.2076 C.ar    
   7 C7            -0.0057    -0.6926    -1.2026 C.ar    
   8 C8             0.0177    -2.8219    -2.5157 C.3     
   9 C9             1.2622    -3.6691    -2.6031 C.2     
  10 C10            1.2082    -4.9988    -2.3774 C.2     
  11 C11            2.4513    -5.8505    -2.4502 C.3     
  12 C12            3.4240    -5.2539    -3.4699 C.3     
  13 C13            3.7547    -3.8194    -3.0450 C.3     
  14 C14            2.4754    -3.0367    -2.9269 C.2     
  15 O15            2.4909    -1.8363    -3.1146 O.2     
  16 C16            4.6870    -6.0753    -3.5055 C.ar    
  17 C17            5.0811    -6.6859    -4.6815 C.ar    
  18 C18            6.2393    -7.4394    -4.7148 C.ar    
  19 C19            7.0044    -7.5824    -3.5710 C.ar    
  20 C20            6.6094    -6.9710    -2.3944 C.ar    
  21 C21            5.4540    -6.2132    -2.3637 C.ar    
  22 Cl22           8.4590    -8.5290    -3.6119 Cl      
  23 N23            0.0175    -5.6052    -2.0789 N.pl3   
  24 C24           -1.1690    -4.9953    -2.3769 C.2     
  25 C25           -1.2175    -3.6701    -2.5965 C.2     
  26 C26           -2.4563    -3.0636    -2.9100 C.2     
  27 O27           -3.4651    -3.7406    -2.9786 O.2     
  28 O28           -2.5194    -1.7341    -3.1329 O.3     
  29 C29           -3.8030    -1.1888    -3.4444 C.3     
  30 C30           -3.8923     0.2652    -2.9490 C.3     
  31 C31           -4.1426     1.1406    -4.1944 C.3     
  32 C32           -4.7809     0.1699    -5.2188 C.3     
  33 C33           -4.0022    -1.1464    -4.9736 C.3     
  34 C34           -2.4314    -5.8143    -2.4594 C.3     
  35 H35            0.8616     1.7601     0.0033 H       
  36 H36            0.0249    -0.1716     2.1377 H       
  37 H37            0.0583    -2.6330     2.1199 H       
  38 H38            0.0544    -3.8501    -0.0191 H       
  39 H39           -0.0220    -0.1489    -2.1357 H       
  40 H40            0.0137    -2.1059    -3.3375 H       
  41 H41            2.9274    -5.8824    -1.4701 H       
  42 H42            2.1812    -6.8616    -2.7549 H       
  43 H43            2.9609    -5.2460    -4.4566 H       
  44 H44            4.2645    -3.8326    -2.0816 H       
  45 H45            4.3979    -3.3563    -3.7933 H       
  46 H46            4.4836    -6.5745    -5.5743 H       
  47 H47            6.5469    -7.9166    -5.6335 H       
  48 H48            7.2062    -7.0823    -1.5011 H       
  49 H49            5.1456    -5.7359    -1.4453 H       
  50 H50            0.0159    -6.4762    -1.6521 H       
  51 H51           -4.5860    -1.7897    -2.9817 H       
  52 H52           -4.7192     0.3702    -2.2465 H       
  53 H53           -2.9566     0.5549    -2.4709 H       
  54 H54           -4.8306     1.9523    -3.9581 H       
  55 H55           -3.2021     1.5359    -4.5781 H       
  56 H56           -5.8427     0.0346    -5.0132 H       
  57 H57           -4.6259     0.5264    -6.2372 H       
  58 H58           -3.0390    -1.1204    -5.4832 H       
  59 H59           -4.5877    -2.0036    -5.3060 H       
  60 H60           -2.2005    -6.8595    -2.2534 H       
  61 H61           -3.1498    -5.4494    -1.7253 H       
  62 H62           -2.8568    -5.7264    -3.4590 H       
@<TRIPOS>BOND
   1    1    2 1
   2    1   35 1
   3    2    3 ar
   4    2    7 ar
   5    3    4 ar
   6    3   36 1
   7    4    5 ar
   8    4   37 1
   9    5    6 ar
  10    5   38 1
  11    6    7 ar
  12    6    8 1
  13    7   39 1
  14    8    9 1
  15    8   25 1
  16    8   40 1
  17    9   10 2
  18    9   14 1
  19   10   11 1
  20   10   23 1
  21   11   12 1
  22   11   41 1
  23   11   42 1
  24   12   13 1
  25   12   16 1
  26   12   43 1
  27   13   14 1
  28   13   44 1
  29   13   45 1
  30   14   15 2
  31   16   17 ar
  32   16   21 ar
  33   17   18 ar
  34   17   46 1
  35   18   19 ar
  36   18   47 1
  37   19   20 ar
  38   19   22 1
  39   20   21 ar
  40   20   48 1
  41   21   49 1
  42   23   24 1
  43   23   50 1
  44   24   25 2
  45   24   34 1
  46   25   26 1
  47   26   27 2
  48   26   28 1
  49   28   29 1
  50   29   30 1
  51   29   33 1
  52   29   51 1
  53   30   31 1
  54   30   52 1
  55   30   53 1
  56   31   32 1
  57   31   54 1
  58   31   55 1
  59   32   33 1
  60   32   56 1
  61   32   57 1
  62   33   58 1
  63   33   59 1
  64   34   60 1
  65   34   61 1
  66   34   62 1

#	End of record

