#	Name: ASD03740123
#	Creating user name:	WinNT
#	Creation time:	15. 06. 2019 20:46

#	Modifying user name:	WinNT
#	Modification time:	15. 06. 2019 20:46

#	Program:	/corina/corina34_cracker 3.40 0067  02.08.2006

@<TRIPOS>MOLECULE
ASD03740123
  42   45    0    0    0
SMALL
NO_CHARGES


@<TRIPOS>ATOM
   1 C1            -0.0168     1.3849     0.0097 C.ar    
   2 C2             0.0021    -0.0041     0.0020 C.ar    
   3 C3             1.1850    -0.6877    -0.0125 C.ar    
   4 C4             2.3894     0.0113    -0.0203 C.ar    
   5 C5             2.3718     1.4195    -0.0131 C.ar    
   6 C6             1.1486     2.0963     0.0023 C.ar    
   7 N7             3.7063    -0.3680    -0.0346 N.pl3   
   8 N8             4.5133     0.7743    -0.0364 N.2     
   9 C9             3.7704     1.8474    -0.0241 C.2     
  10 C10            4.1915    -1.7503    -0.0454 C.3     
  11 C11            4.3443    -2.2179    -1.4698 C.ar    
  12 C12            5.5441    -2.0357    -2.1320 C.ar    
  13 C13            5.6848    -2.4644    -3.4384 C.ar    
  14 C14            4.6247    -3.0760    -4.0834 C.ar    
  15 C15            3.4242    -3.2581    -3.4203 C.ar    
  16 C16            3.2865    -2.8340    -2.1120 C.ar    
  17 O17            4.2163     3.1315    -0.0222 O.3     
  18 Cl18           4.8005    -3.6142    -5.7245 Cl      
  19 C19            5.6318     3.3268    -0.0344 C.3     
  20 C20            5.9354     4.8029    -0.0303 C.ar    
  21 C21            6.0856     5.4740     1.1689 C.ar    
  22 C22            6.0690     5.4841    -1.2258 C.ar    
  23 C23            6.3478     6.8378    -1.2226 C.ar    
  24 C24            6.4927     7.5112    -0.0228 C.ar    
  25 C25            6.3640     6.8278     1.1733 C.ar    
  26 Cl26           6.8435     9.2114    -0.0181 Cl      
  27 H27           -0.9621     1.9071     0.0170 H       
  28 H28           -0.9296    -0.5502     0.0080 H       
  29 H29            1.1859    -1.7677    -0.0176 H       
  30 H30            1.1256     3.1760     0.0077 H       
  31 H31            5.1565    -1.8005     0.4590 H       
  32 H32            3.4771    -2.3902     0.4724 H       
  33 H33            6.3715    -1.5579    -1.6284 H       
  34 H34            6.6221    -2.3216    -3.9557 H       
  35 H35            2.5963    -3.7355    -3.9233 H       
  36 H36            2.3494    -2.9761    -1.5942 H       
  37 H37            6.0702     2.8632     0.8494 H       
  38 H38            6.0537     2.8716    -0.9305 H       
  39 H39            5.9852     4.9405     2.1025 H       
  40 H40            5.9558     4.9583    -2.1623 H       
  41 H41            6.4529     7.3698    -2.1567 H       
  42 H42            6.4767     7.3530     2.1103 H       
@<TRIPOS>BOND
   1    1    2 ar
   2    1    6 ar
   3    1   27 1
   4    2    3 ar
   5    2   28 1
   6    3    4 ar
   7    3   29 1
   8    4    5 ar
   9    4    7 1
  10    5    6 ar
  11    5    9 1
  12    6   30 1
  13    7    8 1
  14    7   10 1
  15    8    9 2
  16    9   17 1
  17   10   11 1
  18   10   31 1
  19   10   32 1
  20   11   12 ar
  21   11   16 ar
  22   12   13 ar
  23   12   33 1
  24   13   14 ar
  25   13   34 1
  26   14   15 ar
  27   14   18 1
  28   15   16 ar
  29   15   35 1
  30   16   36 1
  31   17   19 1
  32   19   20 1
  33   19   37 1
  34   19   38 1
  35   20   21 ar
  36   20   22 ar
  37   21   25 ar
  38   21   39 1
  39   22   23 ar
  40   22   40 1
  41   23   24 ar
  42   23   41 1
  43   24   25 ar
  44   24   26 1
  45   25   42 1

#	End of record

