#	Name: ASD03092897
#	Creating user name:	WinNT
#	Creation time:	15. 06. 2019 20:33

#	Modifying user name:	WinNT
#	Modification time:	15. 06. 2019 20:33

#	Program:	/corina/corina34_cracker 3.40 0067  02.08.2006

@<TRIPOS>MOLECULE
ASD03092897
  42   45    0    0    0
SMALL
NO_CHARGES


@<TRIPOS>ATOM
   1 N1            -0.8557    -1.3575    -1.0328 N.am    
   2 S2            -0.0905    -0.3506     0.0362 S.o2    
   3 O3            -0.1946     0.9603    -0.5024 O.2     
   4 O4            -0.5675    -0.7000     1.3283 O.2     
   5 C5             1.6218    -0.7651     0.0090 C.ar    
   6 C6             2.1109    -1.7285     0.8736 C.ar    
   7 C7             3.4501    -2.0581     0.8578 C.ar    
   8 C8             4.3132    -1.4171    -0.0341 C.ar    
   9 C9             3.8125    -0.4460    -0.9043 C.ar    
  10 C10            2.4701    -0.1299    -0.8808 C.ar    
  11 C11            5.7476    -1.7641    -0.0565 C.2     
  12 S12            6.7025    -2.1330    -1.4911 S.3     
  13 C13            8.1260    -2.3773    -0.4844 C.2     
  14 N14            7.8202    -2.1825     0.7643 N.2     
  15 C15            6.5758    -1.8506     1.0374 C.2     
  16 C16            6.1031    -1.5947     2.4180 C.ar    
  17 C17            5.2576    -0.5169     2.6797 C.ar    
  18 C18            4.8204    -0.2832     3.9673 C.ar    
  19 C19            5.2200    -1.1160     4.9987 C.ar    
  20 Cl20           4.6661    -0.8161     6.6164 Cl      
  21 C21            6.0593    -2.1875     4.7444 C.ar    
  22 C22            6.4974    -2.4341     3.4596 C.ar    
  23 C23            9.4666    -2.7488    -0.9833 C.ar    
  24 C24           10.5170    -2.9196    -0.0823 C.ar    
  25 C25           11.7677    -3.2681    -0.5637 C.ar    
  26 C26           11.9289    -3.4349    -1.9307 C.ar    
  27 C27           10.8417    -3.2495    -2.7717 C.ar    
  28 F28           10.9943    -3.4114    -4.1042 F       
  29 N29            9.6599    -2.9227    -2.2869 N.ar    
  30 H30           -0.3454    -2.0177    -1.5276 H       
  31 H31           -1.8148    -1.2899    -1.1613 H       
  32 H32            1.4424    -2.2233     1.5626 H       
  33 H33            3.8306    -2.8097     1.5336 H       
  34 H34            4.4742     0.0536    -1.5964 H       
  35 H35            2.0808     0.6179    -1.5559 H       
  36 H36            4.9459     0.1337     1.8761 H       
  37 H37            4.1656     0.5512     4.1711 H       
  38 H38            6.3682    -2.8338     5.5527 H       
  39 H39            7.1482    -3.2730     3.2616 H       
  40 H40           10.3573    -2.7816     0.9769 H       
  41 H41           12.5996    -3.4067     0.1109 H       
  42 H42           12.8921    -3.7063    -2.3368 H       
@<TRIPOS>BOND
   1    1    2 am
   2    1   30 1
   3    1   31 1
   4    2    3 2
   5    2    4 2
   6    2    5 1
   7    5   10 ar
   8    5    6 ar
   9    6    7 ar
  10    6   32 1
  11    7    8 ar
  12    7   33 1
  13    8    9 ar
  14    8   11 1
  15    9   10 ar
  16    9   34 1
  17   10   35 1
  18   11   15 2
  19   11   12 1
  20   12   13 1
  21   13   14 2
  22   13   23 1
  23   14   15 1
  24   15   16 1
  25   16   22 ar
  26   16   17 ar
  27   17   18 ar
  28   17   36 1
  29   18   19 ar
  30   18   37 1
  31   19   20 1
  32   19   21 ar
  33   21   22 ar
  34   21   38 1
  35   22   39 1
  36   23   29 ar
  37   23   24 ar
  38   24   25 ar
  39   24   40 1
  40   25   26 ar
  41   25   41 1
  42   26   27 ar
  43   26   42 1
  44   27   28 1
  45   27   29 ar

#	End of record

