#	Name: ASD07931078
#	Creating user name:	WinNT
#	Creation time:	15. 06. 2019 21:13

#	Modifying user name:	WinNT
#	Modification time:	15. 06. 2019 21:13

#	Program:	/corina/corina34_cracker 3.40 0067  02.08.2006

@<TRIPOS>MOLECULE
ASD07931078
  58   63    0    0    0
SMALL
NO_CHARGES


@<TRIPOS>ATOM
   1 C1            -0.0169     1.3965     0.0097 C.ar    
   2 N2             0.0021    -0.0041     0.0020 N.am    
   3 N3            -0.0766    -0.8097     1.1408 N.2     
   4 C4            -0.0352    -2.0721     0.8247 C.2     
   5 C5             0.0814    -2.1540    -0.6492 C.2     
   6 C6             0.0932    -0.7683    -1.1077 C.2     
   7 O7             0.1767    -0.3787    -2.2611 O.2     
   8 C8            -0.0765    -3.3451     1.5694 C.ar    
   9 C9            -0.0033    -4.5445     0.8414 C.ar    
  10 N10            0.1049    -4.5233    -0.5384 N.pl3   
  11 C11            0.1440    -3.3861    -1.2513 C.2     
  12 C12           -0.1842    -3.3729     2.9559 C.ar    
  13 C13           -0.2191    -4.5848     3.6148 C.ar    
  14 C14           -0.1472    -5.7693     2.8998 C.ar    
  15 C15           -0.0406    -5.7550     1.5245 C.ar    
  16 C16            1.1746     2.1084     0.0022 C.ar    
  17 C17            1.1527     3.4899     0.0093 C.ar    
  18 C18           -0.0539     4.1645     0.0240 C.ar    
  19 C19           -1.2440     3.4599     0.0316 C.ar    
  20 C20           -1.2301     2.0773     0.0191 C.ar    
  21 F21           -2.3924     1.3887     0.0265 F       
  22 C22            0.1790    -5.7997    -1.2536 C.3     
  23 C23           -1.2119    -6.2571    -1.6102 C.ar    
  24 C24           -1.8563    -5.7168    -2.7106 C.ar    
  25 C25           -3.1332    -6.1355    -3.0396 C.ar    
  26 C26           -3.7670    -7.0981    -2.2653 C.ar    
  27 C27           -3.1165    -7.6377    -1.1625 C.ar    
  28 C28           -1.8401    -7.2196    -0.8415 C.ar    
  29 F29           -1.2380    -4.7803    -3.4628 F       
  30 N30           -5.0563    -7.5229    -2.5942 N.3     
  31 C31           -5.5331    -8.5405    -1.6472 C.3     
  32 C32           -6.9745    -8.9206    -1.9939 C.3     
  33 N33           -7.0274    -9.4234    -3.3738 N.3     
  34 C34           -6.5507    -8.4058    -4.3207 C.3     
  35 C35           -5.1092    -8.0257    -3.9740 C.3     
  36 H36            0.2292    -3.4422    -2.3264 H       
  37 H37           -0.2399    -2.4501     3.5142 H       
  38 H38           -0.3023    -4.6100     4.6913 H       
  39 H39           -0.1749    -6.7131     3.4242 H       
  40 H40            0.0147    -6.6848     0.9779 H       
  41 H41            2.1180     1.5829    -0.0089 H       
  42 H42            2.0799     4.0438     0.0038 H       
  43 H43           -0.0673     5.2445     0.0299 H       
  44 H44           -2.1850     3.9899     0.0434 H       
  45 H45            0.7643    -5.6724    -2.1642 H       
  46 H46            0.6548    -6.5457    -0.6171 H       
  47 H47           -3.6364    -5.7139    -3.8973 H       
  48 H48           -3.6076    -8.3863    -0.5585 H       
  49 H49           -1.3347    -7.6395     0.0156 H       
  50 H50           -4.8982    -9.4241    -1.7128 H       
  51 H51           -5.4962    -8.1402    -0.6341 H       
  52 H52           -7.3204    -9.6963    -1.3107 H       
  53 H53           -7.6142    -8.0429    -1.9020 H       
  54 H54           -6.5011   -10.2792    -3.4673 H       
  55 H55           -6.5875    -8.8061    -5.3339 H       
  56 H56           -7.1855    -7.5222    -4.2552 H       
  57 H57           -4.7633    -7.2500    -4.6573 H       
  58 H58           -4.4695    -8.9034    -4.0660 H       
@<TRIPOS>BOND
   1    1    2 1
   2    1   16 ar
   3    1   20 ar
   4    2    3 1
   5    2    6 am
   6    3    4 2
   7    4    5 1
   8    4    8 1
   9    5    6 1
  10    5   11 2
  11    6    7 2
  12    8    9 ar
  13    8   12 ar
  14    9   10 1
  15    9   15 ar
  16   10   11 1
  17   10   22 1
  18   11   36 1
  19   12   13 ar
  20   12   37 1
  21   13   14 ar
  22   13   38 1
  23   14   15 ar
  24   14   39 1
  25   15   40 1
  26   16   17 ar
  27   16   41 1
  28   17   18 ar
  29   17   42 1
  30   18   19 ar
  31   18   43 1
  32   19   20 ar
  33   19   44 1
  34   20   21 1
  35   22   23 1
  36   22   45 1
  37   22   46 1
  38   23   24 ar
  39   23   28 ar
  40   24   25 ar
  41   24   29 1
  42   25   26 ar
  43   25   47 1
  44   26   27 ar
  45   26   30 1
  46   27   28 ar
  47   27   48 1
  48   28   49 1
  49   30   31 1
  50   30   35 1
  51   31   32 1
  52   31   50 1
  53   31   51 1
  54   32   33 1
  55   32   52 1
  56   32   53 1
  57   33   34 1
  58   33   54 1
  59   34   35 1
  60   34   55 1
  61   34   56 1
  62   35   57 1
  63   35   58 1

#	End of record

