#	Name: ASD03091071
#	Creating user name:	WinNT
#	Creation time:	15. 06. 2019 20:30

#	Modifying user name:	WinNT
#	Modification time:	15. 06. 2019 20:30

#	Program:	/corina/corina34_cracker 3.40 0067  02.08.2006

@<TRIPOS>MOLECULE
ASD03091071
  40   42    0    0    0
SMALL
NO_CHARGES


@<TRIPOS>ATOM
   1 C1            -0.0067     1.4072     0.0119 C.2     
   2 C2             0.0131    -0.0155    -0.0034 C.2     
   3 C3             1.3437    -0.3204    -0.0256 C.2     
   4 O4             1.9974     0.8513    -0.0227 O.3     
   5 N5             1.2362     1.7898    -0.0019 N.2     
   6 C6            -1.9361    -1.1413    -1.2113 C.2     
   7 C7            -1.1420    -0.9492     0.0041 C.2     
   8 O8            -2.8828    -1.9066    -1.2052 O.2     
   9 N9            -1.6187    -0.4710    -2.3366 N.am    
  10 C10           -1.4621    -1.6252     1.1388 C.2     
  11 N11           -0.7204    -1.4457     2.2740 N.pl3   
  12 C12           -1.0496    -2.1409     3.4410 C.ar    
  13 C13           -0.2972    -1.9596     4.5947 C.ar    
  14 C14           -0.6250    -2.6475     5.7464 C.ar    
  15 C15           -1.7018    -3.5168     5.7520 C.ar    
  16 C16           -2.4528    -3.6997     4.6040 C.ar    
  17 C17           -2.1332    -3.0102     3.4510 C.ar    
  18 Cl18          -2.1110    -4.3799     7.2016 Cl      
  19 C19           -2.3022    -0.7365    -3.5226 C.ar    
  20 C20           -2.5627     0.2797    -4.4409 C.ar    
  21 C21           -3.2413    -0.0244    -5.6026 C.ar    
  22 N22           -3.6419    -1.2576    -5.8491 N.ar    
  23 C23           -3.4146    -2.2465    -5.0052 C.ar    
  24 C24           -2.7378    -2.0263    -3.8237 C.ar    
  25 C25           -1.2251     2.2939     0.0331 C.3     
  26 H26            1.7823    -1.3072    -0.0420 H       
  27 H27           -0.9148     0.1963    -2.3215 H       
  28 H28           -2.3020    -2.3041     1.1442 H       
  29 H29            0.0339    -0.8359     2.2691 H       
  30 H30            0.5435    -1.2817     4.5908 H       
  31 H31           -0.0402    -2.5072     6.6435 H       
  32 H32           -3.2922    -4.3793     4.6110 H       
  33 H33           -2.7225    -3.1497     2.5568 H       
  34 H34           -2.2380     1.2910    -4.2453 H       
  35 H35           -3.4478     0.7565    -6.3195 H       
  36 H36           -3.7596    -3.2415    -5.2446 H       
  37 H37           -2.5514    -2.8409    -3.1394 H       
  38 H38           -1.5088     2.4968     1.0658 H       
  39 H39           -1.0001     3.2326    -0.4730 H       
  40 H40           -2.0475     1.7935    -0.4780 H       
@<TRIPOS>BOND
   1    1    2 1
   2    1    5 2
   3    1   25 1
   4    2    3 2
   5    2    7 1
   6    3    4 1
   7    3   26 1
   8    4    5 1
   9    6    7 1
  10    6    8 2
  11    6    9 am
  12    7   10 2
  13    9   19 1
  14    9   27 1
  15   10   11 1
  16   10   28 1
  17   11   12 1
  18   11   29 1
  19   12   13 ar
  20   12   17 ar
  21   13   14 ar
  22   13   30 1
  23   14   15 ar
  24   14   31 1
  25   15   16 ar
  26   15   18 1
  27   16   17 ar
  28   16   32 1
  29   17   33 1
  30   19   20 ar
  31   19   24 ar
  32   20   21 ar
  33   20   34 1
  34   21   22 ar
  35   21   35 1
  36   22   23 ar
  37   23   24 ar
  38   23   36 1
  39   24   37 1
  40   25   38 1
  41   25   39 1
  42   25   40 1

#	End of record

