#	Name: ASD01817049
#	Creating user name:	WinNT
#	Creation time:	15. 06. 2019 19:36

#	Modifying user name:	WinNT
#	Modification time:	15. 06. 2019 19:36

#	Program:	/corina/corina34_cracker 3.40 0067  02.08.2006

@<TRIPOS>MOLECULE
ASD01817049
  52   54    0    0    0
SMALL
NO_CHARGES


@<TRIPOS>ATOM
   1 C1            -0.0188     1.5328     0.0105 C.3     
   2 C2             0.0021    -0.0041     0.0020 C.3     
   3 C3             0.9723    -0.4805    -1.0829 C.3     
   4 C4             0.6012     0.1590    -2.4240 C.3     
   5 C5             0.5388     1.6845    -2.2472 C.3     
   6 C6             1.8156     2.1266    -1.4958 C.3     
   7 C7             1.4464     2.0262    -0.0009 C.3     
   8 N8            -0.5626     1.9730    -1.2970 N.am    
   9 C9            -1.7713     2.5084    -1.5596 C.2     
  10 O10           -2.5679     2.6812    -0.6584 O.2     
  11 O11           -2.0960     2.8517    -2.8203 O.3     
  12 N12            0.8944    -1.9428    -1.2004 N.3     
  13 C13            2.1428    -2.4946    -1.7434 C.3     
  14 C14            2.0237    -4.0161    -1.8508 C.3     
  15 C15            3.3943    -5.8957    -2.5758 C.2     
  16 C16            4.6508    -6.4511    -3.1223 C.ar    
  17 C17            4.7841    -7.8272    -3.3136 C.ar    
  18 C18            5.9591    -8.3389    -3.8243 C.ar    
  19 C19            7.0041    -7.4912    -4.1464 C.ar    
  20 C20            6.8784    -6.1261    -3.9593 C.ar    
  21 C21            5.7067    -5.6009    -3.4547 C.ar    
  22 O22            2.4745    -6.6380    -2.2920 O.2     
  23 N23            3.2687    -4.5664    -2.3923 N.am    
  24 H24           -0.5806     1.9307     0.8555 H       
  25 H25            0.4206     2.2031    -3.1986 H       
  26 C26           -3.4146     3.4228    -3.0291 C.3     
  27 C27           -3.6008     3.7471    -4.5127 C.3     
  28 H28            0.3329    -0.3701     0.9740 H       
  29 H29           -0.9980    -0.3816    -0.2112 H       
  30 H30            1.9883    -0.1927    -0.8126 H       
  31 H31            1.3561    -0.0916    -3.1693 H       
  32 H32           -0.3715    -0.2111    -2.7482 H       
  33 H33            2.6438     1.4572    -1.7281 H       
  34 H34            2.0723     3.1537    -1.7552 H       
  35 H35            1.5214     3.0039     0.4752 H       
  36 H36            2.0930     1.3073     0.5024 H       
  37 H37            0.6683    -2.3653    -0.3125 H       
  38 H38            2.3263    -2.0738    -2.7320 H       
  39 H39            2.9705    -2.2408    -1.0811 H       
  40 H40            1.8402    -4.4369    -0.8622 H       
  41 H41            1.1959    -4.2699    -2.5131 H       
  42 H42            3.9694    -8.4900    -3.0619 H       
  43 H43            6.0635    -9.4035    -3.9728 H       
  44 H44            7.9220    -7.8969    -4.5453 H       
  45 H45            7.6979    -5.4698    -4.2127 H       
  46 H46            5.6083    -4.5348    -3.3132 H       
  47 H47            4.0027    -3.9741    -2.6188 H       
  48 H48           -4.1744     2.7069    -2.7155 H       
  49 H49           -3.5120     4.3363    -2.4425 H       
  50 H50           -4.5906     4.1758    -4.6694 H       
  51 H51           -2.8410     4.4630    -4.8262 H       
  52 H52           -3.5034     2.8336    -5.0993 H       
@<TRIPOS>BOND
   1    1    2 1
   2    1    7 1
   3    1    8 1
   4    1   24 1
   5    2    3 1
   6    2   28 1
   7    2   29 1
   8    3    4 1
   9    3   12 1
  10    3   30 1
  11    4    5 1
  12    4   31 1
  13    4   32 1
  14    5    6 1
  15    5    8 1
  16    5   25 1
  17    6    7 1
  18    6   33 1
  19    6   34 1
  20    7   35 1
  21    7   36 1
  22    8    9 am
  23    9   10 2
  24    9   11 1
  25   11   26 1
  26   12   13 1
  27   12   37 1
  28   13   14 1
  29   13   38 1
  30   13   39 1
  31   14   23 1
  32   14   40 1
  33   14   41 1
  34   15   16 1
  35   15   22 2
  36   15   23 am
  37   16   17 ar
  38   16   21 ar
  39   17   18 ar
  40   17   42 1
  41   18   19 ar
  42   18   43 1
  43   19   20 ar
  44   19   44 1
  45   20   21 ar
  46   20   45 1
  47   21   46 1
  48   23   47 1
  49   26   27 1
  50   26   48 1
  51   26   49 1
  52   27   50 1
  53   27   51 1
  54   27   52 1

#	End of record

