#	Name: ASD07330013
#	Creating user name:	WinNT
#	Creation time:	15. 06. 2019 21:11

#	Modifying user name:	WinNT
#	Modification time:	15. 06. 2019 21:11

#	Program:	/corina/corina34_cracker 3.40 0067  02.08.2006

@<TRIPOS>MOLECULE
ASD07330013
  76   80    0    0    0
SMALL
NO_CHARGES


@<TRIPOS>ATOM
   1 F1             3.8447    -4.2316    -3.7447 F       
   2 C2             0.5186    -3.4982     0.8625 C.ar    
   3 C3             0.1706    -2.3561     0.1568 C.ar    
   4 N4             1.0024    -1.3447     0.0227 N.ar    
   5 C5             2.2182    -1.3707     0.5595 C.ar    
   6 C6             2.6381    -2.5040     1.2925 C.ar    
   7 C7             1.7708    -3.5858     1.4449 C.ar    
   8 N8             3.0758    -0.3298     0.4216 N.2     
   9 C9             4.2649    -0.3508     0.9440 C.2     
  10 N10            4.7491    -1.3975     1.6625 N.am    
  11 C11            3.9882    -2.4977     1.8708 C.2     
  12 O12            4.4061    -3.4440     2.5124 O.2     
  13 C13            6.0460    -1.3379     2.1914 C.ar    
  14 C14            7.0022    -0.5258     1.5963 C.ar    
  15 C15            8.2791    -0.4671     2.1179 C.ar    
  16 C16            8.6070    -1.2194     3.2367 C.ar    
  17 C17            7.6520    -2.0311     3.8318 C.ar    
  18 C18            6.3732    -2.0865     3.3142 C.ar    
  19 C19            5.1546     0.8487     0.7421 C.3     
  20 C20            6.0240     1.0537     1.9842 C.3     
  21 N21            6.0134     0.6289    -0.4243 N.am    
  22 C22            6.7640    -0.6223    -0.5558 C.3     
  23 C23            5.9848    -1.5881    -1.4110 C.ar    
  24 C24            6.5484    -2.0965    -2.5798 C.ar    
  25 C25            5.8232    -2.9897    -3.3665 C.ar    
  26 C26            4.5499    -3.3663    -2.9837 C.ar    
  27 C27            3.9954    -2.8568    -1.8201 C.ar    
  28 C28            4.7145    -1.9743    -1.0345 C.ar    
  29 B29            7.9954    -1.6641    -3.0092 Du      
  30 O30            8.9139    -1.1920    -2.0346 O.3     
  31 O31            8.3855    -1.7451    -4.3721 O.3     
  32 C32            6.1130     1.5777    -1.3762 C.2     
  33 C33            7.2215     1.5097    -2.3949 C.3     
  34 O34            5.3105     2.4863    -1.4131 O.2     
  35 C35            7.0984     2.6692    -3.3495 C.ar    
  36 C36            7.7389     3.8629    -3.0728 C.ar    
  37 C37            6.3497     2.5368    -4.5039 C.ar    
  38 C38            6.2364     3.5994    -5.3805 C.ar    
  39 C39            6.8731     4.7968    -5.1018 C.ar    
  40 C40            7.6271     4.9266    -3.9476 C.ar    
  41 F41            6.7630     5.8361    -5.9579 F       
  42 O42            9.8646    -1.1616     3.7496 O.3     
  43 C43           11.5880    -1.7675     5.3319 C.3     
  44 C44           10.1325    -1.9624     4.9025 C.3     
  45 C45            8.3203     6.2295    -3.6426 C.3     
  46 F46            9.0138     6.1167    -2.4328 F       
  47 F47            9.2209     6.5302    -4.6701 F       
  48 F48            7.3698     7.2510    -3.5418 F       
  49 H49           -0.1846    -4.3120     0.9606 H       
  50 H50           -0.8084    -2.2951    -0.2950 H       
  51 H51            2.0669    -4.4634     2.0004 H       
  52 H52            6.7472     0.0596     0.7252 H       
  53 H53            9.0231     0.1642     1.6549 H       
  54 H54            7.9079    -2.6167     4.7024 H       
  55 H55            5.6298    -2.7180     3.7777 H       
  56 H56            4.5397     1.7337     0.5788 H       
  57 H57            7.0758     1.0349     1.6987 H       
  58 H58            5.7879     2.0162     2.4381 H       
  59 H59            5.8277     0.2562     2.7008 H       
  60 H60            7.7282    -0.4203    -1.0223 H       
  61 H61            6.9219    -1.0568     0.4313 H       
  62 H62            6.2553    -3.3863    -4.2733 H       
  63 H63            2.9999    -3.1528    -1.5238 H       
  64 H64            4.2779    -1.5805    -0.1286 H       
  65 H65            9.8014    -1.0236    -2.3796 H       
  66 H66            9.2935    -1.4575    -4.5391 H       
  67 H67            8.1849     1.5577    -1.8872 H       
  68 H68            7.1490     0.5737    -2.9488 H       
  69 H69            8.3267     3.9640    -2.1724 H       
  70 H70            5.8535     1.6025    -4.7212 H       
  71 H71            5.6517     3.4956    -6.2826 H       
  72 H72           12.2498    -2.0675     4.5194 H       
  73 H73           11.7588    -0.7178     5.5709 H       
  74 H74           11.7923    -2.3783     6.2112 H       
  75 H75            9.4707    -1.6624     5.7150 H       
  76 H76            9.9616    -3.0121     4.6635 H       
@<TRIPOS>BOND
   1    1   26 1
   2    2    3 ar
   3    2    7 ar
   4    2   49 1
   5    3    4 ar
   6    3   50 1
   7    4    5 ar
   8    5    6 ar
   9    5    8 1
  10    6    7 ar
  11    6   11 1
  12    7   51 1
  13    8    9 2
  14    9   10 1
  15    9   19 1
  16   10   11 am
  17   10   13 1
  18   11   12 2
  19   13   14 ar
  20   13   18 ar
  21   14   15 ar
  22   14   52 1
  23   15   16 ar
  24   15   53 1
  25   16   17 ar
  26   16   42 1
  27   17   18 ar
  28   17   54 1
  29   18   55 1
  30   19   20 1
  31   19   21 1
  32   19   56 1
  33   20   57 1
  34   20   58 1
  35   20   59 1
  36   21   22 1
  37   21   32 am
  38   22   23 1
  39   22   60 1
  40   22   61 1
  41   23   24 ar
  42   23   28 ar
  43   24   25 ar
  44   24   29 1
  45   25   26 ar
  46   25   62 1
  47   26   27 ar
  48   27   28 ar
  49   27   63 1
  50   28   64 1
  51   29   30 1
  52   29   31 1
  53   30   65 1
  54   31   66 1
  55   32   33 1
  56   32   34 2
  57   33   35 1
  58   33   67 1
  59   33   68 1
  60   35   36 ar
  61   35   37 ar
  62   36   40 ar
  63   36   69 1
  64   37   38 ar
  65   37   70 1
  66   38   39 ar
  67   38   71 1
  68   39   40 ar
  69   39   41 1
  70   40   45 1
  71   42   44 1
  72   43   44 1
  73   43   72 1
  74   43   73 1
  75   43   74 1
  76   44   75 1
  77   44   76 1
  78   45   46 1
  79   45   47 1
  80   45   48 1

#	End of record

