#	Name: ASD07730032
#	Creating user name:	WinNT
#	Creation time:	15. 06. 2019 21:11

#	Modifying user name:	WinNT
#	Modification time:	15. 06. 2019 21:11

#	Program:	/corina/corina34_cracker 3.40 0067  02.08.2006

@<TRIPOS>MOLECULE
ASD07730032
  34   36    0    0    0
SMALL
NO_CHARGES


@<TRIPOS>ATOM
   1 N1            -0.0162     1.3436     0.0094 N.am    
   2 C2             0.1081     0.0016     0.0196 C.2     
   3 O3             1.2082    -0.5077    -0.0717 O.2     
   4 N4            -0.9872    -0.7758     0.1310 N.am    
   5 C5            -0.8596    -2.1540     0.1414 C.2     
   6 N6             0.2722    -2.8046     0.0500 N.2     
   7 C7             0.0347    -4.1416     0.0931 C.ar    
   8 C8            -1.3543    -4.3104     0.2210 C.ar    
   9 N9            -1.8950    -3.0363     0.2545 N.pl3   
  10 C10            0.8616    -5.2661     0.0372 C.ar    
  11 C11            0.3091    -6.5254     0.1079 C.ar    
  12 C12           -1.0626    -6.6863     0.2336 C.ar    
  13 C13           -1.8931    -5.5860     0.2903 C.ar    
  14 C14           -3.3145    -2.6980     0.3838 C.3     
  15 C15            1.1262     2.1521    -0.0214 C.ar    
  16 C16            1.0795     3.4435     0.4905 C.ar    
  17 C17            2.2093     4.2385     0.4588 C.ar    
  18 C18            3.3851     3.7501    -0.0815 C.ar    
  19 C19            3.4342     2.4659    -0.5913 C.ar    
  20 C20            2.3096     1.6639    -0.5580 C.ar    
  21 Cl21          -0.3963     4.0570     1.1682 Cl      
  22 H22           -0.8973     1.7491     0.0194 H       
  23 H23           -1.8650    -0.3695     0.2038 H       
  24 H24            1.9306    -5.1481    -0.0614 H       
  25 H25            0.9489    -7.3945     0.0646 H       
  26 H26           -1.4834    -7.6795     0.2876 H       
  27 H27           -2.9606    -5.7181     0.3880 H       
  28 H28           -3.7639    -2.6316    -0.6070 H       
  29 H29           -3.8211    -3.4712     0.9614 H       
  30 H30           -3.4147    -1.7396     0.8932 H       
  31 H31            2.1741     5.2422     0.8559 H       
  32 H32            4.2667     4.3734    -0.1056 H       
  33 H33            4.3539     2.0877    -1.0125 H       
  34 H34            2.3502     0.6595    -0.9527 H       
@<TRIPOS>BOND
   1    1    2 am
   2    1   15 1
   3    1   22 1
   4    2    3 2
   5    2    4 am
   6    4    5 1
   7    4   23 1
   8    5    6 2
   9    5    9 1
  10    6    7 1
  11    7    8 ar
  12    7   10 ar
  13    8    9 1
  14    8   13 ar
  15    9   14 1
  16   10   11 ar
  17   10   24 1
  18   11   12 ar
  19   11   25 1
  20   12   13 ar
  21   12   26 1
  22   13   27 1
  23   14   28 1
  24   14   29 1
  25   14   30 1
  26   15   16 ar
  27   15   20 ar
  28   16   17 ar
  29   16   21 1
  30   17   18 ar
  31   17   31 1
  32   18   19 ar
  33   18   32 1
  34   19   20 ar
  35   19   33 1
  36   20   34 1

#	End of record

