#	Name: ASD02039161
#	Creating user name:	WinNT
#	Creation time:	15. 06. 2019 20:17

#	Modifying user name:	WinNT
#	Modification time:	15. 06. 2019 20:17

#	Program:	/corina/corina34_cracker 3.40 0067  02.08.2006

@<TRIPOS>MOLECULE
ASD02039161
  39   42    0    0    0
SMALL
NO_CHARGES


@<TRIPOS>ATOM
   1 N1             0.0020     1.2625     0.3689 N.2     
   2 C2             0.0063    -0.0135     0.0887 C.2     
   3 N3             1.2922    -0.3754    -0.1078 N.2     
   4 C4             1.9959     0.7160     0.0673 C.2     
   5 O5             1.1350     1.6954     0.3605 O.3     
   6 C6             3.4937     0.8428    -0.0409 C.3     
   7 O7             3.8480     1.1700    -1.3861 O.3     
   8 C8             5.1719     1.3214    -1.6562 C.ar    
   9 N9            -1.1051    -0.8435     0.0085 N.pl3   
  10 C10           -2.3901    -0.3050     0.1292 C.ar    
  11 C11           -2.6364     1.0030    -0.2681 C.ar    
  12 C12           -3.9072     1.5324    -0.1476 C.ar    
  13 C13           -4.9341     0.7596     0.3691 C.ar    
  14 C14           -4.6905    -0.5433     0.7652 C.ar    
  15 C15           -3.4233    -1.0790     0.6411 C.ar    
  16 C16            6.1100     1.1566    -0.6397 C.ar    
  17 C17            7.4550     1.3061    -0.8949 C.ar    
  18 C18            7.8877     1.6243    -2.1781 C.ar    
  19 C19            6.9434     1.7912    -3.2082 C.ar    
  20 C20            5.5801     1.6321    -2.9376 C.ar    
  21 N21            9.2311     1.7793    -2.4538 N.am    
  22 C22            9.6518     2.0877    -3.6929 C.2     
  23 C23            8.7455     2.2656    -4.7599 C.2     
  24 C24            7.4125     2.1270    -4.5539 C.2     
  25 O25           10.8460     2.2173    -3.8998 O.2     
  26 Cl26          -4.2166     3.1670    -0.6437 Cl      
  27 Cl27          -6.5294     1.4274     0.5205 Cl      
  28 H28            3.8410     1.6301     0.6281 H       
  29 H29            3.9594    -0.1025     0.2378 H       
  30 H30           -0.9897    -1.7964    -0.1312 H       
  31 H31           -1.8355     1.6057    -0.6703 H       
  32 H32           -5.4929    -1.1436     1.1678 H       
  33 H33           -3.2342    -2.0964     0.9503 H       
  34 H34            5.7793     0.9095     0.3583 H       
  35 H35            8.1736     1.1767    -0.0991 H       
  36 H36            4.8513     1.7591    -3.7244 H       
  37 H37            9.8812     1.6643    -1.7431 H       
  38 H38            9.1150     2.5130    -5.7441 H       
  39 H39            6.7120     2.2610    -5.3649 H       
@<TRIPOS>BOND
   1    1    2 2
   2    1    5 1
   3    2    3 1
   4    2    9 1
   5    3    4 2
   6    4    5 1
   7    4    6 1
   8    6    7 1
   9    6   28 1
  10    6   29 1
  11    7    8 1
  12    8   16 ar
  13    8   20 ar
  14    9   10 1
  15    9   30 1
  16   10   11 ar
  17   10   15 ar
  18   11   12 ar
  19   11   31 1
  20   12   13 ar
  21   12   26 1
  22   13   14 ar
  23   13   27 1
  24   14   15 ar
  25   14   32 1
  26   15   33 1
  27   16   17 ar
  28   16   34 1
  29   17   18 ar
  30   17   35 1
  31   18   19 ar
  32   18   21 1
  33   19   20 ar
  34   19   24 1
  35   20   36 1
  36   21   22 am
  37   21   37 1
  38   22   23 1
  39   22   25 2
  40   23   24 2
  41   23   38 1
  42   24   39 1

#	End of record

