#	Name: ASD03430593
#	Creating user name:	WinNT
#	Creation time:	15. 06. 2019 20:41

#	Modifying user name:	WinNT
#	Modification time:	15. 06. 2019 20:41

#	Program:	/corina/corina34_cracker 3.40 0067  02.08.2006

@<TRIPOS>MOLECULE
ASD03430593
  18   19    0    0    0
SMALL
NO_CHARGES


@<TRIPOS>ATOM
   1 O1            -0.0164     1.3569     0.0095 O.3     
   2 C2             0.0021    -0.0041     0.0020 C.ar    
   3 C3             1.1484    -0.6975    -0.3651 C.ar    
   4 O4             2.2821    -0.0318    -0.7204 O.3     
   5 C5             2.1356     1.3506    -1.0630 C.3     
   6 C6             1.2535     2.0180     0.0009 C.3     
   7 C7             1.1440    -2.0860    -0.3699 C.ar    
   8 C8             0.0004    -2.7765    -0.0081 C.ar    
   9 C9            -1.1396    -2.0850     0.3594 C.ar    
  10 C10           -1.1404    -0.7021     0.3652 C.ar    
  11 F11            2.2566    -2.7634    -0.7284 F       
  12 Br12          -2.6998    -3.0320     0.8541 Br      
  13 H13            3.1142     1.8302    -1.0829 H       
  14 H14            1.6623     1.4389    -2.0409 H       
  15 H15            1.1177     3.0718    -0.2425 H       
  16 H16            1.7236     1.9239     0.9799 H       
  17 H17           -0.0019    -3.8565    -0.0130 H       
  18 H18           -2.0320    -0.1647     0.6527 H       
@<TRIPOS>BOND
   1    1    2 1
   2    1    6 1
   3    2    3 ar
   4    2   10 ar
   5    3    4 1
   6    3    7 ar
   7    4    5 1
   8    5    6 1
   9    5   13 1
  10    5   14 1
  11    6   15 1
  12    6   16 1
  13    7    8 ar
  14    7   11 1
  15    8    9 ar
  16    8   17 1
  17    9   10 ar
  18    9   12 1
  19   10   18 1

#	End of record

