#	Name: ASD00990041
#	Creating user name:	WinNT
#	Creation time:	15. 06. 2019 18:54

#	Modifying user name:	WinNT
#	Modification time:	15. 06. 2019 18:54

#	Program:	/corina/corina34_cracker 3.40 0067  02.08.2006

@<TRIPOS>MOLECULE
ASD00990041
  38   39    0    0    0
SMALL
NO_CHARGES


@<TRIPOS>ATOM
   1 C1            -0.0170     1.4005     0.0097 C.ar    
   2 C2             0.0021    -0.0041     0.0020 C.ar    
   3 C3            -1.1910    -0.7139     0.0089 C.ar    
   4 C4            -2.3929    -0.0361     0.0234 C.ar    
   5 C5            -2.4165     1.3547     0.0311 C.ar    
   6 C6            -1.2422     2.0729     0.0301 C.ar    
   7 N7             1.2768     1.8142    -0.0004 N.2     
   8 C8             2.0664     0.7804    -0.0135 C.2     
   9 N9             1.3347    -0.3668    -0.0127 N.pl3   
  10 C10            3.5720     0.8442    -0.0280 C.3     
  11 N11            4.0412     0.9928    -1.4078 N.am    
  12 C12            4.2235     2.3292    -1.9796 C.3     
  13 Cl13          -3.9379     2.1906     0.0492 Cl      
  14 F14           -3.5536    -0.7274     0.0296 F       
  15 O15            4.7364     0.0366    -3.4193 O.3     
  16 C16            5.0009    -1.1836    -4.1607 C.3     
  17 C17            3.7191    -2.0143    -4.2495 C.3     
  18 C18            5.4784    -0.8303    -5.5706 C.3     
  19 C19            6.0837    -1.9918    -3.4430 C.3     
  20 C20            4.3052    -0.1000    -2.1512 C.2     
  21 O21            4.1540    -1.2085    -1.6770 O.2     
  22 H22           -1.1785    -1.7938     0.0026 H       
  23 H23           -1.2675     3.1525     0.0365 H       
  24 H24            1.6841    -1.2717    -0.0204 H       
  25 H25            3.9052     1.6973     0.5630 H       
  26 H26            3.9786    -0.0734     0.3972 H       
  27 H27            5.2414     2.6699    -1.7897 H       
  28 H28            4.0477     2.2915    -3.0547 H       
  29 H29            3.5173     3.0205    -1.5199 H       
  30 H30            2.9477    -1.4385    -4.7608 H       
  31 H31            3.9177    -2.9303    -4.8060 H       
  32 H32            3.3789    -2.2660    -3.2450 H       
  33 H33            6.3916    -0.2385    -5.5073 H       
  34 H34            5.6770    -1.7462    -6.1272 H       
  35 H35            4.7070    -0.2545    -6.0819 H       
  36 H36            5.7435    -2.2435    -2.4385 H       
  37 H37            6.2823    -2.9078    -3.9995 H       
  38 H38            6.9969    -1.4000    -3.3797 H       
@<TRIPOS>BOND
   1    1    2 ar
   2    1    7 1
   3    1    6 ar
   4    2    3 ar
   5    2    9 1
   6    3    4 ar
   7    3   22 1
   8    4    5 ar
   9    4   14 1
  10    5    6 ar
  11    5   13 1
  12    6   23 1
  13    7    8 2
  14    8    9 1
  15    8   10 1
  16    9   24 1
  17   10   11 1
  18   10   25 1
  19   10   26 1
  20   11   12 1
  21   11   20 am
  22   12   27 1
  23   12   28 1
  24   12   29 1
  25   15   16 1
  26   15   20 1
  27   16   17 1
  28   16   18 1
  29   16   19 1
  30   17   30 1
  31   17   31 1
  32   17   32 1
  33   18   33 1
  34   18   34 1
  35   18   35 1
  36   19   36 1
  37   19   37 1
  38   19   38 1
  39   20   21 2

#	End of record

