#	Name: ASD01814301
#	Creating user name:	WinNT
#	Creation time:	15. 06. 2019 19:32

#	Modifying user name:	WinNT
#	Modification time:	15. 06. 2019 19:32

#	Program:	/corina/corina34_cracker 3.40 0067  02.08.2006

@<TRIPOS>MOLECULE
ASD01814301
  49   53    0    0    0
SMALL
NO_CHARGES


@<TRIPOS>ATOM
   1 C1            -0.0168     1.3869     0.0097 C.ar    
   2 C2             0.0021    -0.0041     0.0020 C.ar    
   3 C3             1.1801    -0.6897    -0.0124 C.ar    
   4 C4             2.3948     0.0129    -0.0202 C.ar    
   5 C5             2.3717     1.4289    -0.0129 C.ar    
   6 C6             1.1455     2.1014     0.0024 C.ar    
   7 C7             3.6294    -0.6695    -0.0356 C.ar    
   8 C8             4.8032     0.0061    -0.0436 C.ar    
   9 C9             4.8361     1.4094    -0.0369 C.ar    
  10 C10            3.6406     2.1511    -0.0211 C.ar    
  11 C11            6.1027     2.1518    -0.0460 C.2     
  12 N12            6.0337     3.5033    -0.0390 N.am    
  13 C13            4.8295     4.1317    -0.0237 C.2     
  14 N14            3.6956     3.4935    -0.0159 N.2     
  15 C15            3.6424    -2.1764    -0.0428 C.3     
  16 C16            3.5088    -2.6732    -1.4593 C.ar    
  17 C17            4.6393    -2.8901    -2.2248 C.ar    
  18 C18            4.5175    -3.3457    -3.5240 C.ar    
  19 C19            3.2639    -3.5847    -4.0583 C.ar    
  20 C20            2.1329    -3.3674    -3.2917 C.ar    
  21 C21            2.2562    -2.9171    -1.9907 C.ar    
  22 O22            7.1744     1.5735    -0.0590 O.2     
  23 Cl23           3.1101    -4.1564    -5.6902 Cl      
  24 C24            7.2125     4.2596    -0.0472 C.ar    
  25 C25            7.8099     4.6296     1.1503 C.ar    
  26 C26            8.9727     5.3752     1.1388 C.ar    
  27 C27            9.5415     5.7533    -0.0633 C.ar    
  28 C28            8.9485     5.3867    -1.2578 C.ar    
  29 C29            7.7894     4.6361    -1.2532 C.ar    
  30 C30            7.1902     4.2188     2.4610 C.3     
  31 H31           -0.9630     1.9075     0.0169 H       
  32 H32           -0.9305    -0.5488     0.0080 H       
  33 H33            1.1786    -1.7697    -0.0175 H       
  34 H34            1.1188     3.1811     0.0081 H       
  35 H35            5.7316    -0.5454    -0.0551 H       
  36 H36            4.8124     5.2115    -0.0177 H       
  37 H37            4.5811    -2.5337     0.3806 H       
  38 H38            2.8096    -2.5498     0.5532 H       
  39 H39            5.6178    -2.7032    -1.8078 H       
  40 H40            5.4007    -3.5148    -4.1221 H       
  41 H41            1.1540    -3.5538    -3.7082 H       
  42 H42            1.3734    -2.7475    -1.3922 H       
  43 H43            9.4379     5.6633     2.0699 H       
  44 H44           10.4504     6.3365    -0.0696 H       
  45 H45            9.3948     5.6841    -2.1952 H       
  46 H46            7.3270     4.3498    -2.1863 H       
  47 H47            7.5951     3.2544     2.7679 H       
  48 H48            7.4176     4.9666     3.2207 H       
  49 H49            6.1096     4.1381     2.3426 H       
@<TRIPOS>BOND
   1    1    2 ar
   2    1    6 ar
   3    1   31 1
   4    2    3 ar
   5    2   32 1
   6    3    4 ar
   7    3   33 1
   8    4    5 ar
   9    4    7 ar
  10    5    6 ar
  11    5   10 ar
  12    6   34 1
  13    7    8 ar
  14    7   15 1
  15    8    9 ar
  16    8   35 1
  17    9   10 ar
  18    9   11 1
  19   10   14 1
  20   11   12 am
  21   11   22 2
  22   12   13 1
  23   12   24 1
  24   13   14 2
  25   13   36 1
  26   15   16 1
  27   15   37 1
  28   15   38 1
  29   16   17 ar
  30   16   21 ar
  31   17   18 ar
  32   17   39 1
  33   18   19 ar
  34   18   40 1
  35   19   20 ar
  36   19   23 1
  37   20   21 ar
  38   20   41 1
  39   21   42 1
  40   24   25 ar
  41   24   29 ar
  42   25   26 ar
  43   25   30 1
  44   26   27 ar
  45   26   43 1
  46   27   28 ar
  47   27   44 1
  48   28   29 ar
  49   28   45 1
  50   29   46 1
  51   30   47 1
  52   30   48 1
  53   30   49 1

#	End of record

