#	Name: ASD01882849
#	Creating user name:	WinNT
#	Creation time:	15. 06. 2019 19:45

#	Modifying user name:	WinNT
#	Modification time:	15. 06. 2019 19:45

#	Program:	/corina/corina34_cracker 3.40 0067  02.08.2006

@<TRIPOS>MOLECULE
ASD01882849
  36   39    0    0    0
SMALL
NO_CHARGES


@<TRIPOS>ATOM
   1 C1            -0.0231     1.3667     0.0138 C.ar    
   2 C2            -0.0152    -0.0238     0.0100 C.ar    
   3 C3             1.1846    -0.6990    -0.0023 C.ar    
   4 C4             2.3850    -0.0006    -0.0110 C.ar    
   5 C5             2.3984     1.3636    -0.0074 C.ar    
   6 C6             1.1916     2.0746     0.0050 C.ar    
   7 N7             0.8979     3.3904     0.0107 N.2     
   8 N8            -0.3766     3.5638     0.0220 N.2     
   9 N9            -1.0175     2.3159     0.0195 N.pl3   
  10 C10           -2.4620     2.0722     0.0296 C.3     
  11 C11           -2.9689     1.9980    -1.3876 C.ar    
  12 C12           -3.0051     0.7870    -2.0531 C.ar    
  13 N13           -3.4461     0.7089    -3.2924 N.ar    
  14 C14           -3.8710     1.7811    -3.9482 C.ar    
  15 C15           -3.8627     3.0340    -3.3378 C.ar    
  16 C16           -3.4092     3.1441    -2.0351 C.ar    
  17 C17           -4.3582     1.6454    -5.3421 C.ar    
  18 C18           -4.9121     2.7423    -5.9992 C.ar    
  19 C19           -5.3638     2.6113    -7.2965 C.ar    
  20 C20           -5.2679     1.3927    -7.9469 C.ar    
  21 C21           -4.7193     0.2986    -7.3006 C.ar    
  22 C22           -4.2585     0.4197    -6.0031 C.ar    
  23 F23           -3.7226    -0.6482    -5.3724 F       
  24 Cl24          -5.8385     1.2364    -9.5790 Cl      
  25 H25           -0.9460    -0.5716     0.0170 H       
  26 H26            1.1924    -1.7790    -0.0049 H       
  27 H27            3.3185    -0.5436    -0.0202 H       
  28 H28            3.3387     1.8948    -0.0139 H       
  29 H29           -2.6681     1.1308     0.5390 H       
  30 H30           -2.9641     2.8859     0.5530 H       
  31 H31           -2.6670    -0.1073    -1.5507 H       
  32 H32           -4.2085     3.9061    -3.8728 H       
  33 H33           -3.3911     4.1016    -1.5359 H       
  34 H34           -4.9882     3.6936    -5.4937 H       
  35 H35           -5.7934     3.4613    -7.8057 H       
  36 H36           -4.6475    -0.6498    -7.8121 H       
@<TRIPOS>BOND
   1    1    2 ar
   2    1    6 ar
   3    1    9 1
   4    2    3 ar
   5    2   25 1
   6    3    4 ar
   7    3   26 1
   8    4    5 ar
   9    4   27 1
  10    5    6 ar
  11    5   28 1
  12    6    7 1
  13    7    8 2
  14    8    9 1
  15    9   10 1
  16   10   11 1
  17   10   29 1
  18   10   30 1
  19   11   12 ar
  20   11   16 ar
  21   12   13 ar
  22   12   31 1
  23   13   14 ar
  24   14   15 ar
  25   14   17 1
  26   15   16 ar
  27   15   32 1
  28   16   33 1
  29   17   18 ar
  30   17   22 ar
  31   18   19 ar
  32   18   34 1
  33   19   20 ar
  34   19   35 1
  35   20   21 ar
  36   20   24 1
  37   21   22 ar
  38   21   36 1
  39   22   23 1

#	End of record

