#	Name: ASD08178019
#	Creating user name:	WinNT
#	Creation time:	15. 06. 2019 21:18

#	Modifying user name:	WinNT
#	Modification time:	15. 06. 2019 21:18

#	Program:	/corina/corina34_cracker 3.40 0067  02.08.2006

@<TRIPOS>MOLECULE
ASD08178019
  77   80    0    0    0
SMALL
NO_CHARGES


@<TRIPOS>ATOM
   1 C1            -0.0167     1.3781     0.0096 C.ar    
   2 C2             0.0021    -0.0041     0.0020 C.ar    
   3 C3             1.2084    -0.6789    -0.0132 C.ar    
   4 C4             2.3960     0.0285    -0.0212 C.ar    
   5 C5             2.3773     1.4107    -0.0145 C.ar    
   6 C6             1.1710     2.0855     0.0021 C.ar    
   7 O7             3.8242     4.2586    -1.1337 O.2     
   8 C8             3.7287     3.0551    -1.2497 C.2     
   9 C9             3.6720     2.1819    -0.0228 C.3     
  10 N10            3.8268     4.5994    -3.6119 N.2     
  11 C11            3.7257     3.3045    -3.6083 C.2     
  12 N12            3.6734     2.4987    -2.4760 N.am    
  13 N13            3.8611     5.1815    -4.7317 N.2     
  14 C14            3.7916     4.4248    -5.7806 C.2     
  15 S15            3.6666     2.7538    -5.2294 S.3     
  16 C16            3.7526     3.0567     1.2299 C.3     
  17 O17            3.8172     2.2103     2.4079 O.3     
  18 C18            3.8923     2.8268     3.5979 C.2     
  19 C19            3.9624     2.0136     4.8647 C.3     
  20 O20            3.9037     4.0337     3.6533 O.2     
  21 C21            3.8129     4.8886    -7.2143 C.3     
  22 C22            5.2581     4.9334    -7.7145 C.3     
  23 S23            5.2836     5.4917    -9.4402 S.3     
  24 C24            7.0514     5.4799    -9.8468 C.3     
  25 C25            7.2447     5.9344   -11.2949 C.3     
  26 C26            8.7134     5.9246   -11.6327 C.2     
  27 N27            9.3770     4.9279   -12.1264 N.2     
  28 N28           10.6065     5.1187   -12.3407 N.2     
  29 C29           11.0950     6.2867   -12.0505 C.2     
  30 S30            9.8357     7.2708   -11.4338 S.3     
  31 N31           12.4197     6.6757   -12.2180 N.am    
  32 C32           13.3187     5.8069   -12.7214 C.2     
  33 O33           12.9725     4.6858   -13.0284 O.2     
  34 C34           14.7541     6.2284   -12.9029 C.3     
  35 C35           15.5456     5.0818   -13.4774 C.ar    
  36 C36           15.6568     4.9367   -14.8476 C.ar    
  37 C37           16.1650     4.1784   -12.6341 C.ar    
  38 C38           16.8910     3.1267   -13.1611 C.ar    
  39 C39           16.9971     2.9781   -14.5314 C.ar    
  40 C40           16.3828     3.8850   -15.3746 C.ar    
  41 C41            4.0405     2.9529     6.0700 C.3     
  42 C42            2.7118     1.1396     4.9795 C.3     
  43 C43            5.2058     1.1228     4.8308 C.3     
  44 H44           -0.9592     1.9054     0.0170 H       
  45 H45           -0.9258    -0.5567     0.0083 H       
  46 H46            1.2231    -1.7588    -0.0184 H       
  47 H47            3.3386    -0.4987    -0.0324 H       
  48 H48            1.1563     3.1654     0.0069 H       
  49 H49            4.5100     1.4850    -0.0338 H       
  50 H50            3.5970     1.5361    -2.5689 H       
  51 H51            4.6454     3.6800     1.1810 H       
  52 H52            2.8687     3.6919     1.2869 H       
  53 H53            3.2370     4.1964    -7.8286 H       
  54 H54            3.3744     5.8843    -7.2805 H       
  55 H55            5.8339     5.6256    -7.1001 H       
  56 H56            5.6965     3.9377    -7.6482 H       
  57 H57            7.5824     6.1584    -9.1791 H       
  58 H58            7.4450     4.4705    -9.7272 H       
  59 H59            6.7138     5.2559   -11.9626 H       
  60 H60            6.8511     6.9438   -11.4145 H       
  61 H61           12.6967     7.5723   -11.9725 H       
  62 H62           14.7999     7.0785   -13.5835 H       
  63 H63           15.1742     6.5124   -11.9380 H       
  64 H64           15.1763     5.6449   -15.5064 H       
  65 H65           16.0820     4.2945   -11.5636 H       
  66 H66           17.3755     2.4213   -12.5023 H       
  67 H67           17.5646     2.1566   -14.9431 H       
  68 H68           16.4657     3.7689   -16.4451 H       
  69 H69            3.1547     3.5875     6.0941 H       
  70 H70            4.0912     2.3647     6.9863 H       
  71 H71            4.9314     3.5755     5.9881 H       
  72 H72            2.6561     0.4705     4.1209 H       
  73 H73            2.7625     0.5514     5.8958 H       
  74 H74            1.8260     1.7742     5.0037 H       
  75 H75            6.0967     1.7455     4.7490 H       
  76 H76            5.2565     0.5347     5.7471 H       
  77 H77            5.1501     0.4537     3.9722 H       
@<TRIPOS>BOND
   1    1    2 ar
   2    1    6 ar
   3    1   44 1
   4    2    3 ar
   5    2   45 1
   6    3    4 ar
   7    3   46 1
   8    4    5 ar
   9    4   47 1
  10    5    6 ar
  11    5    9 1
  12    6   48 1
  13    7    8 2
  14    8    9 1
  15    8   12 am
  16    9   16 1
  17    9   49 1
  18   10   11 2
  19   10   13 1
  20   11   12 1
  21   11   15 1
  22   12   50 1
  23   13   14 2
  24   14   15 1
  25   14   21 1
  26   16   17 1
  27   16   51 1
  28   16   52 1
  29   17   18 1
  30   18   19 1
  31   18   20 2
  32   19   41 1
  33   19   42 1
  34   19   43 1
  35   21   22 1
  36   21   53 1
  37   21   54 1
  38   22   23 1
  39   22   55 1
  40   22   56 1
  41   23   24 1
  42   24   25 1
  43   24   57 1
  44   24   58 1
  45   25   26 1
  46   25   59 1
  47   25   60 1
  48   26   27 2
  49   26   30 1
  50   27   28 1
  51   28   29 2
  52   29   30 1
  53   29   31 1
  54   31   32 am
  55   31   61 1
  56   32   33 2
  57   32   34 1
  58   34   35 1
  59   34   62 1
  60   34   63 1
  61   35   36 ar
  62   35   37 ar
  63   36   40 ar
  64   36   64 1
  65   37   38 ar
  66   37   65 1
  67   38   39 ar
  68   38   66 1
  69   39   40 ar
  70   39   67 1
  71   40   68 1
  72   41   69 1
  73   41   70 1
  74   41   71 1
  75   42   72 1
  76   42   73 1
  77   42   74 1
  78   43   75 1
  79   43   76 1
  80   43   77 1

#	End of record

