#	Name: ASD01870308
#	Creating user name:	WinNT
#	Creation time:	15. 06. 2019 19:39

#	Modifying user name:	WinNT
#	Modification time:	15. 06. 2019 19:39

#	Program:	/corina/corina34_cracker 3.40 0067  02.08.2006

@<TRIPOS>MOLECULE
ASD01870308
  43   46    0    0    0
SMALL
NO_CHARGES


@<TRIPOS>ATOM
   1 C1             0.0226     1.3513    -0.0787 C.ar    
   2 C2             0.0491    -0.0347    -0.0881 C.ar    
   3 C3             1.2537    -0.7125    -0.0871 C.ar    
   4 C4             2.4521    -0.0159    -0.0768 C.ar    
   5 C5             2.4411     1.3696    -0.0678 C.ar    
   6 C6             1.2126     2.0610    -0.0688 C.ar    
   7 C7             3.4907     2.4104    -0.0555 C.2     
   8 N8             2.8973     3.6176    -0.0503 N.am    
   9 C9             1.5573     3.4983    -0.0571 C.2     
  10 O10            0.7638     4.4176    -0.0540 O.2     
  11 O11            4.6884     2.2092    -0.0509 O.2     
  12 C12            3.5852     4.8402    -0.0381 C.ar    
  13 C13            4.9736     4.8552    -0.0311 C.ar    
  14 C14            5.6519     6.0577    -0.0192 C.ar    
  15 C15            4.9461     7.2532    -0.0141 C.ar    
  16 C16            3.5554     7.2391    -0.0211 C.ar    
  17 C17            2.8776     6.0345    -0.0388 C.ar    
  18 N18            5.6345     8.4733    -0.0015 N.am    
  19 C19            6.8046     8.5801     0.6587 C.2     
  20 C20            7.5861     9.8176     0.5701 C.2     
  21 O21            7.2126     7.6493     1.3285 O.2     
  22 C22            8.7815    10.0575     1.1851 C.2     
  23 C23            9.1659    11.3590     0.8262 C.2     
  24 C24            8.2006    11.8502     0.0182 C.2     
  25 O25            7.2531    10.9166    -0.1381 O.3     
  26 C26            9.5407     9.1090     2.0767 C.3     
  27 C27           -1.2445    -0.8077    -0.0989 C.3     
  28 F28            2.8676     8.4019    -0.0162 F       
  29 H29           -0.9216     1.8757    -0.0837 H       
  30 H30            1.2613    -1.7925    -0.0941 H       
  31 H31            3.3903    -0.5508    -0.0754 H       
  32 H32            5.5233     3.9256    -0.0347 H       
  33 H33            6.7318     6.0684    -0.0134 H       
  34 H34            1.7977     6.0225    -0.0487 H       
  35 H35            5.2689     9.2413    -0.4679 H       
  36 H36           10.0641    11.8715     1.1377 H       
  37 H37            8.1961    12.8323    -0.4310 H       
  38 H38           10.2200     8.5075     1.4726 H       
  39 H39           10.1131     9.6783     2.8091 H       
  40 H40            8.8382     8.4551     2.5934 H       
  41 H41           -1.5520    -0.9871    -1.1291 H       
  42 H42           -1.1020    -1.7615     0.4091 H       
  43 H43           -2.0151    -0.2337     0.4156 H       
@<TRIPOS>BOND
   1    1    2 ar
   2    1    6 ar
   3    1   29 1
   4    2    3 ar
   5    2   27 1
   6    3    4 ar
   7    3   30 1
   8    4    5 ar
   9    4   31 1
  10    5    7 1
  11    5    6 ar
  12    6    9 1
  13    7    8 am
  14    7   11 2
  15    8    9 am
  16    8   12 1
  17    9   10 2
  18   12   13 ar
  19   12   17 ar
  20   13   14 ar
  21   13   32 1
  22   14   15 ar
  23   14   33 1
  24   15   16 ar
  25   15   18 1
  26   16   17 ar
  27   16   28 1
  28   17   34 1
  29   18   19 am
  30   18   35 1
  31   19   20 1
  32   19   21 2
  33   20   22 2
  34   20   25 1
  35   22   23 1
  36   22   26 1
  37   23   24 2
  38   23   36 1
  39   24   25 1
  40   24   37 1
  41   26   38 1
  42   26   39 1
  43   26   40 1
  44   27   41 1
  45   27   42 1
  46   27   43 1

#	End of record

