#	Name: ASD01410619
#	Creating user name:	WinNT
#	Creation time:	15. 06. 2019 19:18

#	Modifying user name:	WinNT
#	Modification time:	15. 06. 2019 19:18

#	Program:	/corina/corina34_cracker 3.40 0067  02.08.2006

@<TRIPOS>MOLECULE
ASD01410619
  68   71    0    0    0
SMALL
NO_CHARGES


@<TRIPOS>ATOM
   1 C1            -0.0500    -0.8147     2.4089 C.ar    
   2 C2             0.6627    -1.2966     3.4979 C.ar    
   3 C3             2.0238    -1.4977     3.3792 C.ar    
   4 N4             2.6496    -1.2377     2.2472 N.ar    
   5 C5             2.0049    -0.7774     1.1876 C.ar    
   6 C6             0.6353    -0.5516     1.2354 C.ar    
   7 O7             2.6882    -0.5236     0.0433 O.3     
   8 C8             4.0377    -0.6890     0.0556 C.ar    
   9 C9             4.5793    -1.9674    -0.0073 C.ar    
  10 C10            5.9478    -2.1466     0.0045 C.ar    
  11 C11            6.7937    -1.0489     0.0799 C.ar    
  12 C12            6.2532     0.2445     0.1437 C.ar    
  13 C13            4.8669     0.4156     0.1250 C.ar    
  14 N14            8.1759    -1.2307     0.0927 N.am    
  15 C15            8.8574    -1.2985    -1.0680 C.2     
  16 C16            8.8875    -1.3479     1.3679 C.3     
  17 O17           10.0476    -1.5316    -1.0597 O.2     
  18 C18            8.1406    -1.0847    -2.3763 C.3     
  19 C19            8.8109    -1.9215    -3.4678 C.3     
  20 C20            8.0832    -1.7044    -4.7960 C.3     
  21 C21            8.1474    -0.2240    -5.1767 C.3     
  22 C22            7.4771     0.6128    -4.0852 C.3     
  23 C23            8.2048     0.3958    -2.7570 C.3     
  24 C24            7.4197    -0.0069    -6.5050 C.3     
  25 C25            8.9465    -2.7966     1.7789 C.ar    
  26 C26           10.0091    -3.5851     1.3777 C.ar    
  27 C27           10.0655    -4.9133     1.7531 C.ar    
  28 C28            9.0548    -5.4560     2.5333 C.ar    
  29 C29            7.9897    -4.6627     2.9345 C.ar    
  30 C30            7.9408    -3.3336     2.5612 C.ar    
  31 O31            9.1078    -6.7625     2.9035 O.3     
  32 C32            8.0327    -7.2533     3.7068 C.3     
  33 C33           -0.0949    -0.0272     0.0259 C.3     
  34 F34           -1.4539     0.1141     0.3265 F       
  35 F35            0.4345     1.2163    -0.3356 F       
  36 F36            0.0570    -0.9252    -1.0361 F       
  37 C37            7.1434     1.4164     0.2245 C.2     
  38 O38            8.3489     1.2640     0.2361 O.2     
  39 O39            6.6205     2.6569     0.2857 O.3     
  40 H40           -1.1158    -0.6528     2.4742 H       
  41 H41            0.1584    -1.5117     4.4284 H       
  42 H42            2.5832    -1.8722     4.2237 H       
  43 H43            3.9258    -2.8252    -0.0655 H       
  44 H44            6.3612    -3.1431    -0.0447 H       
  45 H45            4.4434     1.4079     0.1738 H       
  46 H46            9.9001    -0.9605     1.2558 H       
  47 H47            8.3616    -0.7748     2.1315 H       
  48 H48            7.0989    -1.3886    -2.2737 H       
  49 H49            9.8527    -1.6176    -3.5704 H       
  50 H50            8.7652    -2.9762    -3.1966 H       
  51 H51            8.5607    -2.3006    -5.5736 H       
  52 H52            7.0415    -2.0084    -4.6935 H       
  53 H53            9.1891     0.0800    -5.2793 H       
  54 H54            7.5228     1.6676    -4.3565 H       
  55 H55            6.4354     0.3089    -3.9827 H       
  56 H56            7.7273     0.9919    -1.9794 H       
  57 H57            9.2466     0.6997    -2.8596 H       
  58 H58            6.3780    -0.3108    -6.4024 H       
  59 H59            7.4654     1.0478    -6.7762 H       
  60 H60            7.8972    -0.6030    -7.2826 H       
  61 H61           10.7954    -3.1623     0.7700 H       
  62 H62           10.8955    -5.5289     1.4392 H       
  63 H63            7.2017    -5.0828     3.5419 H       
  64 H64            7.1118    -2.7156     2.8733 H       
  65 H65            7.9862    -6.6869     4.6370 H       
  66 H66            7.0935    -7.1402     3.1653 H       
  67 H67            8.1982    -8.3070     3.9309 H       
  68 H68            7.2440     3.3941     0.3376 H       
@<TRIPOS>BOND
   1    1    2 ar
   2    1    6 ar
   3    1   40 1
   4    2    3 ar
   5    2   41 1
   6    3    4 ar
   7    3   42 1
   8    4    5 ar
   9    5    6 ar
  10    5    7 1
  11    6   33 1
  12    7    8 1
  13    8    9 ar
  14    8   13 ar
  15    9   10 ar
  16    9   43 1
  17   10   11 ar
  18   10   44 1
  19   11   12 ar
  20   11   14 1
  21   12   13 ar
  22   12   37 1
  23   13   45 1
  24   14   15 am
  25   14   16 1
  26   15   17 2
  27   15   18 1
  28   16   25 1
  29   16   46 1
  30   16   47 1
  31   18   19 1
  32   18   23 1
  33   18   48 1
  34   19   20 1
  35   19   49 1
  36   19   50 1
  37   20   21 1
  38   20   51 1
  39   20   52 1
  40   21   22 1
  41   21   24 1
  42   21   53 1
  43   22   23 1
  44   22   54 1
  45   22   55 1
  46   23   56 1
  47   23   57 1
  48   24   58 1
  49   24   59 1
  50   24   60 1
  51   25   26 ar
  52   25   30 ar
  53   26   27 ar
  54   26   61 1
  55   27   28 ar
  56   27   62 1
  57   28   29 ar
  58   28   31 1
  59   29   30 ar
  60   29   63 1
  61   30   64 1
  62   31   32 1
  63   32   65 1
  64   32   66 1
  65   32   67 1
  66   33   34 1
  67   33   35 1
  68   33   36 1
  69   37   38 2
  70   37   39 1
  71   39   68 1

#	End of record

