#	Name: ASD01910068
#	Creating user name:	WinNT
#	Creation time:	15. 06. 2019 19:55

#	Modifying user name:	WinNT
#	Modification time:	15. 06. 2019 19:55

#	Program:	/corina/corina34_cracker 3.40 0067  02.08.2006

@<TRIPOS>MOLECULE
ASD01910068
  45   48    0    0    0
SMALL
NO_CHARGES


@<TRIPOS>ATOM
   1 N1            -0.0169     1.3963     0.0097 N.pl3   
   2 N2             0.0021    -0.0041     0.0020 N.2     
   3 C3            -1.2425    -0.4343     0.0124 C.2     
   4 C4            -2.0958     0.6918     0.0271 C.2     
   5 C5            -1.3168     1.8013     0.0303 C.2     
   6 C6             1.1057     2.2342     0.0035 C.ar    
   7 C7             2.3820     1.6873    -0.0121 C.ar    
   8 C8             3.4868     2.5161    -0.0187 C.ar    
   9 C9             3.3230     3.8891    -0.0097 C.ar    
  10 C10            2.0533     4.4368     0.0058 C.ar    
  11 C11            0.9444     3.6135     0.0072 C.ar    
  12 C12           -1.6733    -1.8534     0.0087 C.ar    
  13 N13           -3.5005     0.6662     0.0413 N.am    
  14 C14           -4.1954     1.8209     0.0545 C.2     
  15 C15           -5.6734     1.7939     0.0694 C.ar    
  16 O16           -3.6068     2.8847     0.0543 O.2     
  17 C17           -0.9385    -2.8057    -0.6954 C.ar    
  18 C18           -1.3438    -4.1249    -0.6949 C.ar    
  19 C19           -2.4773    -4.5027     0.0023 C.ar    
  20 C20           -3.2107    -3.5618     0.7025 C.ar    
  21 C21           -2.8113    -2.2408     0.7141 C.ar    
  22 C22           -6.3961     2.9880     0.0832 C.ar    
  23 C23           -7.7752     2.9558     0.0971 C.ar    
  24 C24           -8.4420     1.7435     0.0979 C.ar    
  25 C25           -7.7316     0.5562     0.0847 C.ar    
  26 C26           -6.3523     0.5744     0.0640 C.ar    
  27 N27           -9.9218     1.7165     0.1133 N.pl3   
  28 O28          -10.5499     2.7600     0.1253 O.2     
  29 O29          -10.5115     0.6508     0.1140 O.2     
  30 H30           -1.6649     2.8236     0.0410 H       
  31 H31            2.5106     0.6150    -0.0188 H       
  32 H32            4.4797     2.0913    -0.0305 H       
  33 H33            4.1885     4.5351    -0.0146 H       
  34 H34            1.9286     5.5096     0.0132 H       
  35 H35           -0.0469     4.0418     0.0193 H       
  36 H36           -3.9701    -0.1826     0.0415 H       
  37 H37           -0.0537    -2.5118    -1.2406 H       
  38 H38           -0.7752    -4.8637    -1.2401 H       
  39 H39           -2.7910    -5.5361    -0.0003 H       
  40 H40           -4.0950    -3.8622     1.2447 H       
  41 H41           -3.3846    -1.5070     1.2611 H       
  42 H42           -5.8768     3.9350     0.0833 H       
  43 H43           -8.3356     3.8790     0.1077 H       
  44 H44           -8.2581    -0.3867     0.0861 H       
  45 H45           -5.7990    -0.3531     0.0538 H       
@<TRIPOS>BOND
   1    1    2 1
   2    1    6 1
   3    1    5 1
   4    2    3 2
   5    3    4 1
   6    3   12 1
   7    4    5 2
   8    4   13 1
   9    5   30 1
  10    6    7 ar
  11    6   11 ar
  12    7    8 ar
  13    7   31 1
  14    8    9 ar
  15    8   32 1
  16    9   10 ar
  17    9   33 1
  18   10   11 ar
  19   10   34 1
  20   11   35 1
  21   12   17 ar
  22   12   21 ar
  23   13   14 am
  24   13   36 1
  25   14   15 1
  26   14   16 2
  27   15   22 ar
  28   15   26 ar
  29   17   18 ar
  30   17   37 1
  31   18   19 ar
  32   18   38 1
  33   19   20 ar
  34   19   39 1
  35   20   21 ar
  36   20   40 1
  37   21   41 1
  38   22   23 ar
  39   22   42 1
  40   23   24 ar
  41   23   43 1
  42   24   25 ar
  43   24   27 1
  44   25   26 ar
  45   25   44 1
  46   26   45 1
  47   27   28 2
  48   27   29 2

#	End of record

