#	Name: ASD01910227
#	Creating user name:	WinNT
#	Creation time:	15. 06. 2019 19:55

#	Modifying user name:	WinNT
#	Modification time:	15. 06. 2019 19:55

#	Program:	/corina/corina34_cracker 3.40 0067  02.08.2006

@<TRIPOS>MOLECULE
ASD01910227
  39   42    0    0    0
SMALL
NO_CHARGES


@<TRIPOS>ATOM
   1 C1             0.2021     1.1558    -0.0931 C.2     
   2 C2             1.3463     2.1360    -0.0631 C.3     
   3 C3             1.2770     3.0400    -1.2960 C.3     
   4 C4             2.4572     4.0143    -1.2834 C.3     
   5 C5             2.3737     4.8950    -0.0327 C.3     
   6 N6             2.2936     4.0288     1.1513 N.am    
   7 C7             1.2502     2.9955     1.2014 C.3     
   8 C8             3.1608     4.1790     2.1720 C.2     
   9 C9             2.9790     3.4052     3.4139 C.2     
  10 O10            4.0932     4.9529     2.0688 O.2     
  11 N11            0.2971    -0.1503    -0.1173 N.2     
  12 C12           -0.9757    -0.6067    -0.1377 C.2     
  13 N13           -1.7610     0.4390    -0.1247 N.2     
  14 O14           -1.1005     1.4558    -0.0942 O.3     
  15 C15           -1.4015    -2.0278    -0.1696 C.ar    
  16 C16           -2.7570    -2.3508    -0.1880 C.ar    
  17 C17           -3.1485    -3.6733    -0.2182 C.ar    
  18 C18           -2.1961    -4.6798    -0.2301 C.ar    
  19 C19           -0.8473    -4.3630    -0.2118 C.ar    
  20 C20           -0.4470    -3.0430    -0.1870 C.ar    
  21 F21           -2.5838    -5.9736    -0.2591 F       
  22 C22            3.8897     3.3781     4.4501 C.2     
  23 S23            3.1687     2.3332     5.6121 S.3     
  24 N24            1.8777     2.0269     4.7840 N.2     
  25 N25            1.9158     2.6530     3.6749 N.2     
  26 H26            2.2911     1.5925    -0.0632 H       
  27 H27            1.3204     2.4287    -2.1974 H       
  28 H28            0.3427     3.6012    -1.2827 H       
  29 H29            3.3917     3.4534    -1.2717 H       
  30 H30            2.4202     4.6421    -2.1736 H       
  31 H31            3.2629     5.5220     0.0327 H       
  32 H32            1.4844     5.5231    -0.0868 H       
  33 H33            0.2694     3.4686     1.2480 H       
  34 H34            1.3982     2.3691     2.0811 H       
  35 H35           -3.4999    -1.5670    -0.1784 H       
  36 H36           -4.1987    -3.9246    -0.2321 H       
  37 H37           -0.1082    -5.1505    -0.2212 H       
  38 H38            0.6045    -2.7969    -0.1728 H       
  39 H39            4.8365     3.8934     4.5165 H       
@<TRIPOS>BOND
   1    1   11 2
   2    1    2 1
   3    1   14 1
   4    2    3 1
   5    2    7 1
   6    2   26 1
   7    3    4 1
   8    3   27 1
   9    3   28 1
  10    4    5 1
  11    4   29 1
  12    4   30 1
  13    5    6 1
  14    5   31 1
  15    5   32 1
  16    6    7 1
  17    6    8 am
  18    7   33 1
  19    7   34 1
  20    8    9 1
  21    8   10 2
  22    9   22 2
  23    9   25 1
  24   11   12 1
  25   12   13 2
  26   12   15 1
  27   13   14 1
  28   15   16 ar
  29   15   20 ar
  30   16   17 ar
  31   16   35 1
  32   17   18 ar
  33   17   36 1
  34   18   19 ar
  35   18   21 1
  36   19   20 ar
  37   19   37 1
  38   20   38 1
  39   22   23 1
  40   22   39 1
  41   23   24 1
  42   24   25 2

#	End of record

