#	Name: ASD05380093
#	Creating user name:	WinNT
#	Creation time:	15. 06. 2019 20:59

#	Modifying user name:	WinNT
#	Modification time:	15. 06. 2019 20:59

#	Program:	/corina/corina34_cracker 3.40 0067  02.08.2006

@<TRIPOS>MOLECULE
ASD05380093
  46   50    0    0    0
SMALL
NO_CHARGES


@<TRIPOS>ATOM
   1 C1            -0.2258     1.5754    -0.3893 C.ar    
   2 C2            -0.0886     0.1880    -0.6184 C.ar    
   3 C3             0.7592     2.4567    -0.8295 C.ar    
   4 C4             1.8666     1.9637    -1.4893 C.ar    
   5 C5             2.0035     0.5988    -1.7163 C.ar    
   6 C6             1.0407    -0.2872    -1.2876 C.ar    
   7 N7            -1.0610    -0.6509    -0.1804 N.2     
   8 C8            -2.1111    -0.2096     0.4423 C.2     
   9 N9            -2.3257     1.1083     0.7054 N.am    
  10 C10           -1.4236     2.0424     0.3240 C.2     
  11 C11           -3.4872     1.5008     1.3825 C.ar    
  12 C12           -4.6417     1.7970     0.6693 C.ar    
  13 C13           -3.4883     1.5889     2.7677 C.ar    
  14 C14           -5.7850     2.2759     2.7180 C.ar    
  15 C15           -3.1452    -1.2072     0.8964 C.3     
  16 N16           -3.2468    -2.2876    -0.0878 N.pl3   
  17 C17           -4.4171    -3.0185    -0.1947 C.ar    
  18 N18           -5.4582    -2.7535     0.5877 N.ar    
  19 O19           -1.6023     3.2246     0.5530 O.2     
  20 C20           -4.5342    -4.0543    -1.1369 C.ar    
  21 C21           -5.7472    -4.7611    -1.1984 C.ar    
  22 N22           -6.7318    -4.4276    -0.3706 N.ar    
  23 C23           -6.5787    -3.4456     0.4928 C.ar    
  24 N24           -3.7137    -4.5871    -2.0740 N.2     
  25 C25           -4.3307    -5.5522    -2.6917 C.2     
  26 N26           -5.5888    -5.6986    -2.1876 N.pl3   
  27 C27           -2.7334    -1.7881     2.2507 C.3     
  28 C28           -5.7863     2.1834     1.3385 C.ar    
  29 F29            2.8248     2.8139    -1.9183 F       
  30 C30           -4.6376     1.9764     3.4334 C.ar    
  31 F31           -4.6405     2.0627     4.7816 F       
  32 H32            0.6568     3.5178    -0.6561 H       
  33 H33            2.8759     0.2290    -2.2344 H       
  34 H34            1.1579    -1.3453    -1.4696 H       
  35 H35           -4.6442     1.7255    -0.4084 H       
  36 H36           -2.5933     1.3549     3.3251 H       
  37 H37           -6.6813     2.5787     3.2389 H       
  38 H38           -4.1111    -0.7112     0.9924 H       
  39 H39           -2.4937    -2.4907    -0.6645 H       
  40 H40           -7.4003    -3.1972     1.1483 H       
  41 H41           -3.9083    -6.1491    -3.4865 H       
  42 H42           -6.2503    -6.3472    -2.4749 H       
  43 H43           -3.5251    -2.4382     2.6231 H       
  44 H44           -1.8150    -2.3636     2.1350 H       
  45 H45           -2.5667    -0.9763     2.9587 H       
  46 H46           -6.6824     2.4179     0.7831 H       
@<TRIPOS>BOND
   1    1    2 ar
   2    1    3 ar
   3    1   10 1
   4    2    7 1
   5    2    6 ar
   6    3    4 ar
   7    3   32 1
   8    4    5 ar
   9    4   29 1
  10    5    6 ar
  11    5   33 1
  12    6   34 1
  13    7    8 2
  14    8    9 1
  15    8   15 1
  16    9   10 am
  17    9   11 1
  18   10   19 2
  19   11   12 ar
  20   11   13 ar
  21   12   28 ar
  22   12   35 1
  23   13   30 ar
  24   13   36 1
  25   14   28 ar
  26   14   30 ar
  27   14   37 1
  28   15   16 1
  29   15   27 1
  30   15   38 1
  31   16   17 1
  32   16   39 1
  33   17   18 ar
  34   17   20 ar
  35   18   23 ar
  36   20   21 ar
  37   20   24 1
  38   21   22 ar
  39   21   26 1
  40   22   23 ar
  41   23   40 1
  42   24   25 2
  43   25   26 1
  44   25   41 1
  45   26   42 1
  46   27   43 1
  47   27   44 1
  48   27   45 1
  49   28   46 1
  50   30   31 1

#	End of record

