#	Name: ASD02038782
#	Creating user name:	WinNT
#	Creation time:	15. 06. 2019 20:17

#	Modifying user name:	WinNT
#	Modification time:	15. 06. 2019 20:17

#	Program:	/corina/corina34_cracker 3.40 0067  02.08.2006

@<TRIPOS>MOLECULE
ASD02038782
  46   48    0    0    0
SMALL
NO_CHARGES


@<TRIPOS>ATOM
   1 C1            -1.2778    -0.8478     0.4643 C.2     
   2 C2            -0.0605    -0.0342     0.3011 C.2     
   3 N3             1.1369    -0.6350     0.1536 N.am    
   4 C4             1.2418    -2.0930     0.2511 C.3     
   5 C5             1.2141    -2.6922    -1.1314 C.ar    
   6 C6             2.3335     0.1699    -0.1042 C.3     
   7 O7            -0.1361     1.1797     0.2994 O.2     
   8 N8            -1.3386    -2.2036     0.4955 N.2     
   9 C9            -2.5788    -2.5659     0.6537 C.2     
  10 N10           -3.3577    -1.4554     0.7296 N.pl3   
  11 C11           -2.5486    -0.3759     0.6176 C.2     
  12 C12            2.3980    -3.0146    -1.7687 C.ar    
  13 C13            2.1215     1.0140    -1.3647 C.3     
  14 C14            3.3445     1.9090    -1.5817 C.3     
  15 O15            3.5446     2.7279    -0.4278 O.3     
  16 C16            3.7947     1.9936     0.7724 C.3     
  17 C17            2.5899     1.1020     1.0840 C.3     
  18 C18           -4.8117    -1.4306     0.9071 C.3     
  19 C19            0.0054    -2.9244    -1.7593 C.ar    
  20 C20           -0.0198    -3.4751    -3.0297 C.ar    
  21 C21            1.1664    -3.7922    -3.6691 C.ar    
  22 C22            2.3742    -3.5638    -3.0369 C.ar    
  23 F23           -1.2011    -3.7030    -3.6444 F       
  24 C24            3.6656    -3.9085    -3.7328 C.3     
  25 F25            3.3869    -4.4408    -4.9962 F       
  26 F26            4.4418    -2.7531    -3.8745 F       
  27 F27            4.3671    -4.8514    -2.9739 F       
  28 H28            2.1777    -2.3578     0.7432 H       
  29 H29            0.4041    -2.4795     0.8315 H       
  30 H30            3.1916    -0.4873    -0.2455 H       
  31 H31           -2.9317    -3.5848     0.7144 H       
  32 H32           -2.8519     0.6605     0.6382 H       
  33 H33            3.3422    -2.8368    -1.2753 H       
  34 H34            1.9933     0.3575    -2.2254 H       
  35 H35            1.2334     1.6340    -1.2428 H       
  36 H36            4.2254     1.2879    -1.7439 H       
  37 H37            3.1810     2.5428    -2.4533 H       
  38 H38            4.6815     1.3736     0.6410 H       
  39 H39            3.9556     2.6884     1.5967 H       
  40 H40            1.7112     1.7238     1.2553 H       
  41 H41            2.7966     0.5085     1.9745 H       
  42 H42           -5.0475    -1.4061     1.9710 H       
  43 H43           -5.2217    -0.5439     0.4236 H       
  44 H44           -5.2478    -2.3233     0.4588 H       
  45 H45           -0.9194    -2.6770    -1.2594 H       
  46 H46            1.1480    -4.2217    -4.6598 H       
@<TRIPOS>BOND
   1    1    2 1
   2    1    8 1
   3    1   11 2
   4    2    3 am
   5    2    7 2
   6    3    4 1
   7    3    6 1
   8    4    5 1
   9    4   28 1
  10    4   29 1
  11    5   12 ar
  12    5   19 ar
  13    6   13 1
  14    6   17 1
  15    6   30 1
  16    8    9 2
  17    9   10 1
  18    9   31 1
  19   10   11 1
  20   10   18 1
  21   11   32 1
  22   12   22 ar
  23   12   33 1
  24   13   14 1
  25   13   34 1
  26   13   35 1
  27   14   15 1
  28   14   36 1
  29   14   37 1
  30   15   16 1
  31   16   17 1
  32   16   38 1
  33   16   39 1
  34   17   40 1
  35   17   41 1
  36   18   42 1
  37   18   43 1
  38   18   44 1
  39   19   20 ar
  40   19   45 1
  41   20   21 ar
  42   20   23 1
  43   21   22 ar
  44   21   46 1
  45   22   24 1
  46   24   25 1
  47   24   26 1
  48   24   27 1

#	End of record

