#	Name: ASD03091644
#	Creating user name:	WinNT
#	Creation time:	15. 06. 2019 20:31

#	Modifying user name:	WinNT
#	Modification time:	15. 06. 2019 20:31

#	Program:	/corina/corina34_cracker 3.40 0067  02.08.2006

@<TRIPOS>MOLECULE
ASD03091644
  22   23    0    0    0
SMALL
NO_CHARGES


@<TRIPOS>ATOM
   1 C1            -0.0161     1.3339     0.0094 C.2     
   2 C2             0.0021    -0.0041     0.0020 C.2     
   3 C3             1.2757    -0.5927    -0.0133 C.ar    
   4 C4             2.3069     0.3567    -0.0181 C.ar    
   5 S5             1.6171     1.9758    -0.0028 S.3     
   6 C6             3.6397    -0.0623    -0.0330 C.ar    
   7 C7             3.9429    -1.4084    -0.0436 C.ar    
   8 C8             2.9189    -2.3552    -0.0389 C.ar    
   9 C9             1.6175    -1.9670    -0.0235 C.ar    
  10 C10           -1.2339     2.1517     0.0198 C.2     
  11 O11           -2.3257     1.6165     0.0223 O.2     
  12 O12           -1.1425     3.4973     0.0267 O.3     
  13 O13            5.2399    -1.8117    -0.0591 O.3     
  14 C14            5.4813    -3.2202    -0.0694 C.3     
  15 H15           -0.9038    -0.5921     0.0079 H       
  16 H16            4.4344     0.6690    -0.0367 H       
  17 H17            3.1632    -3.4071    -0.0476 H       
  18 H18            0.8365    -2.7129    -0.0197 H       
  19 H19           -1.9724     3.9936     0.0335 H       
  20 H20            5.0452    -3.6700     0.8226 H       
  21 H21            5.0271    -3.6601    -0.9572 H       
  22 H22            6.5555    -3.4047    -0.0813 H       
@<TRIPOS>BOND
   1    1    2 2
   2    1    5 1
   3    1   10 1
   4    2    3 1
   5    2   15 1
   6    3    4 ar
   7    3    9 ar
   8    4    5 1
   9    4    6 ar
  10    6    7 ar
  11    6   16 1
  12    7    8 ar
  13    7   13 1
  14    8    9 ar
  15    8   17 1
  16    9   18 1
  17   10   11 2
  18   10   12 1
  19   12   19 1
  20   13   14 1
  21   14   20 1
  22   14   21 1
  23   14   22 1

#	End of record

