#	Name: ASD02030434
#	Creating user name:	WinNT
#	Creation time:	15. 06. 2019 20:15

#	Modifying user name:	WinNT
#	Modification time:	15. 06. 2019 20:15

#	Program:	/corina/corina34_cracker 3.40 0067  02.08.2006

@<TRIPOS>MOLECULE
ASD02030434
  20   21    0    0    0
SMALL
NO_CHARGES


@<TRIPOS>ATOM
   1 C1            -0.0169     1.3980     0.0097 C.ar    
   2 C2             0.0021    -0.0041     0.0020 C.ar    
   3 C3             1.1945    -0.6665    -0.0548 C.ar    
   4 C4             2.3908     0.0367    -0.0952 C.ar    
   5 C5             2.3968     1.4156    -0.0646 C.ar    
   6 C6             1.1966     2.1114     0.0020 C.ar    
   7 O7             1.1949     3.4630     0.0824 O.3     
   8 C8             0.1029     4.0922    -0.4066 C.2     
   9 C9            -1.2149     3.4774    -0.1626 C.2     
  10 C10           -1.2485     2.1018     0.0312 C.2     
  11 O11            0.2042     5.1332    -1.0282 O.2     
  12 C12           -2.4429     4.2866    -0.1253 C.2     
  13 O13           -3.5161     3.7535     0.0779 O.2     
  14 O14           -2.3778     5.6194    -0.3165 O.3     
  15 H15           -0.9240    -0.5584     0.0413 H       
  16 H16            1.2072    -1.7463    -0.0682 H       
  17 H17            3.3257    -0.5011    -0.1509 H       
  18 H18            3.3330     1.9533    -0.0918 H       
  19 H19           -2.1829     1.5847     0.1922 H       
  20 H20           -3.2111     6.1089    -0.2830 H       
@<TRIPOS>BOND
   1    1    2 ar
   2    1    6 ar
   3    1   10 1
   4    2    3 ar
   5    2   15 1
   6    3    4 ar
   7    3   16 1
   8    4    5 ar
   9    4   17 1
  10    5    6 ar
  11    5   18 1
  12    6    7 1
  13    7    8 1
  14    8    9 1
  15    8   11 2
  16    9   10 2
  17    9   12 1
  18   10   19 1
  19   12   13 2
  20   12   14 1
  21   14   20 1

#	End of record

