#	Name: ASD00840003
#	Creating user name:	WinNT
#	Creation time:	15. 06. 2019 18:37

#	Modifying user name:	WinNT
#	Modification time:	15. 06. 2019 18:37

#	Program:	/corina/corina34_cracker 3.40 0067  02.08.2006

@<TRIPOS>MOLECULE
ASD00840003
  42   45    0    0    0
SMALL
NO_CHARGES


@<TRIPOS>ATOM
   1 C1            -0.0170     1.4044     0.0098 C.ar    
   2 C2             0.0021    -0.0041     0.0020 C.ar    
   3 C3             1.2927    -0.7130    -0.0137 C.2     
   4 C4             2.4987    -0.0013    -0.0209 C.2     
   5 C5             2.5193     1.3727    -0.0137 C.2     
   6 O6             3.6928     2.0432    -0.0218 O.3     
   7 C7             3.6838     3.3959    -0.0154 C.ar    
   8 C8             4.8800     4.0950    -0.0235 C.ar    
   9 C9             4.8704     5.4828    -0.0165 C.ar    
  10 C10            3.6591     6.1822    -0.0009 C.ar    
  11 C11            2.4752     5.5126     0.0077 C.ar    
  12 C12            2.4617     4.1037    -0.0000 C.ar    
  13 N13            1.2921     3.4494     0.0086 N.2     
  14 C14            1.2632     2.1339     0.0015 C.2     
  15 C15           -1.2020    -0.7073     0.0098 C.ar    
  16 C16           -2.3973    -0.0192     0.0249 C.ar    
  17 C17           -2.4141     1.3668     0.0325 C.ar    
  18 C18           -1.2336     2.0814     0.0308 C.ar    
  19 O19            1.3115    -1.9337    -0.0200 O.2     
  20 N20            6.0707     6.1814    -0.0246 N.pl3   
  21 C21            6.0657     7.6464    -0.0173 C.3     
  22 C22            6.0778     8.1493     1.4276 C.3     
  23 C23            7.3419     5.4534    -0.0405 C.3     
  24 C24            7.7705     5.2070    -1.4884 C.3     
  25 H25            3.4324    -0.5439    -0.0320 H       
  26 H26            5.8185     3.5608    -0.0348 H       
  27 H27            3.6639     7.2622     0.0047 H       
  28 H28            1.5450     6.0611     0.0205 H       
  29 H29           -1.1987    -1.7873     0.0036 H       
  30 H30           -3.3289    -0.5655     0.0305 H       
  31 H31           -3.3581     1.8913     0.0444 H       
  32 H32           -1.2533     3.1612     0.0371 H       
  33 H33            6.9494     8.0154    -0.5379 H       
  34 H34            5.1695     8.0092    -0.5207 H       
  35 H35            6.0741     9.2392     1.4331 H       
  36 H36            5.1941     7.7803     1.9482 H       
  37 H37            6.9740     7.7865     1.9310 H       
  38 H38            8.1044     6.0425     0.4689 H       
  39 H39            7.2198     4.4980     0.4698 H       
  40 H40            7.0079     4.6179    -1.9979 H       
  41 H41            7.8926     6.1624    -1.9987 H       
  42 H42            8.7163     4.6653    -1.5002 H       
@<TRIPOS>BOND
   1    1    2 ar
   2    1   14 1
   3    1   18 ar
   4    2    3 1
   5    2   15 ar
   6    3    4 1
   7    3   19 2
   8    4    5 2
   9    4   25 1
  10    5    6 1
  11    5   14 1
  12    6    7 1
  13    7    8 ar
  14    7   12 ar
  15    8    9 ar
  16    8   26 1
  17    9   10 ar
  18    9   20 1
  19   10   11 ar
  20   10   27 1
  21   11   12 ar
  22   11   28 1
  23   12   13 1
  24   13   14 2
  25   15   16 ar
  26   15   29 1
  27   16   17 ar
  28   16   30 1
  29   17   18 ar
  30   17   31 1
  31   18   32 1
  32   20   21 1
  33   20   23 1
  34   21   22 1
  35   21   33 1
  36   21   34 1
  37   22   35 1
  38   22   36 1
  39   22   37 1
  40   23   24 1
  41   23   38 1
  42   23   39 1
  43   24   40 1
  44   24   41 1
  45   24   42 1

#	End of record

