#	Name: ASD05513043
#	Creating user name:	WinNT
#	Creation time:	15. 06. 2019 21:01

#	Modifying user name:	WinNT
#	Modification time:	15. 06. 2019 21:01

#	Program:	/corina/corina34_cracker 3.40 0067  02.08.2006

@<TRIPOS>MOLECULE
ASD05513043
  29   31    0    0    0
SMALL
NO_CHARGES


@<TRIPOS>ATOM
   1 C1            -0.0108     1.4057     0.4153 C.2     
   2 C2             0.0021    -0.0041     0.0020 C.2     
   3 C3             1.1832    -0.6673    -0.1155 C.2     
   4 C4             2.5227    -0.0873    -0.3457 C.ar    
   5 C5             3.4203    -1.1640    -0.3933 C.ar    
   6 N6             2.7247    -2.3554    -0.2089 N.am    
   7 C7             1.4105    -2.1346    -0.0339 C.2     
   8 C8             2.9805     1.2186    -0.5051 C.ar    
   9 C9             4.3260     1.4517    -0.7109 C.ar    
  10 C10            5.2150     0.3897    -0.7588 C.ar    
  11 C11            4.7704    -0.9083    -0.6010 C.ar    
  12 O12            0.5597    -2.9825     0.1493 O.2     
  13 O13            1.0190     1.9432     0.7758 O.2     
  14 C14           -1.2738     2.1725     0.3871 C.ar    
  15 C15           -2.4622     1.5688    -0.0303 C.ar    
  16 N16           -3.5871     2.2525    -0.0558 N.ar    
  17 C17           -3.6409     3.5199     0.3072 C.ar    
  18 C18           -2.5075     4.1904     0.7332 C.ar    
  19 C19           -1.3009     3.5162     0.7842 C.ar    
  20 Br20           4.9558     3.2214    -0.9281 Br      
  21 H21           -0.9266    -0.5136    -0.2085 H       
  22 H22            3.1368    -3.2335    -0.2033 H       
  23 H23            2.2863     2.0451    -0.4682 H       
  24 H24            6.2659     0.5790    -0.9204 H       
  25 H25            5.4737    -1.7270    -0.6404 H       
  26 H26           -2.4582     0.5327    -0.3351 H       
  27 H27           -4.5850     4.0430     0.2709 H       
  28 H28           -2.5655     5.2280     1.0272 H       
  29 H29           -0.4011     4.0150     1.1127 H       
@<TRIPOS>BOND
   1    1    2 1
   2    1   13 2
   3    1   14 1
   4    2    3 2
   5    2   21 1
   6    3    4 1
   7    3    7 1
   8    4    5 ar
   9    4    8 ar
  10    5    6 1
  11    5   11 ar
  12    6    7 am
  13    6   22 1
  14    7   12 2
  15    8    9 ar
  16    8   23 1
  17    9   10 ar
  18    9   20 1
  19   10   11 ar
  20   10   24 1
  21   11   25 1
  22   14   15 ar
  23   14   19 ar
  24   15   16 ar
  25   15   26 1
  26   16   17 ar
  27   17   18 ar
  28   17   27 1
  29   18   19 ar
  30   18   28 1
  31   19   29 1

#	End of record

