#	Name: ASD00842948
#	Creating user name:	WinNT
#	Creation time:	15. 06. 2019 18:45

#	Modifying user name:	WinNT
#	Modification time:	15. 06. 2019 18:45

#	Program:	/corina/corina34_cracker 3.40 0067  02.08.2006

@<TRIPOS>MOLECULE
ASD00842948
  85   90    0    0    0
SMALL
NO_CHARGES


@<TRIPOS>ATOM
   1 N1            -0.0050     1.3211     0.0356 N.ar    
   2 C2             0.0089    -0.0012     0.0186 C.ar    
   3 C3             1.2117    -0.6961    -0.0014 C.ar    
   4 C4             2.3994     0.0138    -0.0034 C.ar    
   5 C5             2.3418     1.4008     0.0148 C.ar    
   6 C6             1.1109     2.0254     0.0342 C.ar    
   7 C7             1.2227    -2.2030    -0.0203 C.3     
   8 C8             0.4753    -2.7240    -1.2293 C.2     
   9 N9             2.5989    -2.7053    -0.0115 N.am    
  10 C10            3.4472    -2.3639    -1.0016 C.2     
  11 N11            4.7405    -2.7378    -0.9396 N.am    
  12 O12            3.0456    -1.7188    -1.9507 O.2     
  13 C13            5.2673    -3.4167     0.2522 C.3     
  14 C14            6.4979    -2.6530     0.7512 C.3     
  15 C15            7.5066    -2.5163    -0.3916 C.3     
  16 C16            6.8768    -1.7215    -1.5378 C.3     
  17 C17            5.6491    -2.4797    -2.0650 C.3     
  18 C18            8.7519    -1.7842     0.1124 C.3     
  19 C19            9.3841    -2.5791     1.2582 C.3     
  20 C20           10.6624    -1.8739     1.7174 C.3     
  21 N21           11.5996    -1.7744     0.5913 N.3     
  22 C22           11.0326    -0.9753    -0.5024 C.3     
  23 C23            9.7654    -1.6537    -1.0279 C.3     
  24 H24           12.4867    -1.3989     0.8913 H       
  25 O25            0.7566    -2.5223    -2.3916 O.2     
  26 N26           -0.5573    -3.4523    -0.7734 N.am    
  27 C27            0.4470    -2.7533     1.1549 C.ar    
  28 C28           -0.6049    -3.4913     0.6173 C.ar    
  29 C29            0.6116    -2.6424     2.5123 C.ar    
  30 C30           -0.2873    -3.2777     3.3767 C.ar    
  31 C31           -1.3470    -4.0212     2.8434 C.ar    
  32 C32           -1.5008    -4.1261     1.4776 C.ar    
  33 F33           -2.2201    -4.6382     3.6693 F       
  34 C34           -1.0266    -5.8345    -2.0693 C.ar    
  35 C35           -1.3614    -6.8790    -1.2274 C.ar    
  36 C36           -0.2079    -6.0584    -3.1607 C.ar    
  37 C37            0.2777    -7.3269    -3.4127 C.ar    
  38 C38           -0.0567    -8.3766    -2.5695 C.ar    
  39 C39           -0.8780    -8.1492    -1.4748 C.ar    
  40 O40            0.4194    -9.6254    -2.8155 O.3     
  41 H41           -2.0011    -6.7016    -0.3755 H       
  42 C42            0.0340   -10.6576    -1.9055 C.3     
  43 O43           -1.1625    -0.6856     0.0212 O.3     
  44 C44           -2.3649     0.0864     0.0427 C.3     
  45 C45           -3.5735    -0.8518     0.0424 C.3     
  46 F46           -3.5485    -1.6441    -1.1103 F       
  47 F47           -3.5264    -1.6732     1.1739 F       
  48 C48           -0.1241    -3.1685     4.7952 C.1     
  49 N49            0.0054    -3.0819     5.9204 N.1     
  50 S50           -1.6503    -4.2169    -1.7548 S.o2    
  51 O51           -2.8323    -4.3853    -0.9842 O.2     
  52 O52           -1.6243    -3.5282    -2.9974 O.2     
  53 H53            3.3496    -0.4994    -0.0184 H       
  54 H54            3.2503     1.9848     0.0142 H       
  55 H55            1.0606     3.1042     0.0481 H       
  56 H56            2.8995    -3.2835     0.7070 H       
  57 H57            4.5052    -3.4309     1.0314 H       
  58 H58            5.5499    -4.4378    -0.0039 H       
  59 H59            6.1977    -1.6621     1.0919 H       
  60 H60            6.9550    -3.1989     1.5765 H       
  61 H61            7.7876    -3.5072    -0.7483 H       
  62 H62            6.5730    -0.7394    -1.1756 H       
  63 H63            7.6035    -1.6045    -2.3417 H       
  64 H64            5.9656    -3.4231    -2.5099 H       
  65 H65            5.1388    -1.8734    -2.8134 H       
  66 H66            8.4724    -0.7924     0.4680 H       
  67 H67            8.6825    -2.6389     2.0903 H       
  68 H68            9.6269    -3.5842     0.9133 H       
  69 H69           10.4170    -0.8739     2.0751 H       
  70 H70           11.1227    -2.4450     2.5236 H       
  71 H71           10.7854     0.0205    -0.1343 H       
  72 H72           11.7617    -0.8937    -1.3085 H       
  73 H73           10.0141    -2.6442    -1.4088 H       
  74 H74            9.3362    -1.0522    -1.8292 H       
  75 H75            1.4328    -2.0666     2.9129 H       
  76 H76           -2.3200    -4.7011     1.0716 H       
  77 H77            0.0518    -5.2410    -3.8171 H       
  78 H78            0.9169    -7.5013    -4.2656 H       
  79 H79           -1.1400    -8.9648    -0.8171 H       
  80 H80            0.3785   -10.4051    -0.9027 H       
  81 H81           -1.0518   -10.7533    -1.9034 H       
  82 H82            0.4813   -11.6017    -2.2164 H       
  83 H83           -2.3843     0.7037     0.9408 H       
  84 H84           -2.4015     0.7264    -0.8389 H       
  85 H85           -4.4906    -0.2629     0.0588 H       
@<TRIPOS>BOND
   1    1    2 ar
   2    1    6 ar
   3    2    3 ar
   4    2   43 1
   5    3    4 ar
   6    3    7 1
   7    4    5 ar
   8    4   53 1
   9    5    6 ar
  10    5   54 1
  11    6   55 1
  12    7    8 1
  13    7    9 1
  14    7   27 1
  15    8   25 2
  16    8   26 am
  17    9   10 am
  18    9   56 1
  19   10   11 am
  20   10   12 2
  21   11   13 1
  22   11   17 1
  23   13   14 1
  24   13   57 1
  25   13   58 1
  26   14   15 1
  27   14   59 1
  28   14   60 1
  29   15   16 1
  30   15   18 1
  31   15   61 1
  32   16   17 1
  33   16   62 1
  34   16   63 1
  35   17   64 1
  36   17   65 1
  37   18   19 1
  38   18   23 1
  39   18   66 1
  40   19   20 1
  41   19   67 1
  42   19   68 1
  43   20   21 1
  44   20   69 1
  45   20   70 1
  46   21   22 1
  47   21   24 1
  48   22   23 1
  49   22   71 1
  50   22   72 1
  51   23   73 1
  52   23   74 1
  53   26   50 am
  54   26   28 1
  55   27   28 ar
  56   27   29 ar
  57   28   32 ar
  58   29   30 ar
  59   29   75 1
  60   30   31 ar
  61   30   48 1
  62   31   32 ar
  63   31   33 1
  64   32   76 1
  65   34   35 ar
  66   34   36 ar
  67   34   50 1
  68   35   41 1
  69   35   39 ar
  70   36   37 ar
  71   36   77 1
  72   37   38 ar
  73   37   78 1
  74   38   39 ar
  75   38   40 1
  76   39   79 1
  77   40   42 1
  78   42   80 1
  79   42   81 1
  80   42   82 1
  81   43   44 1
  82   44   45 1
  83   44   83 1
  84   44   84 1
  85   45   46 1
  86   45   47 1
  87   45   85 1
  88   48   49 3
  89   50   51 2
  90   50   52 2

#	End of record

