#	Name: ASD01940564
#	Creating user name:	WinNT
#	Creation time:	15. 06. 2019 20:12

#	Modifying user name:	WinNT
#	Modification time:	15. 06. 2019 20:12

#	Program:	/corina/corina34_cracker 3.40 0067  02.08.2006

@<TRIPOS>MOLECULE
ASD01940564
  38   38    0    0    0
SMALL
NO_CHARGES


@<TRIPOS>ATOM
   1 C1            -0.0681     1.9242    -0.2181 C.3     
   2 S2            -0.0477     0.1165    -0.0681 S.o2    
   3 O3             0.7553    -0.2834     1.0339 O.2     
   4 O4            -1.3527    -0.4141    -0.2544 O.2     
   5 N5             0.7961    -0.3989    -1.3965 N.am    
   6 C6             2.1120     0.0322    -1.6003 C.ar    
   7 C7             2.5746     0.2783    -2.8916 C.ar    
   8 C8             3.8774     0.7046    -3.0871 C.ar    
   9 C9             4.7166     0.8852    -2.0025 C.ar    
  10 C10            4.2587     0.6413    -0.7214 C.ar    
  11 C11            2.9574     0.2210    -0.5172 C.ar    
  12 N12            4.3724     0.9665    -4.4573 N.pl3   
  13 O13            5.5184     1.3414    -4.6295 O.2     
  14 O14            3.6337     0.8071    -5.4125 O.2     
  15 O15            1.7485     0.0999    -3.9572 O.3     
  16 C16            0.9720     1.2256    -4.3717 C.3     
  17 C17            5.1782     0.8396     0.4560 C.3     
  18 C18            6.5473     1.3095    -0.0396 C.3     
  19 C19            4.5859     1.8934     1.3938 C.3     
  20 C20            5.3348    -0.4830     1.2091 C.3     
  21 H21            0.9550     2.3000    -0.2213 H       
  22 H22           -0.5616     2.2060    -1.1482 H       
  23 H23           -0.6100     2.3526     0.6250 H       
  24 H24            0.3784    -0.9995    -2.0335 H       
  25 H25            5.7326     1.2174    -2.1571 H       
  26 H26            2.6006     0.0358     0.4852 H       
  27 H27            1.6370     2.0430    -4.6504 H       
  28 H28            0.3585     0.9480    -5.2289 H       
  29 H29            0.3280     1.5444    -3.5521 H       
  30 H30            6.4357     2.2517    -0.5761 H       
  31 H31            7.2123     1.4529     0.8121 H       
  32 H32            6.9692     0.5587    -0.7077 H       
  33 H33            3.6105     1.5586     1.7468 H       
  34 H34            5.2510     2.0368     2.2454 H       
  35 H35            4.4743     2.8357     0.8573 H       
  36 H36            5.7567    -1.2338     0.5410 H       
  37 H37            5.9998    -0.3396     2.0607 H       
  38 H38            4.3594    -0.8178     1.5621 H       
@<TRIPOS>BOND
   1    1    2 1
   2    1   21 1
   3    1   22 1
   4    1   23 1
   5    2    3 2
   6    2    4 2
   7    2    5 am
   8    5    6 1
   9    5   24 1
  10    6    7 ar
  11    6   11 ar
  12    7    8 ar
  13    7   15 1
  14    8    9 ar
  15    8   12 1
  16    9   10 ar
  17    9   25 1
  18   10   11 ar
  19   10   17 1
  20   11   26 1
  21   12   13 2
  22   12   14 2
  23   15   16 1
  24   16   27 1
  25   16   28 1
  26   16   29 1
  27   17   18 1
  28   17   20 1
  29   17   19 1
  30   18   30 1
  31   18   31 1
  32   18   32 1
  33   19   33 1
  34   19   34 1
  35   19   35 1
  36   20   36 1
  37   20   37 1
  38   20   38 1

#	End of record

