#	Name: ASD01816892
#	Creating user name:	WinNT
#	Creation time:	15. 06. 2019 19:36

#	Modifying user name:	WinNT
#	Modification time:	15. 06. 2019 19:36

#	Program:	/corina/corina34_cracker 3.40 0067  02.08.2006

@<TRIPOS>MOLECULE
ASD01816892
  69   74    0    0    0
SMALL
NO_CHARGES


@<TRIPOS>ATOM
   1 C1            -0.0168     1.3897     0.0097 C.ar    
   2 C2             0.0021    -0.0041     0.0020 C.ar    
   3 C3             1.1796    -0.6877    -0.0129 C.ar    
   4 C4             2.3927     0.0187    -0.0207 C.ar    
   5 C5             2.3768     1.4381    -0.0130 C.ar    
   6 C6             1.1385     2.1078     0.0025 C.ar    
   7 C7             3.6297    -0.6529    -0.0357 C.ar    
   8 C8             4.7711     0.0956    -0.0422 C.ar    
   9 C9             4.6871     1.4959    -0.0340 C.ar    
  10 N10            3.5238     2.1168    -0.0199 N.ar    
  11 C11            5.9353     2.2963    -0.0412 C.2     
  12 N12            5.8725     3.6426    -0.0335 N.am    
  13 O13            7.0146     1.7386    -0.0541 O.2     
  14 C14            7.1057     4.4335    -0.0406 C.3     
  15 C15            6.8237     5.8125    -0.6403 C.3     
  16 C16            3.6922    -2.1586    -0.0438 C.3     
  17 C17            3.5760    -2.6586    -1.4607 C.ar    
  18 C18            4.7139    -2.8410    -2.2349 C.ar    
  19 C19            2.3364    -2.9452    -1.9996 C.ar    
  20 N20            2.2215    -3.3836    -3.2375 N.ar    
  21 C21            3.2832    -3.5664    -4.0116 C.ar    
  22 C22            4.5643    -3.3020    -3.5307 C.ar    
  23 C23            8.1115     6.6384    -0.6478 C.3     
  24 C24            8.6219     6.8003     0.7855 C.3     
  25 C25            8.9039     5.4212     1.3852 C.3     
  26 C26            7.6161     4.5953     1.3926 C.3     
  27 C27            6.3209     5.6531    -2.0520 C.ar    
  28 C28            5.0699     6.1285    -2.3980 C.ar    
  29 C29            7.1131     5.0365    -3.0023 C.ar    
  30 C30            6.6520     4.8903    -4.2973 C.ar    
  31 C31            5.3985     5.3603    -4.6418 C.ar    
  32 C32            4.6087     5.9823    -3.6929 C.ar    
  33 C33            3.1058    -4.0620    -5.3984 C.2     
  34 C34            4.1345    -4.3977    -6.3010 C.2     
  35 C35            1.9161    -4.2816    -6.0311 C.2     
  36 N36            2.1907    -4.7280    -7.2720 N.pl3   
  37 N37            3.5817    -4.7922    -7.4170 N.2     
  38 C38            1.2036    -5.0885    -8.2928 C.3     
  39 H39           -0.9643     1.9080     0.0170 H       
  40 H40           -0.9302    -0.5493     0.0084 H       
  41 H41            1.1803    -1.7677    -0.0184 H       
  42 H42            1.1059     3.1873     0.0090 H       
  43 H43            5.7363    -0.3889    -0.0533 H       
  44 H44            5.0108     4.0879    -0.0231 H       
  45 H45            7.8605     3.9242    -0.6398 H       
  46 H46            6.0689     6.3218    -0.0412 H       
  47 H47            4.6418    -2.4851     0.3800 H       
  48 H48            2.8717    -2.5595     0.5513 H       
  49 H49            5.6940    -2.6274    -1.8347 H       
  50 H50            1.4497    -2.8086    -1.3985 H       
  51 H51            5.4278    -3.4509    -4.1620 H       
  52 H52            8.8663     6.1291    -1.2469 H       
  53 H53            7.9106     7.6209    -1.0750 H       
  54 H54            9.5395     7.3887     0.7801 H       
  55 H55            7.8671     7.3096     1.3846 H       
  56 H56            9.6587     4.9119     0.7860 H       
  57 H57            9.2676     5.5365     2.4062 H       
  58 H58            6.8613     5.1046     1.9918 H       
  59 H59            7.8170     3.6129     1.8199 H       
  60 H60            4.4526     6.6139    -1.6566 H       
  61 H61            8.0925     4.6693    -2.7332 H       
  62 H62            7.2712     4.4092    -5.0399 H       
  63 H63            5.0383     5.2464    -5.6536 H       
  64 H64            3.6294     6.3495    -3.9621 H       
  65 H65            5.1949    -4.3391    -6.1045 H       
  66 H66            0.9328    -4.1261    -5.6123 H       
  67 H67            0.9642    -4.2105    -8.8927 H       
  68 H68            1.6137    -5.8672    -8.9358 H       
  69 H69            0.2985    -5.4559    -7.8092 H       
@<TRIPOS>BOND
   1    1    2 ar
   2    1    6 ar
   3    1   39 1
   4    2    3 ar
   5    2   40 1
   6    3    4 ar
   7    3   41 1
   8    4    5 ar
   9    4    7 ar
  10    5    6 ar
  11    5   10 ar
  12    6   42 1
  13    7    8 ar
  14    7   16 1
  15    8    9 ar
  16    8   43 1
  17    9   10 ar
  18    9   11 1
  19   11   12 am
  20   11   13 2
  21   12   14 1
  22   12   44 1
  23   14   15 1
  24   14   26 1
  25   14   45 1
  26   15   23 1
  27   15   27 1
  28   15   46 1
  29   16   17 1
  30   16   47 1
  31   16   48 1
  32   17   18 ar
  33   17   19 ar
  34   18   22 ar
  35   18   49 1
  36   19   20 ar
  37   19   50 1
  38   20   21 ar
  39   21   22 ar
  40   21   33 1
  41   22   51 1
  42   23   24 1
  43   23   52 1
  44   23   53 1
  45   24   25 1
  46   24   54 1
  47   24   55 1
  48   25   26 1
  49   25   56 1
  50   25   57 1
  51   26   58 1
  52   26   59 1
  53   27   28 ar
  54   27   29 ar
  55   28   32 ar
  56   28   60 1
  57   29   30 ar
  58   29   61 1
  59   30   31 ar
  60   30   62 1
  61   31   32 ar
  62   31   63 1
  63   32   64 1
  64   33   34 1
  65   33   35 2
  66   34   37 2
  67   34   65 1
  68   35   36 1
  69   35   66 1
  70   36   37 1
  71   36   38 1
  72   38   67 1
  73   38   68 1
  74   38   69 1

#	End of record

