#	Name: ASD01230139
#	Creating user name:	WinNT
#	Creation time:	15. 06. 2019 19:11

#	Modifying user name:	WinNT
#	Modification time:	15. 06. 2019 19:11

#	Program:	/corina/corina34_cracker 3.40 0067  02.08.2006

@<TRIPOS>MOLECULE
ASD01230139
  80   84    0    0    0
SMALL
NO_CHARGES


@<TRIPOS>ATOM
   1 C1             0.0838     1.1100    -0.4334 C.2     
   2 N2             0.1441    -0.2360    -0.4667 N.am    
   3 O3             1.1137     1.7670    -0.3801 O.co2   
   4 O4            -1.0006     1.6743    -0.4617 O.co2   
   5 C5             3.6766    -0.7689    -0.3565 C.2     
   6 N6             2.4890    -0.1653    -0.3827 N.2     
   7 C7             1.3706    -0.8739    -0.4405 C.2     
   8 C8             1.4379    -2.2802    -0.4746 C.2     
   9 C9             2.6526    -2.8805    -0.4473 C.2     
  10 N10            3.7744    -2.1107    -0.3878 N.am    
  11 O11            4.6917    -0.0942    -0.3083 O.2     
  12 O12            5.8613    -2.2719     0.7694 O.3     
  13 C13            5.0940    -2.7463    -0.3578 C.3     
  14 C14            5.9391    -2.3075    -1.5808 C.3     
  15 C15            7.3847    -2.5174    -1.0682 C.3     
  16 C16            7.2455    -2.5137     0.4665 C.3     
  17 C17            8.1108    -1.4027     1.0647 C.3     
  18 O18            8.0537    -1.4702     2.4910 O.3     
  19 P19            8.9368    -0.5250     3.4496 P.3     
  20 O20            8.8988     0.8650     2.9427 O.2     
  21 O21            8.3389    -0.5679     4.9439 O.3     
  22 C22            8.7977     0.4243     5.7514 C.ar    
  23 C23            8.1208     1.6333     5.8198 C.ar    
  24 C24            8.5892     2.6403     6.6414 C.ar    
  25 C25            9.7315     2.4439     7.3952 C.ar    
  26 C26           10.4082     1.2400     7.3285 C.ar    
  27 C27            9.9404     0.2277     6.5131 C.ar    
  28 N28           10.5280    -1.0728     3.4661 N.3     
  29 N29           11.4291    -4.5174     3.0309 N.am    
  30 C30           10.6259    -3.4530     3.0143 C.2     
  31 C31           10.6211    -2.4012     4.0863 C.3     
  32 C32           11.9093    -2.4895     4.9083 C.3     
  33 C33           12.1252    -3.9521     5.3154 C.3     
  34 C34           12.4301    -4.7700     4.0597 C.3     
  35 O35            9.8585    -3.3274     2.0836 O.2     
  36 C36           11.2927    -5.4973     1.9504 C.3     
  37 F37            5.6781    -3.1237    -2.6867 F       
  38 F38            5.7093    -0.9625    -1.8898 F       
  39 O39            7.9070    -3.7918    -1.5281 O.3     
  40 C40            8.5797    -3.7915    -2.6932 C.2     
  41 O41            8.7266    -2.7555    -3.3092 O.2     
  42 O42            9.0895    -4.9392    -3.1757 O.3     
  43 C43            9.8032    -4.8641    -4.4380 C.3     
  44 C44           10.2986    -6.2358    -4.8174 C.ar    
  45 C45            9.5045    -7.0708    -5.5810 C.ar    
  46 C46            9.9589    -8.3291    -5.9289 C.ar    
  47 C47           11.2076    -8.7522    -5.5136 C.ar    
  48 C48           12.0021    -7.9169    -4.7507 C.ar    
  49 C49           11.5494    -6.6570    -4.4065 C.ar    
  50 H50           -0.6728    -0.7572    -0.5090 H       
  51 H51            0.5352    -2.8713    -0.5213 H       
  52 H52            2.7301    -3.9574    -0.4722 H       
  53 H53            4.9978    -3.8316    -0.3272 H       
  54 H54            8.0278    -1.7002    -1.3949 H       
  55 H55            7.5496    -3.4801     0.8686 H       
  56 H56            9.1424    -1.5287     0.7360 H       
  57 H57            7.7392    -0.4336     0.7317 H       
  58 H58            7.2287     1.7873     5.2309 H       
  59 H59            8.0628     3.5818     6.6947 H       
  60 H60           10.0961     3.2324     8.0369 H       
  61 H61           11.3006     1.0893     7.9177 H       
  62 H62           10.4666    -0.7143     6.4650 H       
  63 H63           10.9176    -1.0802     2.5353 H       
  64 H64            9.7638    -2.5558     4.7414 H       
  65 H65           12.7521    -2.1476     4.3075 H       
  66 H66           11.8186    -1.8698     5.8004 H       
  67 H67           12.9642    -4.0189     6.0080 H       
  68 H68           11.2232    -4.3361     5.7918 H       
  69 H69           12.4285    -5.8305     4.3113 H       
  70 H70           13.4141    -4.4944     3.6804 H       
  71 H71           10.5074    -5.1764     1.2659 H       
  72 H72           12.2360    -5.5759     1.4100 H       
  73 H73           11.0331    -6.4686     2.3714 H       
  74 H74            9.1326    -4.4928    -5.2130 H       
  75 H75           10.6511    -4.1868    -4.3363 H       
  76 H76            8.5289    -6.7401    -5.9055 H       
  77 H77            9.3382    -8.9817    -6.5249 H       
  78 H78           11.5624    -9.7356    -5.7848 H       
  79 H79           12.9776    -8.2477    -4.4260 H       
  80 H80           12.1717    -6.0030    -3.8135 H       
@<TRIPOS>BOND
   1    1    2 am
   2    1    3 ar
   3    1    4 ar
   4    2    7 1
   5    2   50 1
   6    5    6 1
   7    5   10 am
   8    5   11 2
   9    6    7 2
  10    7    8 1
  11    8    9 2
  12    8   51 1
  13    9   10 1
  14    9   52 1
  15   10   13 1
  16   12   13 1
  17   12   16 1
  18   13   14 1
  19   13   53 1
  20   14   15 1
  21   14   37 1
  22   14   38 1
  23   15   16 1
  24   15   39 1
  25   15   54 1
  26   16   17 1
  27   16   55 1
  28   17   18 1
  29   17   56 1
  30   17   57 1
  31   18   19 1
  32   19   20 2
  33   19   21 1
  34   19   28 1
  35   21   22 1
  36   22   23 ar
  37   22   27 ar
  38   23   24 ar
  39   23   58 1
  40   24   25 ar
  41   24   59 1
  42   25   26 ar
  43   25   60 1
  44   26   27 ar
  45   26   61 1
  46   27   62 1
  47   28   31 1
  48   28   63 1
  49   29   30 am
  50   29   34 1
  51   29   36 1
  52   30   31 1
  53   30   35 2
  54   31   32 1
  55   31   64 1
  56   32   33 1
  57   32   65 1
  58   32   66 1
  59   33   34 1
  60   33   67 1
  61   33   68 1
  62   34   69 1
  63   34   70 1
  64   36   71 1
  65   36   72 1
  66   36   73 1
  67   39   40 1
  68   40   41 2
  69   40   42 1
  70   42   43 1
  71   43   44 1
  72   43   74 1
  73   43   75 1
  74   44   45 ar
  75   44   49 ar
  76   45   46 ar
  77   45   76 1
  78   46   47 ar
  79   46   77 1
  80   47   48 ar
  81   47   78 1
  82   48   49 ar
  83   48   79 1
  84   49   80 1

#	End of record

