#	Name: ASD00840581
#	Creating user name:	WinNT
#	Creation time:	15. 06. 2019 18:39

#	Modifying user name:	WinNT
#	Modification time:	15. 06. 2019 18:39

#	Program:	/corina/corina34_cracker 3.40 0067  02.08.2006

@<TRIPOS>MOLECULE
ASD00840581
  92   97    0    0    0
SMALL
NO_CHARGES


@<TRIPOS>ATOM
   1 N1             0.9732     1.4203    -0.8186 N.ar    
   2 C2             1.2506     0.1301    -0.9053 C.ar    
   3 C3             1.1947    -0.6830     0.2197 C.ar    
   4 C4             0.8441    -0.1254     1.4367 C.ar    
   5 C5             0.5605     1.2328     1.4855 C.ar    
   6 C6             0.6360     1.9806     0.3276 C.ar    
   7 C7             1.5110    -2.1527     0.1160 C.3     
   8 C8             1.2551    -2.8449     1.4379 C.2     
   9 C9             0.6847    -2.8003    -0.9970 C.3     
  10 C10           -0.7773    -2.5158    -0.7676 C.2     
  11 N11           -1.7045    -3.0504    -1.5868 N.am    
  12 O12           -1.1196    -1.8057     0.1541 O.2     
  13 C13           -3.1221    -2.6900    -1.4490 C.3     
  14 C14           -3.9461    -3.9740    -1.3107 C.3     
  15 C15           -3.6446    -4.8987    -2.4923 C.3     
  16 C16           -2.1608    -5.2735    -2.4833 C.3     
  17 C17           -1.3159    -3.9999    -2.6385 C.3     
  18 C18           -4.4916    -6.1675    -2.3758 C.3     
  19 C19           -5.9766    -5.7941    -2.3865 C.3     
  20 C20           -6.8189    -7.0707    -2.3311 C.3     
  21 N21           -6.5007    -7.9191    -3.4867 N.3     
  22 C22           -5.0908    -8.3291    -3.4722 C.3     
  23 C23           -4.1969    -7.0902    -3.5617 C.3     
  24 H24           -7.1105    -8.7221    -3.5245 H       
  25 O25            0.1916    -2.9237     2.0156 O.2     
  26 N26            2.4275    -3.3550     1.8510 N.am    
  27 C27            2.9882    -2.3605    -0.1279 C.ar    
  28 C28            3.4645    -3.0887     0.9554 C.ar    
  29 C29            3.8308    -1.9786    -1.1473 C.ar    
  30 C30            5.1719    -2.3206    -1.1001 C.ar    
  31 C31            5.6596    -3.0467    -0.0252 C.ar    
  32 C32            4.8142    -3.4303     0.9983 C.ar    
  33 Cl33           6.2385    -1.8418    -2.3834 Cl      
  34 F34            6.9677    -3.3811     0.0223 F       
  35 C35            2.3451    -5.9026     2.8889 C.ar    
  36 C36            1.0906    -6.3278     2.4758 C.ar    
  37 C37            3.3805    -6.8106     3.0036 C.ar    
  38 C38            3.1697    -8.1434     2.7070 C.ar    
  39 C39            1.9167    -8.5736     2.2933 C.ar    
  40 C40            0.8763    -7.6649     2.1779 C.ar    
  41 O41            1.7098    -9.8848     2.0020 O.3     
  42 O42            0.0726    -5.4345     2.3636 O.3     
  43 C43            2.8267   -10.7649     2.1436 C.3     
  44 C44           -1.1917    -5.9424     1.9328 C.3     
  45 C45           -2.2054    -4.7983     1.8670 C.3     
  46 S46            2.6200    -4.2024     3.2607 S.o2    
  47 O47            3.9912    -4.0857     3.6149 O.2     
  48 O48            1.5592    -3.8023     4.1174 O.2     
  49 O49            1.5925    -0.4045    -2.1045 O.3     
  50 C50            2.0540    -0.2803    -4.4735 C.3     
  51 C51            1.5236     0.4572    -3.2423 C.3     
  52 H52            0.7920    -0.7329     2.3280 H       
  53 H53            0.2833     1.6992     2.4194 H       
  54 H54            0.4166     3.0376     0.3603 H       
  55 H55            0.9880    -2.3902    -1.9602 H       
  56 H56            0.8503    -3.8777    -0.9925 H       
  57 H57           -3.2574    -2.0716    -0.5616 H       
  58 H58           -3.4471    -2.1407    -2.3327 H       
  59 H59           -3.6836    -4.4762    -0.3796 H       
  60 H60           -5.0076    -3.7262    -1.3043 H       
  61 H61           -3.8841    -4.3867    -3.4244 H       
  62 H62           -1.9151    -5.7635    -1.5411 H       
  63 H63           -1.9516    -5.9507    -3.3114 H       
  64 H64           -1.4948    -3.5601    -3.6196 H       
  65 H65           -0.2595    -4.2472    -2.5337 H       
  66 H66           -4.2519    -6.6813    -1.4449 H       
  67 H67           -6.2016    -5.1718    -1.5203 H       
  68 H68           -6.2073    -5.2452    -3.2995 H       
  69 H69           -6.5978    -7.6120    -1.4113 H       
  70 H70           -7.8768    -6.8090    -2.3530 H       
  71 H71           -4.8778    -8.8646    -2.5470 H       
  72 H72           -4.8935    -8.9815    -4.3229 H       
  73 H73           -4.3996    -6.5617    -4.4932 H       
  74 H74           -3.1503    -7.3938    -3.5352 H       
  75 H75            3.4463    -1.4131    -1.9832 H       
  76 H76            5.2007    -3.9957     1.8333 H       
  77 H77            4.3563    -6.4778     3.3254 H       
  78 H78            3.9807    -8.8510     2.7967 H       
  79 H79           -0.0995    -7.9978     1.8565 H       
  80 H80            2.5258   -11.7790     1.8805 H       
  81 H81            3.6304   -10.4412     1.4822 H       
  82 H82            3.1757   -10.7457     3.1760 H       
  83 H83           -1.0856    -6.3911     0.9451 H       
  84 H84           -1.5401    -6.6963     2.6389 H       
  85 H85           -3.1698    -5.1857     1.5384 H       
  86 H86           -2.3115    -4.3496     2.8547 H       
  87 H87           -1.8570    -4.0444     1.1610 H       
  88 H88            2.0834     0.4034    -5.3219 H       
  89 H89            3.0588    -0.6506    -4.2703 H       
  90 H90            1.3976    -1.1191    -4.7053 H       
  91 H91            0.4880     0.7513    -3.4131 H       
  92 H92            2.1287     1.3457    -3.0624 H       
@<TRIPOS>BOND
   1    1    2 ar
   2    1    6 ar
   3    2    3 ar
   4    2   49 1
   5    3    4 ar
   6    3    7 1
   7    4    5 ar
   8    4   52 1
   9    5    6 ar
  10    5   53 1
  11    6   54 1
  12    7    8 1
  13    7    9 1
  14    7   27 1
  15    8   25 2
  16    8   26 am
  17    9   10 1
  18    9   55 1
  19    9   56 1
  20   10   11 am
  21   10   12 2
  22   11   13 1
  23   11   17 1
  24   13   14 1
  25   13   57 1
  26   13   58 1
  27   14   15 1
  28   14   59 1
  29   14   60 1
  30   15   16 1
  31   15   18 1
  32   15   61 1
  33   16   17 1
  34   16   62 1
  35   16   63 1
  36   17   64 1
  37   17   65 1
  38   18   19 1
  39   18   23 1
  40   18   66 1
  41   19   20 1
  42   19   67 1
  43   19   68 1
  44   20   21 1
  45   20   69 1
  46   20   70 1
  47   21   22 1
  48   21   24 1
  49   22   23 1
  50   22   71 1
  51   22   72 1
  52   23   73 1
  53   23   74 1
  54   26   46 am
  55   26   28 1
  56   27   28 ar
  57   27   29 ar
  58   28   32 ar
  59   29   30 ar
  60   29   75 1
  61   30   31 ar
  62   30   33 1
  63   31   32 ar
  64   31   34 1
  65   32   76 1
  66   35   36 ar
  67   35   37 ar
  68   35   46 1
  69   36   42 1
  70   36   40 ar
  71   37   38 ar
  72   37   77 1
  73   38   39 ar
  74   38   78 1
  75   39   40 ar
  76   39   41 1
  77   40   79 1
  78   41   43 1
  79   42   44 1
  80   43   80 1
  81   43   81 1
  82   43   82 1
  83   44   45 1
  84   44   83 1
  85   44   84 1
  86   45   85 1
  87   45   86 1
  88   45   87 1
  89   46   47 2
  90   46   48 2
  91   49   51 1
  92   50   51 1
  93   50   88 1
  94   50   89 1
  95   50   90 1
  96   51   91 1
  97   51   92 1

#	End of record

