#	Name: ASD01911492
#	Creating user name:	WinNT
#	Creation time:	15. 06. 2019 19:57

#	Modifying user name:	WinNT
#	Modification time:	15. 06. 2019 19:57

#	Program:	/corina/corina34_cracker 3.40 0067  02.08.2006

@<TRIPOS>MOLECULE
ASD01911492
  32   33    0    0    0
SMALL
NO_CHARGES


@<TRIPOS>ATOM
   1 N1            -0.0169     1.3965     0.0097 N.2     
   2 N2             0.0021    -0.0041     0.0020 N.pl3   
   3 C3             1.2283     1.8226     0.0001 C.2     
   4 C4             2.0722     0.6950    -0.0140 C.2     
   5 C5             1.2909    -0.4069    -0.0125 C.2     
   6 C6             1.7728    -1.8348    -0.0247 C.3     
   7 C7             1.6660     3.2409     0.0028 C.ar    
   8 C8            -1.1724    -0.8798     0.0085 C.3     
   9 C9            -1.5883    -1.1729    -1.4100 C.2     
  10 O10           -2.6485    -1.9606    -1.6494 O.3     
  11 O11           -0.9674    -0.6990    -2.3318 O.2     
  12 C12            0.7213     4.2610     0.0170 C.ar    
  13 C13            3.0253     3.5522    -0.0031 C.ar    
  14 C14            3.4358     4.8710    -0.0001 C.ar    
  15 C15            2.5044     5.8899     0.0087 C.ar    
  16 C16            1.1400     5.5913     0.0200 C.ar    
  17 C17            2.0693    -2.2853     1.4071 C.3     
  18 C18            0.1737     6.6481     0.0287 C.1     
  19 N19           -0.5928     7.4865     0.0356 N.1     
  20 H20            3.1520     0.7090    -0.0248 H       
  21 H21            1.0022    -2.4746    -0.4547 H       
  22 H22            2.6807    -1.9067    -0.6236 H       
  23 H23           -0.9269    -1.8130     0.5154 H       
  24 H24           -1.9908    -0.3861     0.5325 H       
  25 H25           -2.8769    -2.1198    -2.5754 H       
  26 H26           -0.3324     4.0242     0.0254 H       
  27 H27            3.7591     2.7598    -0.0096 H       
  28 H28            4.4899     5.1061    -0.0044 H       
  29 H29            2.8312     6.9193     0.0113 H       
  30 H30            2.8398    -1.6454     1.8371 H       
  31 H31            1.1614    -2.2134     2.0060 H       
  32 H32            2.4178    -3.3180     1.3982 H       
@<TRIPOS>BOND
   1    1    2 1
   2    1    3 2
   3    2    8 1
   4    2    5 1
   5    3    4 1
   6    3    7 1
   7    4    5 2
   8    4   20 1
   9    5    6 1
  10    6   17 1
  11    6   21 1
  12    6   22 1
  13    7   12 ar
  14    7   13 ar
  15    8    9 1
  16    8   23 1
  17    8   24 1
  18    9   10 1
  19    9   11 2
  20   10   25 1
  21   12   16 ar
  22   12   26 1
  23   13   14 ar
  24   13   27 1
  25   14   15 ar
  26   14   28 1
  27   15   16 ar
  28   15   29 1
  29   16   18 1
  30   17   30 1
  31   17   31 1
  32   17   32 1
  33   18   19 3

#	End of record

