#	Name: ASD02588010
#	Creating user name:	WinNT
#	Creation time:	15. 06. 2019 20:25

#	Modifying user name:	WinNT
#	Modification time:	15. 06. 2019 20:25

#	Program:	/corina/corina34_cracker 3.40 0067  02.08.2006

@<TRIPOS>MOLECULE
ASD02588010
  47   49    0    0    0
SMALL
NO_CHARGES


@<TRIPOS>ATOM
   1 C1             0.3241     1.2411     0.3910 C.2     
   2 N2             0.4954    -0.1235     0.4273 N.pl3   
   3 N3            -0.4972    -0.9077     1.0320 N.2     
   4 C4            -1.5607    -0.3366     1.5475 C.2     
   5 N5            -1.7370     0.9874     1.5178 N.2     
   6 C6            -0.8428     1.7918     0.9702 C.2     
   7 C7             1.4237     1.8039    -0.2508 C.2     
   8 C8             2.2770     0.7620    -0.6100 C.2     
   9 C9             1.6847    -0.4313    -0.1808 C.2     
  10 N10           -1.0512     3.1566     0.9536 N.pl3   
  11 N11            1.6351     3.1736    -0.4925 N.3     
  12 N12            3.4996     0.8859    -1.2764 N.3     
  13 N13           -2.5315    -1.1323     2.1411 N.pl3   
  14 C14            3.3016     0.9612    -2.7301 C.3     
  15 C15            2.4449     3.7776     0.5741 C.3     
  16 C16           -3.7270    -0.5175     2.7233 C.3     
  17 C17            2.2195    -1.7279    -0.3461 C.2     
  18 O18            3.2481    -1.8862    -0.9778 O.2     
  19 O19            1.5900    -2.7920     0.1965 O.3     
  20 C20            2.1870    -4.0738    -0.0103 C.3     
  21 C21            1.3509    -5.1317     0.6626 C.ar    
  22 C22            0.3300    -5.7519    -0.0331 C.ar    
  23 C23           -0.4369    -6.7223     0.5841 C.ar    
  24 C24           -0.1827    -7.0729     1.8968 C.ar    
  25 C25            0.8389    -6.4534     2.5922 C.ar    
  26 C26            1.6086    -5.4861     1.9737 C.ar    
  27 H27           -1.8568     3.5290     1.3450 H       
  28 H28           -0.3920     3.7430     0.5506 H       
  29 H29            2.0599     3.3200    -1.3959 H       
  30 H30            4.0154     1.6852    -0.9399 H       
  31 H31           -2.4181    -2.0952     2.1703 H       
  32 H32            2.7575     1.8732    -2.9759 H       
  33 H33            4.2707     0.9706    -3.2288 H       
  34 H34            2.7295     0.0956    -3.0641 H       
  35 H35            1.9158     3.6942     1.5234 H       
  36 H36            3.4003     3.2575     0.6437 H       
  37 H37            2.6194     4.8292     0.3465 H       
  38 H38           -4.2692     0.0265     1.9498 H       
  39 H39           -4.3690    -1.2940     3.1392 H       
  40 H40           -3.4324     0.1725     3.5140 H       
  41 H41            2.2431    -4.2803    -1.0791 H       
  42 H42            3.1910    -4.0797     0.4141 H       
  43 H43            0.1313    -5.4780    -1.0587 H       
  44 H44           -1.2350    -7.2064     0.0408 H       
  45 H45           -0.7823    -7.8306     2.3793 H       
  46 H46            1.0373    -6.7271     3.6180 H       
  47 H47            2.4091    -5.0047     2.5158 H       
@<TRIPOS>BOND
   1    1    2 1
   2    1    7 2
   3    1    6 1
   4    2    3 1
   5    2    9 1
   6    3    4 2
   7    4    5 1
   8    4   13 1
   9    5    6 2
  10    6   10 1
  11    7    8 1
  12    7   11 1
  13    8    9 2
  14    8   12 1
  15    9   17 1
  16   10   27 1
  17   10   28 1
  18   11   15 1
  19   11   29 1
  20   12   14 1
  21   12   30 1
  22   13   16 1
  23   13   31 1
  24   14   32 1
  25   14   33 1
  26   14   34 1
  27   15   35 1
  28   15   36 1
  29   15   37 1
  30   16   38 1
  31   16   39 1
  32   16   40 1
  33   17   18 2
  34   17   19 1
  35   19   20 1
  36   20   21 1
  37   20   41 1
  38   20   42 1
  39   21   22 ar
  40   21   26 ar
  41   22   23 ar
  42   22   43 1
  43   23   24 ar
  44   23   44 1
  45   24   25 ar
  46   24   45 1
  47   25   26 ar
  48   25   46 1
  49   26   47 1

#	End of record

