#	Name: ASD01915998
#	Creating user name:	WinNT
#	Creation time:	15. 06. 2019 20:06

#	Modifying user name:	WinNT
#	Modification time:	15. 06. 2019 20:06

#	Program:	/corina/corina34_cracker 3.40 0067  02.08.2006

@<TRIPOS>MOLECULE
ASD01915998
  45   46    0    0    0
SMALL
NO_CHARGES


@<TRIPOS>ATOM
   1 C1            -0.0507     1.4484    -0.0046 C.ar    
   2 C2            -0.0124     0.0470    -0.0328 C.ar    
   3 C3            -1.2092    -0.6423    -0.0194 C.ar    
   4 C4            -2.4070     0.0728     0.0215 C.ar    
   5 C5            -3.6929    -0.6583     0.0361 C.2     
   6 N6            -4.3704    -0.8070     1.1917 N.am    
   7 O7            -4.1385    -1.1249    -0.9940 O.2     
   8 C8            -5.7044    -1.4126     1.1859 C.3     
   9 C9            -6.0432    -1.8867    -0.2288 C.3     
  10 C10           -5.7266    -2.6063     2.1428 C.3     
  11 C11           -6.7364    -0.3774     1.6378 C.3     
  12 C12            1.1628     2.2086    -0.0170 C.1     
  13 C13            2.1577     2.8318    -0.0271 C.1     
  14 C14            3.3712     3.5920    -0.0395 C.ar    
  15 C15            3.3250     4.9882    -0.0112 C.ar    
  16 C16            5.7726     3.6781    -0.0912 C.ar    
  17 C17            4.5002     5.7146    -0.0229 C.ar    
  18 C18            5.7214     5.0606    -0.0630 C.ar    
  19 F19            4.4587     7.0646     0.0044 F       
  20 N20           -2.4082     1.4012     0.0479 N.ar    
  21 C21           -1.2939     2.0944     0.0300 C.ar    
  22 C22            4.6076     2.9405    -0.0741 C.ar    
  23 C23           -3.7730    -0.3630     2.4534 C.3     
  24 C24           -1.2215    -2.1489    -0.0490 C.3     
  25 H25            0.9296    -0.4803    -0.0646 H       
  26 H26           -5.3079    -2.6242    -0.5507 H       
  27 H27           -7.0357    -2.3373    -0.2330 H       
  28 H28           -6.0273    -1.0363    -0.9105 H       
  29 H29           -5.4852    -2.2686     3.1507 H       
  30 H30           -6.7191    -3.0569     2.1386 H       
  31 H31           -4.9914    -3.3438     1.8209 H       
  32 H32           -6.7205     0.4729     0.9561 H       
  33 H33           -7.7289    -0.8281     1.6335 H       
  34 H34           -6.4950    -0.0397     2.6457 H       
  35 H35            2.3734     5.4981     0.0194 H       
  36 H36            6.7278     3.1752    -0.1224 H       
  37 H37            6.6373     5.6328    -0.0762 H       
  38 H38           -1.3351     3.1733     0.0526 H       
  39 H39            4.6501     1.8615    -0.0920 H       
  40 H40           -4.1163     0.6458     2.6829 H       
  41 H41           -4.0712    -1.0393     3.2545 H       
  42 H42           -2.6868    -0.3650     2.3617 H       
  43 H43           -1.1132    -2.5332     0.9652 H       
  44 H44           -2.1648    -2.4964    -0.4704 H       
  45 H45           -0.3954    -2.5070    -0.6634 H       
@<TRIPOS>BOND
   1    1    2 ar
   2    1   12 1
   3    1   21 ar
   4    2    3 ar
   5    2   25 1
   6    3    4 ar
   7    3   24 1
   8    4   20 ar
   9    4    5 1
  10    5    6 am
  11    5    7 2
  12    6    8 1
  13    6   23 1
  14    8    9 1
  15    8   10 1
  16    8   11 1
  17    9   26 1
  18    9   27 1
  19    9   28 1
  20   10   29 1
  21   10   30 1
  22   10   31 1
  23   11   32 1
  24   11   33 1
  25   11   34 1
  26   12   13 3
  27   13   14 1
  28   14   15 ar
  29   14   22 ar
  30   15   17 ar
  31   15   35 1
  32   16   18 ar
  33   16   22 ar
  34   16   36 1
  35   17   19 1
  36   17   18 ar
  37   18   37 1
  38   20   21 ar
  39   21   38 1
  40   22   39 1
  41   23   40 1
  42   23   41 1
  43   23   42 1
  44   24   43 1
  45   24   44 1
  46   24   45 1

#	End of record

