#	Name: ASD09740371
#	Creating user name:	WinNT
#	Creation time:	15. 06. 2019 21:23

#	Modifying user name:	WinNT
#	Modification time:	15. 06. 2019 21:23

#	Program:	/corina/corina34_cracker 3.40 0067  02.08.2006

@<TRIPOS>MOLECULE
ASD09740371
  42   46    0    0    0
SMALL
NO_CHARGES


@<TRIPOS>ATOM
   1 S1            -0.0186     1.7068    -0.1489 S.3     
   2 C2             0.0046    -0.0034    -0.1548 C.2     
   3 C3             1.7399     1.7452    -0.0766 C.2     
   4 N4             2.1951     0.5239    -0.0628 N.2     
   5 C5             1.2857    -0.4284    -0.1040 C.2     
   6 C6             1.6439    -1.8682    -0.0946 C.ar    
   7 C7             2.5656     2.9639    -0.0382 C.2     
   8 C8             2.7983    -2.3059    -0.7409 C.ar    
   9 C9             3.1269    -3.6463    -0.7286 C.ar    
  10 C10            2.3125    -4.5547    -0.0767 C.ar    
  11 C11            1.1652    -4.1259     0.5661 C.ar    
  12 C12            0.8302    -2.7870     0.5655 C.ar    
  13 N13            2.1295     4.2113    -0.0511 N.2     
  14 C14            3.2367     4.9809    -0.0022 C.2     
  15 N15            4.2704     4.1775     0.0372 N.2     
  16 O16            3.9063     3.0208     0.0225 O.3     
  17 C17            3.2760     6.4624     0.0051 C.ar    
  18 C18            2.5191     7.1861    -0.8989 C.ar    
  19 C19            2.5506     8.5761    -0.8984 C.ar    
  20 C20            3.3235     9.2629    -0.0116 C.ar    
  21 C21            4.1082     8.5676     0.9242 C.ar    
  22 C22            4.0835     7.1515     0.9405 C.ar    
  23 C23            4.9149     9.2523     1.8497 C.ar    
  24 C24            5.6626     8.5476     2.7424 C.ar    
  25 C25            5.6416     7.1545     2.7533 C.ar    
  26 C26            4.8668     6.4589     1.8752 C.ar    
  27 C27           -1.2101    -0.8937    -0.2083 C.3     
  28 F28           -1.6404    -1.1740     1.0930 F       
  29 F29           -2.2332    -0.2451    -0.9082 F       
  30 F30           -0.8844    -2.0884    -0.8593 F       
  31 H31            3.4344    -1.5976    -1.2508 H       
  32 H32            4.0213    -3.9866    -1.2292 H       
  33 H33            2.5733    -5.6027    -0.0699 H       
  34 H34            0.5326    -4.8395     1.0730 H       
  35 H35           -0.0656    -2.4532     1.0679 H       
  36 H36            1.8976     6.6659    -1.6127 H       
  37 H37            1.9521     9.1207    -1.6136 H       
  38 H38            3.3337    10.3427    -0.0280 H       
  39 H39            4.9414    10.3320     1.8522 H       
  40 H40            6.2815     9.0760     3.4525 H       
  41 H41            6.2444     6.6187     3.4716 H       
  42 H42            4.8602     5.3791     1.8948 H       
@<TRIPOS>BOND
   1    1    2 1
   2    1    3 1
   3    2   27 1
   4    2    5 2
   5    3    4 2
   6    3    7 1
   7    4    5 1
   8    5    6 1
   9    6    8 ar
  10    6   12 ar
  11    7   13 2
  12    7   16 1
  13    8    9 ar
  14    8   31 1
  15    9   10 ar
  16    9   32 1
  17   10   11 ar
  18   10   33 1
  19   11   12 ar
  20   11   34 1
  21   12   35 1
  22   13   14 1
  23   14   15 2
  24   14   17 1
  25   15   16 1
  26   17   18 ar
  27   17   22 ar
  28   18   19 ar
  29   18   36 1
  30   19   20 ar
  31   19   37 1
  32   20   21 ar
  33   20   38 1
  34   21   22 ar
  35   21   23 ar
  36   22   26 ar
  37   23   24 ar
  38   23   39 1
  39   24   25 ar
  40   24   40 1
  41   25   26 ar
  42   25   41 1
  43   26   42 1
  44   27   28 1
  45   27   29 1
  46   27   30 1

#	End of record

