#	Name: ASD05490144
#	Creating user name:	WinNT
#	Creation time:	15. 06. 2019 21:01

#	Modifying user name:	WinNT
#	Modification time:	15. 06. 2019 21:01

#	Program:	/corina/corina34_cracker 3.40 0067  02.08.2006

@<TRIPOS>MOLECULE
ASD05490144
  78   82    0    0    0
SMALL
NO_CHARGES


@<TRIPOS>ATOM
   1 N1             0.0591     1.2548     0.1892 N.ar    
   2 C2             1.1649     1.9825     0.1597 C.ar    
   3 C3             2.4092     1.3790     0.0797 C.ar    
   4 C4             2.4883    -0.0111     0.0301 C.ar    
   5 C5             1.3048    -0.7439     0.0632 C.ar    
   6 C6             0.0949    -0.0698     0.1438 C.ar    
   7 O7             1.0781     3.3357     0.2080 O.3     
   8 N8            -1.0930    -0.7912     0.1775 N.pl3   
   9 N9             3.7246    -0.6540    -0.0513 N.am    
  10 C10            4.2505    -1.0683    -1.3544 C.3     
  11 C11            5.0112     0.0747    -1.9756 C.ar    
  12 C12            6.3764     0.1811    -1.7796 C.ar    
  13 C13            4.3426     1.0104    -2.7443 C.ar    
  14 C14            7.0780     1.2261    -2.3456 C.ar    
  15 C15            6.4087     2.1749    -3.1164 C.ar    
  16 C16            5.0341     2.0592    -3.3156 C.ar    
  17 C17           -0.2325     3.8993     0.2894 C.3     
  18 C18           -0.1296     5.4252     0.3342 C.3     
  19 C19           -1.5343     6.0348     0.2957 C.3     
  20 C20           -1.4253     7.5567     0.4202 C.3     
  21 C21            7.1574     3.3003    -3.7275 C.2     
  22 O22           -0.7417     7.8865     1.6311 O.3     
  23 C23            0.5937     7.3830     1.7029 C.3     
  24 C24            0.5657     5.8540     1.6299 C.3     
  25 C25            8.4995     3.4112    -3.6596 C.2     
  26 N26            6.5668     4.2823    -4.3930 N.2     
  27 C27            7.3260     5.2031    -4.8774 C.2     
  28 S28            8.9642     4.8823    -4.5104 S.3     
  29 C29            6.8385     6.3944    -5.6611 C.3     
  30 N30            6.5546     7.5033    -4.7403 N.3     
  31 C31            6.3052     8.7539    -5.4804 C.3     
  32 C32            4.9110     9.2640    -5.0593 C.3     
  33 C33            4.6895     8.5807    -3.6842 C.3     
  34 C34            5.3722     7.2077    -3.9035 C.3     
  35 C35            4.4346    -0.8936     1.0690 C.2     
  36 O36            5.5108    -1.4532     0.9981 O.2     
  37 O37            3.9514    -0.5128     2.2666 O.3     
  38 C38            4.0619    -0.3004     4.6900 C.3     
  39 C39            4.7699    -0.8032     3.4302 C.3     
  40 N40            1.3370    -2.2230     0.0124 N.pl3   
  41 O41            1.4832    -2.8644     1.0374 O.2     
  42 O42            1.2174    -2.7985    -1.0544 O.2     
  43 H43            3.3071     1.9787     0.0557 H       
  44 H44           -1.0730    -1.7604     0.1446 H       
  45 H45           -1.9419    -0.3253     0.2339 H       
  46 H46            4.9179    -1.9200    -1.2228 H       
  47 H47            3.4241    -1.3516    -2.0063 H       
  48 H48            6.8940    -0.5547    -1.1821 H       
  49 H49            3.2774     0.9198    -2.8980 H       
  50 H50            8.1438     1.3086    -2.1914 H       
  51 H51            4.5104     2.7915    -3.9122 H       
  52 H52           -0.8118     3.5997    -0.5840 H       
  53 H53           -0.7263     3.5417     1.1930 H       
  54 H54            0.4443     5.7772    -0.5230 H       
  55 H55           -2.0161     5.7802    -0.6484 H       
  56 H56           -2.1244     5.6429     1.1241 H       
  57 H57           -0.8696     7.9521    -0.4301 H       
  58 H58           -2.4242     7.9927     0.4364 H       
  59 H59            1.1758     7.7761     0.8694 H       
  60 H60            1.0493     7.6937     2.6431 H       
  61 H61            0.0181     5.4585     2.4853 H       
  62 H62            1.5859     5.4702     1.6401 H       
  63 H63            9.1706     2.7207    -3.1705 H       
  64 H64            7.6058     6.7001    -6.3723 H       
  65 H65            5.9293     6.1276    -6.1998 H       
  66 H66            7.0636     9.4938    -5.2245 H       
  67 H67            6.3206     8.5595    -6.5528 H       
  68 H68            4.9130    10.3490    -4.9547 H       
  69 H69            4.1522     8.9462    -5.7743 H       
  70 H70            5.1813     9.1385    -2.8873 H       
  71 H71            3.6266     8.4594    -3.4752 H       
  72 H72            4.6985     6.5279    -4.4252 H       
  73 H73            5.6800     6.7802    -2.9493 H       
  74 H74            4.6764    -0.5184     5.5635 H       
  75 H75            3.9066     0.7758     4.6144 H       
  76 H76            3.0985    -0.8004     4.7895 H       
  77 H77            4.9252    -1.8794     3.5058 H       
  78 H78            5.7333    -0.3032     3.3307 H       
@<TRIPOS>BOND
   1    1    2 ar
   2    1    6 ar
   3    2    3 ar
   4    2    7 1
   5    3    4 ar
   6    3   43 1
   7    4    5 ar
   8    4    9 1
   9    5    6 ar
  10    5   40 1
  11    6    8 1
  12    7   17 1
  13    8   44 1
  14    8   45 1
  15    9   10 1
  16    9   35 am
  17   10   11 1
  18   10   46 1
  19   10   47 1
  20   11   12 ar
  21   11   13 ar
  22   12   14 ar
  23   12   48 1
  24   13   16 ar
  25   13   49 1
  26   14   15 ar
  27   14   50 1
  28   15   16 ar
  29   15   21 1
  30   16   51 1
  31   17   18 1
  32   17   52 1
  33   17   53 1
  34   18   19 1
  35   18   24 1
  36   18   54 1
  37   19   20 1
  38   19   55 1
  39   19   56 1
  40   20   22 1
  41   20   57 1
  42   20   58 1
  43   21   25 2
  44   21   26 1
  45   22   23 1
  46   23   24 1
  47   23   59 1
  48   23   60 1
  49   24   61 1
  50   24   62 1
  51   25   28 1
  52   25   63 1
  53   26   27 2
  54   27   28 1
  55   27   29 1
  56   29   30 1
  57   29   64 1
  58   29   65 1
  59   30   31 1
  60   30   34 1
  61   31   32 1
  62   31   66 1
  63   31   67 1
  64   32   33 1
  65   32   68 1
  66   32   69 1
  67   33   34 1
  68   33   70 1
  69   33   71 1
  70   34   72 1
  71   34   73 1
  72   35   36 2
  73   35   37 1
  74   37   39 1
  75   38   39 1
  76   38   74 1
  77   38   75 1
  78   38   76 1
  79   39   77 1
  80   39   78 1
  81   40   41 2
  82   40   42 2

#	End of record

