#	Name: ASD01811224
#	Creating user name:	WinNT
#	Creation time:	15. 06. 2019 19:26

#	Modifying user name:	WinNT
#	Modification time:	15. 06. 2019 19:26

#	Program:	/corina/corina34_cracker 3.40 0067  02.08.2006

@<TRIPOS>MOLECULE
ASD01811224
  63   67    0    0    0
SMALL
NO_CHARGES


@<TRIPOS>ATOM
   1 C1            -8.0469     2.1791     2.3595 C.1     
   2 C2            -6.8783     2.9773     2.1409 C.ar    
   3 C3            -5.6291     2.5241     2.5699 C.ar    
   4 C4            -4.5075     3.2982     2.3561 C.ar    
   5 C5            -4.6183     4.5212     1.7187 C.ar    
   6 C6            -5.8530     4.9765     1.2914 C.ar    
   7 C7            -6.9819     4.2097     1.4927 C.ar    
   8 N8            -8.9740     1.5459     2.5329 N.1     
   9 N9            -1.9367     7.7889     1.4912 N.am    
  10 C10           -2.4396     7.2835     0.2065 C.3     
  11 C11           -3.7011     6.4531     0.4631 C.3     
  12 C12           -3.3885     5.3615     1.4891 C.3     
  13 C13           -2.9585     6.0070     2.8084 C.3     
  14 C14           -1.6886     6.8323     2.5784 C.3     
  15 F15           -2.3540     4.5519     1.0078 F       
  16 C16           -1.7022     9.1044     1.6672 C.2     
  17 C17           -1.2855     9.6103     2.9927 C.ar    
  18 C18           -2.0168    10.6236     3.6167 C.ar    
  19 C19           -1.6290    11.0969     4.8541 C.ar    
  20 C20           -0.5165    10.5732     5.4831 C.ar    
  21 C21            0.2234     9.5600     4.8705 C.ar    
  22 C22           -0.1659     9.0734     3.6245 C.ar    
  23 O23           -1.8332     9.8749     0.7363 O.2     
  24 C24            2.9353     7.6136     6.3048 C.2     
  25 N25            3.2590     8.8165     6.6966 N.2     
  26 C26            2.3509     9.6921     6.2504 C.2     
  27 C27            1.4149     9.0007     5.5455 C.2     
  28 N28            1.7942     7.6781     5.5849 N.pl3   
  29 C29            3.7127     6.3573     6.6022 C.3     
  30 C30           -3.2315    11.2018     2.9374 C.3     
  31 C31           -0.1001    11.0968     6.8334 C.3     
  32 C32            0.2287    12.5991     6.8370 C.3     
  33 C33           -0.4859    12.6721     8.1967 C.3     
  34 C34           -1.2839    11.4339     7.7553 C.3     
  35 H35           -5.5414     1.5700     3.0683 H       
  36 H36           -3.5407     2.9489     2.6874 H       
  37 H37           -5.9324     5.9323     0.7948 H       
  38 H38           -7.9444     4.5641     1.1544 H       
  39 H39           -2.6806     8.1219    -0.4469 H       
  40 H40           -1.6799     6.6584    -0.2628 H       
  41 H41           -4.4899     7.0993     0.8483 H       
  42 H42           -4.0297     5.9931    -0.4688 H       
  43 H43           -3.7543     6.6574     3.1715 H       
  44 H44           -2.7586     5.2295     3.5457 H       
  45 H45           -0.8676     6.1704     2.3025 H       
  46 H46           -1.4341     7.3731     3.4900 H       
  47 H47           -2.1978    11.8806     5.3324 H       
  48 H48            0.4002     8.2864     3.1486 H       
  49 H49            2.3595    10.7587     6.4197 H       
  50 H50            1.3299     6.9328     5.1729 H       
  51 H51            3.3546     5.9206     7.5345 H       
  52 H52            3.5746     5.6437     5.7900 H       
  53 H53            4.7713     6.5991     6.6973 H       
  54 H54           -4.1001    10.5805     3.1558 H       
  55 H55           -3.4064    12.2130     3.3049 H       
  56 H56           -3.0665    11.2300     1.8604 H       
  57 H57            0.6638    10.4815     7.3088 H       
  58 H58            1.2961    12.8123     6.8927 H       
  59 H59           -0.2751    13.1581     6.0484 H       
  60 H60            0.1719    12.4876     9.0461 H       
  61 H61           -1.0986    13.5650     8.3207 H       
  62 H62           -2.2012    11.6744     7.2178 H       
  63 H63           -1.4375    10.7064     8.5523 H       
@<TRIPOS>BOND
   1    1    2 1
   2    1    8 3
   3    2    3 ar
   4    2    7 ar
   5    3    4 ar
   6    3   35 1
   7    4    5 ar
   8    4   36 1
   9    5    6 ar
  10    5   12 1
  11    6    7 ar
  12    6   37 1
  13    7   38 1
  14    9   10 1
  15    9   14 1
  16    9   16 am
  17   10   11 1
  18   10   39 1
  19   10   40 1
  20   11   12 1
  21   11   41 1
  22   11   42 1
  23   12   13 1
  24   12   15 1
  25   13   14 1
  26   13   43 1
  27   13   44 1
  28   14   45 1
  29   14   46 1
  30   16   17 1
  31   16   23 2
  32   17   18 ar
  33   17   22 ar
  34   18   19 ar
  35   18   30 1
  36   19   20 ar
  37   19   47 1
  38   20   21 ar
  39   20   31 1
  40   21   22 ar
  41   21   27 1
  42   22   48 1
  43   24   25 2
  44   24   28 1
  45   24   29 1
  46   25   26 1
  47   26   27 2
  48   26   49 1
  49   27   28 1
  50   28   50 1
  51   29   51 1
  52   29   52 1
  53   29   53 1
  54   30   54 1
  55   30   55 1
  56   30   56 1
  57   31   32 1
  58   31   34 1
  59   31   57 1
  60   32   33 1
  61   32   58 1
  62   32   59 1
  63   33   34 1
  64   33   60 1
  65   33   61 1
  66   34   62 1
  67   34   63 1

#	End of record

