#	Name: ASD01884992
#	Creating user name:	WinNT
#	Creation time:	15. 06. 2019 19:49

#	Modifying user name:	WinNT
#	Modification time:	15. 06. 2019 19:49

#	Program:	/corina/corina34_cracker 3.40 0067  02.08.2006

@<TRIPOS>MOLECULE
ASD01884992
  52   56    0    0    0
SMALL
NO_CHARGES


@<TRIPOS>ATOM
   1 C1            -0.0166     1.3752     0.0096 C.ar    
   2 C2             0.0021    -0.0041     0.0020 C.ar    
   3 C3            -1.1980    -0.7166     0.0096 C.ar    
   4 C4            -2.4130    -0.0319     0.0249 C.ar    
   5 C5            -2.4269     1.3469     0.0325 C.ar    
   6 C6            -1.2317     2.0554     0.0307 C.ar    
   7 C7            -1.1813    -2.1977     0.0010 C.2     
   8 C8            -1.6672    -2.9076     1.0833 C.2     
   9 C9            -0.6729    -2.9007    -1.1185 C.2     
  10 C10           -0.6590    -4.2467    -1.1244 C.2     
  11 N11           -1.1324    -4.9557    -0.0580 N.pl3   
  12 C12           -1.6384    -4.3119     1.0454 C.2     
  13 C13           -1.2408    -6.2873     0.2067 C.2     
  14 N14           -1.7736    -6.4107     1.3948 N.2     
  15 N15           -2.0133    -5.2518     1.8997 N.2     
  16 C16           -0.8234    -7.4133    -0.7037 C.3     
  17 N17           -1.2490     3.4518     0.0383 N.pl3   
  18 F18            1.1442     2.0664     0.0022 F       
  19 C19            0.2398    -8.3837    -0.1854 C.3     
  20 C20           -1.2181    -8.8343    -0.2964 C.3     
  21 C21           -2.5266     4.1686     0.0482 C.3     
  22 C22           -2.2696     5.6535     0.0551 C.ar    
  23 C23           -2.1556     6.3511    -1.1393 C.ar    
  24 C24           -2.1506     6.3356     1.2498 C.ar    
  25 N25           -1.9259     7.6356     1.2668 N.ar    
  26 C26           -1.8059     8.3338     0.1498 C.ar    
  27 C27           -1.9194     7.7140    -1.0878 C.ar    
  28 O28           -1.5751     9.6693     0.2137 O.3     
  29 C29           -1.4742    10.2486     1.5161 C.3     
  30 C30           -2.2189    -2.1861     2.2858 C.3     
  31 F31           -3.6081    -2.0732     2.1651 F       
  32 F32           -1.9085    -2.9059     3.4445 F       
  33 F33           -1.6523    -0.9093     2.3641 F       
  34 H34            0.9442    -0.5319    -0.0102 H       
  35 H35           -3.3427    -0.5815     0.0305 H       
  36 H36           -3.3679     1.8767     0.0443 H       
  37 H37           -0.2952    -2.3549    -1.9705 H       
  38 H38           -0.2690    -4.7722    -1.9835 H       
  39 H39           -0.8146    -7.1786    -1.7681 H       
  40 H40           -0.4150     3.9472     0.0371 H       
  41 H41            0.9480    -8.7878    -0.9088 H       
  42 H42            0.6374    -8.2077     0.8141 H       
  43 H43           -1.7797    -8.9547     0.6300 H       
  44 H44           -1.4691    -9.5348    -1.0930 H       
  45 H45           -3.0991     3.9030    -0.8405 H       
  46 H46           -3.0907     3.8934     0.9394 H       
  47 H47           -2.2488     5.8421    -2.0872 H       
  48 H48           -2.2429     5.7983     2.1821 H       
  49 H49           -1.8209     8.2871    -1.9979 H       
  50 H50           -1.2894    11.3189     1.4244 H       
  51 H51           -2.4052    10.0860     2.0592 H       
  52 H52           -0.6512     9.7829     2.0582 H       
@<TRIPOS>BOND
   1    1    2 ar
   2    1   18 1
   3    1    6 ar
   4    2    3 ar
   5    2   34 1
   6    3    4 ar
   7    3    7 1
   8    4    5 ar
   9    4   35 1
  10    5    6 ar
  11    5   36 1
  12    6   17 1
  13    7    8 2
  14    7    9 1
  15    8   30 1
  16    8   12 1
  17    9   10 2
  18    9   37 1
  19   10   11 1
  20   10   38 1
  21   11   12 1
  22   11   13 1
  23   12   15 2
  24   13   14 2
  25   13   16 1
  26   14   15 1
  27   16   19 1
  28   16   20 1
  29   16   39 1
  30   17   21 1
  31   17   40 1
  32   19   20 1
  33   19   41 1
  34   19   42 1
  35   20   43 1
  36   20   44 1
  37   21   22 1
  38   21   45 1
  39   21   46 1
  40   22   23 ar
  41   22   24 ar
  42   23   27 ar
  43   23   47 1
  44   24   25 ar
  45   24   48 1
  46   25   26 ar
  47   26   27 ar
  48   26   28 1
  49   27   49 1
  50   28   29 1
  51   29   50 1
  52   29   51 1
  53   29   52 1
  54   30   31 1
  55   30   32 1
  56   30   33 1

#	End of record

