#	Name: ASD05730054
#	Creating user name:	WinNT
#	Creation time:	15. 06. 2019 21:02

#	Modifying user name:	WinNT
#	Modification time:	15. 06. 2019 21:02

#	Program:	/corina/corina34_cracker 3.40 0067  02.08.2006

@<TRIPOS>MOLECULE
ASD05730054
  88   93    0    0    0
SMALL
NO_CHARGES


@<TRIPOS>ATOM
   1 O1             0.2150     1.4974     0.8700 O.3     
   2 C2             0.2030     0.1487     0.6971 C.ar    
   3 C3            -0.7872    -0.4427    -0.0736 C.ar    
   4 C4            -0.8000    -1.8123    -0.2496 C.ar    
   5 C5             0.1789    -2.5976     0.3449 C.ar    
   6 C6             1.1701    -2.0047     1.1159 C.ar    
   7 C7             1.1843    -0.6345     1.2870 C.ar    
   8 N8             0.1663    -3.9864     0.1673 N.pl3   
   9 C9             1.3532    -4.6711    -0.0072 C.ar    
  10 N10            1.3243    -5.9941    -0.0610 N.ar    
  11 C11            2.4450    -6.6871    -0.2283 C.ar    
  12 C12            3.6646    -5.9859    -0.3472 C.ar    
  13 C13            3.6419    -4.5844    -0.2837 C.ar    
  14 N14            2.4811    -3.9782    -0.1203 N.ar    
  15 N15            2.4245    -8.0578    -0.2847 N.am    
  16 C16            3.5640    -8.7556    -0.4541 C.2     
  17 C17            4.8460    -8.0592    -0.5804 C.2     
  18 C18            4.8761    -6.6913    -0.5266 C.2     
  19 C19            1.1503    -8.7697    -0.1590 C.3     
  20 O20            3.5281    -9.9723    -0.5020 O.2     
  21 C21            6.0992    -8.8278    -0.7653 C.ar    
  22 C22            0.5312    -8.9560    -1.5458 C.3     
  23 C23            6.6694    -9.5063     0.3112 C.ar    
  24 C24            6.7100    -8.8802    -2.0180 C.ar    
  25 C25            7.8765    -9.5979    -2.1841 C.ar    
  26 C26            8.4405   -10.2648    -1.1109 C.ar    
  27 C27            7.8365   -10.2209     0.1327 C.ar    
  28 C28            6.0968    -8.1547    -3.1880 C.3     
  29 S29            8.5625   -11.0729     1.4934 S.o2    
  30 C30            9.6800    -9.8573     2.2444 C.3     
  31 O31            7.4694   -11.3469     2.3589 O.2     
  32 O32            9.3030   -12.1264     0.8924 O.2     
  33 C33           -2.0975     2.3087     0.9297 C.3     
  34 C34           -0.7605     2.2526     0.1488 C.3     
  35 C35           10.4726   -10.5199     3.3754 C.3     
  36 C36           11.4681    -9.5091     3.9506 C.3     
  37 O37           12.3279    -9.0434     2.9084 O.3     
  38 C38           11.6467    -8.3731     1.8460 C.3     
  39 C39           10.6584    -9.3382     1.1862 C.3     
  40 C40           -1.7360    -8.8553    -0.7018 C.3     
  41 N41           -0.7465    -9.6698    -1.4197 N.3     
  42 N42           -2.7422     3.5425     0.4116 N.3     
  43 C43           -1.6537     4.5319     0.2575 C.3     
  44 C44           -0.3474     3.7399     0.0633 C.3     
  45 C45           -3.7692     4.0302     1.3419 C.3     
  46 C46           -1.2548   -10.0759    -2.7368 C.3     
  47 H47           -1.5484     0.1682    -0.5359 H       
  48 H48           -1.5715    -2.2726    -0.8491 H       
  49 H49            1.9316    -2.6148     1.5789 H       
  50 H50            1.9551    -0.1733     1.8866 H       
  51 H51           -0.6759    -4.4677     0.1669 H       
  52 H52            4.5547    -4.0137    -0.3703 H       
  53 H53            5.8117    -6.1596    -0.6177 H       
  54 H54            1.3223    -9.7451     0.2960 H       
  55 H55            0.4711    -8.1913     0.4673 H       
  56 H56            0.3591    -7.9806    -2.0008 H       
  57 H57            1.2103    -9.5344    -2.1721 H       
  58 H58            6.1988    -9.4724     1.2827 H       
  59 H59            8.3503    -9.6395    -3.1537 H       
  60 H60            9.3537   -10.8253    -1.2458 H       
  61 H61            6.4970    -7.1421    -3.2378 H       
  62 H62            6.3350    -8.6854    -4.1098 H       
  63 H63            5.0149    -8.1121    -3.0624 H       
  64 H64            9.0990    -9.0263     2.6446 H       
  65 H65           -2.7088     1.4336     0.7092 H       
  66 H66           -1.9142     2.3912     2.0010 H       
  67 H67           -0.9122     1.8338    -0.8461 H       
  68 H68            9.7877   -10.8432     4.1593 H       
  69 H69           11.0134   -11.3819     2.9847 H       
  70 H70           10.9247    -8.6662     4.3774 H       
  71 H71           12.0646    -9.9880     4.7271 H       
  72 H72           11.1056    -7.5153     2.2453 H       
  73 H73           12.3719    -8.0335     1.1064 H       
  74 H74           11.2029   -10.1763     0.7513 H       
  75 H75           10.1063    -8.8163     0.4046 H       
  76 H76           -1.9066    -7.9269    -1.2469 H       
  77 H77           -2.6725    -9.4075    -0.6226 H       
  78 H78           -1.3632    -8.6271     0.2967 H       
  79 H79           -1.8416     5.1579    -0.6148 H       
  80 H80           -1.5838     5.1495     1.1530 H       
  81 H81            0.3626     3.9813     0.8542 H       
  82 H82            0.0849     3.9569    -0.9135 H       
  83 H83           -3.3104     4.2536     2.3050 H       
  84 H84           -4.2251     4.9343     0.9382 H       
  85 H85           -4.5340     3.2648     1.4726 H       
  86 H86           -1.4080    -9.1917    -3.3556 H       
  87 H87           -0.5321   -10.7351    -3.2177 H       
  88 H88           -2.2015   -10.6022    -2.6144 H       
@<TRIPOS>BOND
   1    1    2 1
   2    1   34 1
   3    2    3 ar
   4    2    7 ar
   5    3    4 ar
   6    3   47 1
   7    4    5 ar
   8    4   48 1
   9    5    6 ar
  10    5    8 1
  11    6    7 ar
  12    6   49 1
  13    7   50 1
  14    8    9 1
  15    8   51 1
  16    9   10 ar
  17    9   14 ar
  18   10   11 ar
  19   11   12 ar
  20   11   15 1
  21   12   13 ar
  22   12   18 1
  23   13   14 ar
  24   13   52 1
  25   15   16 am
  26   15   19 1
  27   16   17 1
  28   16   20 2
  29   17   18 2
  30   17   21 1
  31   18   53 1
  32   19   22 1
  33   19   54 1
  34   19   55 1
  35   21   23 ar
  36   21   24 ar
  37   22   41 1
  38   22   56 1
  39   22   57 1
  40   23   27 ar
  41   23   58 1
  42   24   25 ar
  43   24   28 1
  44   25   26 ar
  45   25   59 1
  46   26   27 ar
  47   26   60 1
  48   27   29 1
  49   28   61 1
  50   28   62 1
  51   28   63 1
  52   29   30 1
  53   29   31 2
  54   29   32 2
  55   30   35 1
  56   30   39 1
  57   30   64 1
  58   33   34 1
  59   33   42 1
  60   33   65 1
  61   33   66 1
  62   34   44 1
  63   34   67 1
  64   35   36 1
  65   35   68 1
  66   35   69 1
  67   36   37 1
  68   36   70 1
  69   36   71 1
  70   37   38 1
  71   38   39 1
  72   38   72 1
  73   38   73 1
  74   39   74 1
  75   39   75 1
  76   40   41 1
  77   40   76 1
  78   40   77 1
  79   40   78 1
  80   41   46 1
  81   42   43 1
  82   42   45 1
  83   43   44 1
  84   43   79 1
  85   43   80 1
  86   44   81 1
  87   44   82 1
  88   45   83 1
  89   45   84 1
  90   45   85 1
  91   46   86 1
  92   46   87 1
  93   46   88 1

#	End of record

