#	Name: ASD01911885
#	Creating user name:	WinNT
#	Creation time:	15. 06. 2019 19:58

#	Modifying user name:	WinNT
#	Modification time:	15. 06. 2019 19:58

#	Program:	/corina/corina34_cracker 3.40 0067  02.08.2006

@<TRIPOS>MOLECULE
ASD01911885
  37   39    0    0    0
SMALL
NO_CHARGES


@<TRIPOS>ATOM
   1 C1            -1.0607    -0.5022    -2.0828 C.ar    
   2 C2            -1.0562     0.0561    -0.8084 C.ar    
   3 C3            -1.0048     1.4364    -0.6774 C.ar    
   4 N4            -0.9611     2.2125    -1.7422 N.ar    
   5 C5            -0.9640     1.7167    -2.9638 C.ar    
   6 C6            -1.0133     0.3499    -3.1753 C.ar    
   7 O7            -1.1020    -0.7392     0.2926 O.3     
   8 C8            -1.1526    -2.0843     0.1062 C.ar    
   9 C9            -0.0021    -2.7818    -0.2364 C.ar    
  10 C10           -0.0520    -4.1496    -0.4257 C.ar    
  11 C11           -1.2465    -4.8274    -0.2754 C.ar    
  12 C12           -2.4009    -4.1348     0.0672 C.ar    
  13 C13           -2.3517    -2.7616     0.2635 C.ar    
  14 N14           -3.6100    -4.8209     0.2190 N.am    
  15 C15           -4.7722    -4.2163    -0.0975 C.2     
  16 C16           -6.0562    -4.9019     0.1603 C.ar    
  17 O17           -4.7645    -3.1071    -0.5950 O.2     
  18 C18           -6.0668    -6.1763     0.7318 C.ar    
  19 C19           -7.2653    -6.8186     0.9730 C.ar    
  20 C20           -8.4604    -6.2070     0.6516 C.ar    
  21 C21           -8.4646    -4.9319     0.0796 C.ar    
  22 C22           -7.2589    -4.2758    -0.1611 C.ar    
  23 C23           -9.7052    -4.2987    -0.2533 C.1     
  24 Cl24          -1.0159    -0.2897    -4.7892 Cl      
  25 N25          -10.6893    -3.7964    -0.5174 N.1     
  26 H26           -1.0958    -1.5732    -2.2176 H       
  27 H27           -1.0009     1.8798     0.3074 H       
  28 H28           -0.9276     2.3860    -3.8106 H       
  29 H29            0.9329    -2.2547    -0.3553 H       
  30 H30            0.8444    -4.6898    -0.6921 H       
  31 H31           -1.2828    -5.8965    -0.4247 H       
  32 H32           -3.2476    -2.2207     0.5303 H       
  33 H33           -3.6122    -5.7319     0.5520 H       
  34 H34           -5.1354    -6.6607     0.9854 H       
  35 H35           -7.2676    -7.8041     1.4148 H       
  36 H36           -9.3941    -6.7152     0.8421 H       
  37 H37           -7.2564    -3.2902    -0.6025 H       
@<TRIPOS>BOND
   1    1    2 ar
   2    1    6 ar
   3    1   26 1
   4    2    3 ar
   5    2    7 1
   6    3    4 ar
   7    3   27 1
   8    4    5 ar
   9    5    6 ar
  10    5   28 1
  11    6   24 1
  12    7    8 1
  13    8    9 ar
  14    8   13 ar
  15    9   10 ar
  16    9   29 1
  17   10   11 ar
  18   10   30 1
  19   11   12 ar
  20   11   31 1
  21   12   13 ar
  22   12   14 1
  23   13   32 1
  24   14   15 am
  25   14   33 1
  26   15   16 1
  27   15   17 2
  28   16   18 ar
  29   16   22 ar
  30   18   19 ar
  31   18   34 1
  32   19   20 ar
  33   19   35 1
  34   20   21 ar
  35   20   36 1
  36   21   22 ar
  37   21   23 1
  38   22   37 1
  39   23   25 3

#	End of record

