#	Name: ASD05430095
#	Creating user name:	WinNT
#	Creation time:	15. 06. 2019 20:59

#	Modifying user name:	WinNT
#	Modification time:	15. 06. 2019 20:59

#	Program:	/corina/corina34_cracker 3.40 0067  02.08.2006

@<TRIPOS>MOLECULE
ASD05430095
  70   76    0    0    0
SMALL
NO_CHARGES


@<TRIPOS>ATOM
   1 F1             7.3722     5.7986    -5.4419 F       
   2 C2            -0.0302     1.3652     0.0609 C.ar    
   3 C3             0.0029     0.0175    -0.3333 C.ar    
   4 C4             1.2127    -0.5896    -0.6226 C.ar    
   5 C5             2.3967     0.1178    -0.5274 C.ar    
   6 C6             2.3873     1.4583    -0.1370 C.ar    
   7 C7             1.1668     2.0863     0.1584 C.ar    
   8 O8             4.8678     0.1850     0.1618 O.3     
   9 C9             4.8248     1.5445     0.0385 C.2     
  10 C10            3.6477     2.2076    -0.0358 C.2     
  11 C11            6.0982    -0.4683    -0.1594 C.3     
  12 C12            6.9323     0.2773    -1.2075 C.3     
  13 N13            7.1397     1.6532    -0.7494 N.pl3   
  14 C14            6.1128     2.2606    -0.0101 C.2     
  15 C15            8.0878     3.3174    -2.2360 C.ar    
  16 C16            9.0958     4.1319    -2.7176 C.ar    
  17 C17            8.8567     4.9652    -3.7938 C.ar    
  18 C18            7.6072     4.9841    -4.3899 C.ar    
  19 C19            6.5984     4.1679    -3.9068 C.ar    
  20 C20            6.8398     3.3354    -2.8304 C.ar    
  21 N21           -1.1885    -0.7123    -0.4333 N.pl3   
  22 C22           -1.5903    -1.4744    -1.4997 C.2     
  23 C23           -2.7886    -1.9972    -1.1762 C.2     
  24 N24           -3.1141    -1.5694     0.0525 N.2     
  25 C25           -2.1612    -0.8034     0.5103 C.2     
  26 C26            6.9096    -0.8574     1.0790 C.3     
  27 S27            7.5482    -2.3110     0.2012 S.o     
  28 C28            5.9126    -1.9510    -0.4962 C.3     
  29 O29            8.5542    -1.9057    -0.7170 O.2     
  30 C30           -3.6203    -2.9052    -2.0450 C.3     
  31 N31            0.8163     3.3574     0.5602 N.pl3   
  32 C32           -0.5375     3.3814     0.6923 C.2     
  33 N33           -1.0340     2.2157     0.3959 N.2     
  34 C34            8.3515     2.4047    -1.0663 C.3     
  35 C35            8.7530     3.2390     0.1554 C.3     
  36 N36            7.5818     3.9579     0.6627 N.pl3   
  37 N37            6.3103     3.3736     0.6195 N.2     
  38 C38            9.4802     1.4328    -1.4162 C.3     
  39 C39            1.7320     4.4754     0.8009 C.3     
  40 C40           -3.9424    -4.1897    -1.2788 C.3     
  41 H41            1.2319    -1.6262    -0.9253 H       
  42 H42            3.3334    -0.3688    -0.7558 H       
  43 H43            3.6342     3.2874    -0.0206 H       
  44 H44            7.8961    -0.2175    -1.3274 H       
  45 H45            6.4015     0.2848    -2.1595 H       
  46 H46           10.0703     4.1173    -2.2522 H       
  47 H47            9.6442     5.6016    -4.1696 H       
  48 H48            5.6234     4.1818    -4.3710 H       
  49 H49            6.0531     2.6987    -2.4534 H       
  50 H50           -1.0497    -1.6261    -2.4223 H       
  51 H51           -2.1511    -0.3180     1.4750 H       
  52 H52            7.6848    -0.1328     1.3284 H       
  53 H53            6.2868    -1.1139     1.9360 H       
  54 H54            5.0983    -2.4176     0.0582 H       
  55 H55            5.8519    -2.1427    -1.5675 H       
  56 H56           -4.5481    -2.4005    -2.3145 H       
  57 H57           -3.0646    -3.1515    -2.9498 H       
  58 H58           -1.1153     4.2419     0.9958 H       
  59 H59            9.1404     2.5810     0.9332 H       
  60 H60            9.5230     3.9554    -0.1311 H       
  61 H61            7.6884     4.8482     1.0328 H       
  62 H62            9.1893     0.8336    -2.2790 H       
  63 H63           10.3837     1.9951    -1.6523 H       
  64 H64            9.6718     0.7774    -0.5666 H       
  65 H65            1.9483     4.9774    -0.1421 H       
  66 H66            1.2699     5.1815     1.4908 H       
  67 H67            2.6592     4.0990     1.2331 H       
  68 H68           -3.0147    -4.6944    -1.0093 H       
  69 H69           -4.4981    -3.9434    -0.3740 H       
  70 H70           -4.5440    -4.8465    -1.9072 H       
@<TRIPOS>BOND
   1    1   18 1
   2    2    3 ar
   3    2    7 ar
   4    2   33 1
   5    3    4 ar
   6    3   21 1
   7    4    5 ar
   8    4   41 1
   9    5    6 ar
  10    5   42 1
  11    6    7 ar
  12    6   10 1
  13    7   31 1
  14    8    9 1
  15    8   11 1
  16    9   10 2
  17    9   14 1
  18   10   43 1
  19   11   12 1
  20   11   26 1
  21   11   28 1
  22   12   13 1
  23   12   44 1
  24   12   45 1
  25   13   14 1
  26   13   34 1
  27   14   37 2
  28   15   16 ar
  29   15   20 ar
  30   15   34 1
  31   16   17 ar
  32   16   46 1
  33   17   18 ar
  34   17   47 1
  35   18   19 ar
  36   19   20 ar
  37   19   48 1
  38   20   49 1
  39   21   22 1
  40   21   25 1
  41   22   23 2
  42   22   50 1
  43   23   24 1
  44   23   30 1
  45   24   25 2
  46   25   51 1
  47   26   27 1
  48   26   52 1
  49   26   53 1
  50   27   28 1
  51   27   29 2
  52   28   54 1
  53   28   55 1
  54   30   40 1
  55   30   56 1
  56   30   57 1
  57   31   32 1
  58   31   39 1
  59   32   33 2
  60   32   58 1
  61   34   35 1
  62   34   38 1
  63   35   36 1
  64   35   59 1
  65   35   60 1
  66   36   37 1
  67   36   61 1
  68   38   62 1
  69   38   63 1
  70   38   64 1
  71   39   65 1
  72   39   66 1
  73   39   67 1
  74   40   68 1
  75   40   69 1
  76   40   70 1

#	End of record

