#	Name: ASD01122017
#	Creating user name:	WinNT
#	Creation time:	15. 06. 2019 18:59

#	Modifying user name:	WinNT
#	Modification time:	15. 06. 2019 18:59

#	Program:	/corina/corina34_cracker 3.40 0067  02.08.2006

@<TRIPOS>MOLECULE
ASD01122017
  67   70    0    0    0
SMALL
NO_CHARGES


@<TRIPOS>ATOM
   1 C1            -0.2069     1.8946     1.0063 C.2     
   2 S2            -0.0839     0.1674     0.6876 S.3     
   3 C3            -1.8382     0.0613     0.5634 C.2     
   4 C4            -2.3513     1.2896     0.7648 C.2     
   5 N5            -1.4548     2.2475     1.0041 N.2     
   6 C6            -3.8043     1.5563     0.7289 C.2     
   7 C7            -4.4701     2.4545     1.5027 C.2     
   8 C8            -5.8296     2.3776     1.1360 C.2     
   9 C9            -5.9249     1.4468     0.1675 C.2     
  10 O10           -4.6982     0.9560    -0.0800 O.3     
  11 P11           -7.4539     0.9438    -0.6691 P.3     
  12 C12           -2.6289    -1.1899     0.2798 C.3     
  13 N13            0.8638     2.7444     1.2308 N.pl3   
  14 O14           -8.5978     1.1023     0.2564 O.2     
  15 C15           -7.7121     1.9834    -2.1331 C.ar    
  16 C16           -2.8120    -1.3460    -1.2312 C.3     
  17 C17           -1.4492    -1.5705    -1.8895 C.3     
  18 C18           -3.7187    -2.5455    -1.5138 C.3     
  19 C19           -7.3218    -0.8015    -1.1788 C.3     
  20 C20           -8.6349    -1.2549    -1.7631 C.ar    
  21 C21           -8.8713    -1.1173    -3.1185 C.ar    
  22 C22          -10.0739    -1.5325    -3.6566 C.ar    
  23 C23          -11.0448    -2.0880    -2.8360 C.ar    
  24 C24          -10.8051    -2.2249    -1.4764 C.ar    
  25 C25           -9.5988    -1.8130    -0.9440 C.ar    
  26 O26          -12.2291    -2.4969    -3.3630 O.3     
  27 C27          -12.2064    -3.5968    -4.1327 C.2     
  28 O28          -11.1537    -4.1283    -4.3959 O.2     
  29 C29          -13.4938    -4.1684    -4.6683 C.3     
  30 C30           -8.4306     3.1599    -2.0262 C.ar    
  31 C31           -8.6290     3.9531    -3.1397 C.ar    
  32 C32           -8.1063     3.5685    -4.3659 C.ar    
  33 C33           -7.3853     2.3878    -4.4704 C.ar    
  34 C34           -7.1853     1.6008    -3.3529 C.ar    
  35 O35           -8.3005     4.3470    -5.4630 O.3     
  36 C36           -7.6441     5.5175    -5.5038 C.2     
  37 C37           -7.9132     6.4938    -6.6198 C.3     
  38 O38           -6.8376     5.7882    -4.6457 O.2     
  39 H39           -4.0407     3.1017     2.2531 H       
  40 H40           -6.6409     2.9555     1.5533 H       
  41 H41           -2.0938    -2.0546     0.6722 H       
  42 H42           -3.6055    -1.1189     0.7587 H       
  43 H43            1.7694     2.3971     1.2193 H       
  44 H44            0.7080     3.6869     1.3994 H       
  45 H45           -3.2673    -0.4427    -1.6372 H       
  46 H46           -1.5796    -1.6817    -2.9660 H       
  47 H47           -0.8033    -0.7159    -1.6882 H       
  48 H48           -0.9939    -2.4737    -1.4835 H       
  49 H49           -4.6895    -2.3856    -1.0448 H       
  50 H50           -3.8491    -2.6568    -2.5902 H       
  51 H51           -3.2633    -3.4488    -1.1077 H       
  52 H52           -6.5365    -0.9028    -1.9278 H       
  53 H53           -7.0785    -1.4157    -0.3119 H       
  54 H54           -8.1153    -0.6845    -3.7569 H       
  55 H55          -10.2583    -1.4245    -4.7153 H       
  56 H56          -11.5594    -2.6570    -0.8355 H       
  57 H57           -9.4100    -1.9235     0.1136 H       
  58 H58          -13.9919    -3.4232    -5.2885 H       
  59 H59          -13.2772    -5.0533    -5.2668 H       
  60 H60          -14.1434    -4.4422    -3.8369 H       
  61 H61           -8.8373     3.4588    -1.0714 H       
  62 H62           -9.1908     4.8716    -3.0558 H       
  63 H63           -6.9777     2.0861    -5.4240 H       
  64 H64           -6.6238     0.6817    -3.4337 H       
  65 H65           -8.7209     7.1653    -6.3283 H       
  66 H66           -7.0126     7.0743    -6.8199 H       
  67 H67           -8.2009     5.9482    -7.5185 H       
@<TRIPOS>BOND
   1    1    2 1
   2    1   13 1
   3    1    5 2
   4    2    3 1
   5    3    4 2
   6    3   12 1
   7    4    5 1
   8    4    6 1
   9    6    7 2
  10    6   10 1
  11    7    8 1
  12    7   39 1
  13    8    9 2
  14    8   40 1
  15    9   10 1
  16    9   11 1
  17   11   14 2
  18   11   15 1
  19   11   19 1
  20   12   16 1
  21   12   41 1
  22   12   42 1
  23   13   43 1
  24   13   44 1
  25   15   30 ar
  26   15   34 ar
  27   16   17 1
  28   16   18 1
  29   16   45 1
  30   17   46 1
  31   17   47 1
  32   17   48 1
  33   18   49 1
  34   18   50 1
  35   18   51 1
  36   19   20 1
  37   19   52 1
  38   19   53 1
  39   20   21 ar
  40   20   25 ar
  41   21   22 ar
  42   21   54 1
  43   22   23 ar
  44   22   55 1
  45   23   24 ar
  46   23   26 1
  47   24   25 ar
  48   24   56 1
  49   25   57 1
  50   26   27 1
  51   27   28 2
  52   27   29 1
  53   29   58 1
  54   29   59 1
  55   29   60 1
  56   30   31 ar
  57   30   61 1
  58   31   32 ar
  59   31   62 1
  60   32   33 ar
  61   32   35 1
  62   33   34 ar
  63   33   63 1
  64   34   64 1
  65   35   36 1
  66   36   37 1
  67   36   38 2
  68   37   65 1
  69   37   66 1
  70   37   67 1

#	End of record

