#	Name: ASD01816870
#	Creating user name:	WinNT
#	Creation time:	15. 06. 2019 19:36

#	Modifying user name:	WinNT
#	Modification time:	15. 06. 2019 19:36

#	Program:	/corina/corina34_cracker 3.40 0067  02.08.2006

@<TRIPOS>MOLECULE
ASD01816870
  52   55    0    0    0
SMALL
NO_CHARGES


@<TRIPOS>ATOM
   1 C1            -0.0226     1.3793     0.1158 C.ar    
   2 C2             0.0092    -0.0086     0.2285 C.ar    
   3 C3             1.1864    -0.6922     0.1409 C.ar    
   4 C4             2.3855     0.0115    -0.0659 C.ar    
   5 C5             2.3564     1.4262    -0.1812 C.ar    
   6 C6             1.1192     2.0953    -0.0849 C.ar    
   7 C7             3.6190    -0.6587    -0.1611 C.ar    
   8 C8             4.7452     0.0862    -0.3620 C.ar    
   9 C9             4.6488     1.4818    -0.4674 C.ar    
  10 N10            3.4881     2.1015    -0.3773 N.ar    
  11 C11            5.8800     2.2784    -0.6855 C.2     
  12 N12            5.8050     3.6201    -0.7890 N.am    
  13 O13            6.9566     1.7217    -0.7710 O.2     
  14 C14            7.0216     4.4072    -1.0046 C.3     
  15 C15            6.8100     5.8313    -0.4815 C.3     
  16 C16            3.6950    -2.1592    -0.0439 C.3     
  17 C17            5.1288    -2.6020    -0.1828 C.ar    
  18 C18            5.9414    -2.7100     0.9376 C.ar    
  19 C19            5.6465    -2.9100    -1.4249 C.ar    
  20 N20            6.9007    -3.2986    -1.5575 N.ar    
  21 C21            7.7071    -3.4083    -0.5150 C.ar    
  22 C22            7.2518    -3.1200     0.7654 C.ar    
  23 C23            8.0567     6.6674    -0.7817 C.3     
  24 O24            8.3091     6.6558    -2.1883 O.3     
  25 C25            8.5612     5.3556    -2.7251 C.3     
  26 C26            7.3347     4.4667    -2.5029 C.3     
  27 O27            6.5887     5.7936     0.9298 O.3     
  28 F28            1.0659     3.4410    -0.1918 F       
  29 F29            1.1998    -2.0385     0.2527 F       
  30 O30            8.9896    -3.8115    -0.6972 O.3     
  31 C31            9.3954    -4.0985    -2.0370 C.3     
  32 H32           -0.9684     1.8962     0.1843 H       
  33 H33           -0.9110    -0.5511     0.3877 H       
  34 H34            5.7078    -0.3974    -0.4392 H       
  35 H35            4.9455     4.0645    -0.7208 H       
  36 H36            7.8541     3.9441    -0.4749 H       
  37 H37            5.9457     6.2759    -0.9749 H       
  38 H38            3.3122    -2.4675     0.9290 H       
  39 H39            3.0957    -2.6160    -0.8315 H       
  40 H40            5.5597    -2.4789     1.9211 H       
  41 H41            5.0172    -2.8322    -2.2991 H       
  42 H42            7.9130    -3.2102     1.6145 H       
  43 H43            7.8951     7.6930    -0.4499 H       
  44 H44            8.9128     6.2455    -0.2553 H       
  45 H45            8.7630     5.4362    -3.7932 H       
  46 H46            9.4239     4.9165    -2.2241 H       
  47 H47            7.5412     3.4621    -2.8720 H       
  48 H48            6.4810     4.8838    -3.0371 H       
  49 H49            6.4468     6.6629     1.3290 H       
  50 H50            8.7764    -4.8998    -2.4404 H       
  51 H51            9.2792    -3.2054    -2.6510 H       
  52 H52           10.4402    -4.4091    -2.0416 H       
@<TRIPOS>BOND
   1    1    2 ar
   2    1    6 ar
   3    1   32 1
   4    2    3 ar
   5    2   33 1
   6    3    4 ar
   7    3   29 1
   8    4    5 ar
   9    4    7 ar
  10    5    6 ar
  11    5   10 ar
  12    6   28 1
  13    7    8 ar
  14    7   16 1
  15    8    9 ar
  16    8   34 1
  17    9   10 ar
  18    9   11 1
  19   11   12 am
  20   11   13 2
  21   12   14 1
  22   12   35 1
  23   14   15 1
  24   14   26 1
  25   14   36 1
  26   15   23 1
  27   15   27 1
  28   15   37 1
  29   16   17 1
  30   16   38 1
  31   16   39 1
  32   17   18 ar
  33   17   19 ar
  34   18   22 ar
  35   18   40 1
  36   19   20 ar
  37   19   41 1
  38   20   21 ar
  39   21   22 ar
  40   21   30 1
  41   22   42 1
  42   23   24 1
  43   23   43 1
  44   23   44 1
  45   24   25 1
  46   25   26 1
  47   25   45 1
  48   25   46 1
  49   26   47 1
  50   26   48 1
  51   27   49 1
  52   30   31 1
  53   31   50 1
  54   31   51 1
  55   31   52 1

#	End of record

