#	Name: ASD03730238
#	Creating user name:	WinNT
#	Creation time:	15. 06. 2019 20:44

#	Modifying user name:	WinNT
#	Modification time:	15. 06. 2019 20:44

#	Program:	/corina/corina34_cracker 3.40 0067  02.08.2006

@<TRIPOS>MOLECULE
ASD03730238
  62   67    0    0    0
SMALL
NO_CHARGES


@<TRIPOS>ATOM
   1 N1             1.4121     2.0574    -1.8456 N.3     
   2 C2             1.3980     0.5836    -2.0005 C.3     
   3 O3             2.7894     0.2522    -2.1587 O.3     
   4 C4             3.4978     1.2223    -1.5100 C.ar    
   5 C5             2.6847     2.3373    -1.3105 C.ar    
   6 C6             4.8072     1.2397    -1.0602 C.ar    
   7 C7             5.3189     2.3609    -0.4146 C.ar    
   8 C8             4.5009     3.4723    -0.2354 C.ar    
   9 C9             3.1936     3.4588    -0.6761 C.ar    
  10 O10            6.5581     2.5683     0.1172 O.3     
  11 C11            5.3400     4.5158     0.4517 C.3     
  12 C12            6.7702     3.9829     0.2865 C.3     
  13 N13            4.7655     6.6971     0.8186 N.am    
  14 C14            5.1767     5.8747    -0.1669 C.2     
  15 C15            4.9724     4.6898     1.8950 C.ar    
  16 C16            4.9232     3.8295     2.9833 C.ar    
  17 C17            4.5278     4.3114     4.2307 C.ar    
  18 C18            4.1881     5.6420     4.3743 C.ar    
  19 C19            4.2397     6.4974     3.2926 C.ar    
  20 C20            4.6350     6.0309     2.0400 C.ar    
  21 O21            5.3757     6.1732    -1.3255 O.2     
  22 C22            0.3487     2.5011    -0.9344 C.3     
  23 C23            0.6856     2.0656     0.4931 C.3     
  24 C24           -0.4219     2.5278     1.4421 C.3     
  25 C25           -0.0851     2.0922     2.8696 C.3     
  26 C26           -1.1926     2.5544     3.8186 C.3     
  27 C27            5.2897     2.4011     2.8196 C.ar    
  28 C28            6.6321     2.0273     2.7415 C.ar    
  29 C29            6.9697     0.6955     2.5890 C.ar    
  30 C30            5.9805    -0.2673     2.5136 C.ar    
  31 C31            4.6438     0.0972     2.5906 C.ar    
  32 C32            4.2957     1.4285     2.7492 C.ar    
  33 O33            3.6751    -0.8538     2.5159 O.3     
  34 C34            4.1056    -2.2073     2.3584 C.3     
  35 F35            7.6007     2.9663     2.8145 F       
  36 H36            0.9884     0.1075    -1.1097 H       
  37 H37            0.8314     0.2958    -2.8861 H       
  38 H38            5.4367     0.3753    -1.2116 H       
  39 H39            2.5655     4.3244    -0.5262 H       
  40 H40            7.3628     4.1813     1.1795 H       
  41 H41            7.2435     4.4118    -0.5967 H       
  42 H42            4.5820     7.6415     0.6946 H       
  43 H43            4.4871     3.6466     5.0808 H       
  44 H44            3.8795     6.0157     5.3394 H       
  45 H45            3.9718     7.5362     3.4175 H       
  46 H46            0.2669     3.5873    -0.9731 H       
  47 H47           -0.5985     2.0544    -1.2365 H       
  48 H48            0.7674     0.9793     0.5318 H       
  49 H49            1.6329     2.5123     0.7953 H       
  50 H50           -0.5037     3.6140     1.4034 H       
  51 H51           -1.3692     2.0811     1.1400 H       
  52 H52           -0.0032     1.0060     2.9083 H       
  53 H53            0.8622     2.5389     3.1718 H       
  54 H54           -1.2744     3.6407     3.7799 H       
  55 H55           -2.1398     2.1077     3.5165 H       
  56 H56           -0.9526     2.2441     4.8356 H       
  57 H57            8.0085     0.4066     2.5282 H       
  58 H58            6.2490    -1.3066     2.3941 H       
  59 H59            3.2555     1.7119     2.8140 H       
  60 H60            4.6797    -2.3010     1.4367 H       
  61 H61            4.7298    -2.4909     3.2058 H       
  62 H62            3.2355    -2.8622     2.3127 H       
@<TRIPOS>BOND
   1    1    2 1
   2    1    5 1
   3    1   22 1
   4    2    3 1
   5    2   36 1
   6    2   37 1
   7    3    4 1
   8    4    5 ar
   9    4    6 ar
  10    5    9 ar
  11    6    7 ar
  12    6   38 1
  13    7    8 ar
  14    7   10 1
  15    8    9 ar
  16    8   11 1
  17    9   39 1
  18   10   12 1
  19   11   12 1
  20   11   14 1
  21   11   15 1
  22   12   40 1
  23   12   41 1
  24   13   14 am
  25   13   20 1
  26   13   42 1
  27   14   21 2
  28   15   16 ar
  29   15   20 ar
  30   16   17 ar
  31   16   27 1
  32   17   18 ar
  33   17   43 1
  34   18   19 ar
  35   18   44 1
  36   19   20 ar
  37   19   45 1
  38   22   23 1
  39   22   46 1
  40   22   47 1
  41   23   24 1
  42   23   48 1
  43   23   49 1
  44   24   25 1
  45   24   50 1
  46   24   51 1
  47   25   26 1
  48   25   52 1
  49   25   53 1
  50   26   54 1
  51   26   55 1
  52   26   56 1
  53   27   28 ar
  54   27   32 ar
  55   28   29 ar
  56   28   35 1
  57   29   30 ar
  58   29   57 1
  59   30   31 ar
  60   30   58 1
  61   31   32 ar
  62   31   33 1
  63   32   59 1
  64   33   34 1
  65   34   60 1
  66   34   61 1
  67   34   62 1

#	End of record

