#	Name: ASD02562095
#	Creating user name:	WinNT
#	Creation time:	15. 06. 2019 20:25

#	Modifying user name:	WinNT
#	Modification time:	15. 06. 2019 20:25

#	Program:	/corina/corina34_cracker 3.40 0067  02.08.2006

@<TRIPOS>MOLECULE
ASD02562095
  51   54    0    0    0
SMALL
NO_CHARGES


@<TRIPOS>ATOM
   1 C1             0.0862     1.8413    -0.8007 C.ar    
   2 N2             0.5143     0.8977    -1.6234 N.ar    
   3 C3            -0.2147     0.5346    -2.6739 C.ar    
   4 C4            -1.4488     1.1658    -2.9017 C.ar    
   5 C5            -1.8638     2.1626    -2.0013 C.ar    
   6 N6            -1.0749     2.4597    -0.9748 N.ar    
   7 N7            -3.0711     2.8172    -2.1780 N.pl3   
   8 N8             0.8754     2.1922     0.2839 N.pl3   
   9 C9            -3.5228     3.7226    -1.2138 C.ar    
  10 C10            2.0708     1.5169     0.5234 C.ar    
  11 C11            3.2849     2.1807     0.3731 C.ar    
  12 C12           -4.2683     4.8311    -1.5949 C.ar    
  13 C13           -4.7131     5.7238    -0.6397 C.ar    
  14 C14           -4.4168     5.5154     0.6949 C.ar    
  15 C15           -3.6745     4.4131     1.0777 C.ar    
  16 C16           -3.2323     3.5130     0.1283 C.ar    
  17 C17            2.0469     0.1822     0.9177 C.ar    
  18 C18            3.2249    -0.4882     1.1556 C.ar    
  19 C19            4.4484     0.1739     1.0001 C.ar    
  20 C20            4.4677     1.5178     0.6085 C.ar    
  21 C21            3.3044     3.6274    -0.0486 C.3     
  22 C22            0.7291    -0.5295     1.0847 C.3     
  23 C23            5.7092    -0.5382     1.2531 C.2     
  24 C24            6.8881     0.1022     1.1025 C.2     
  25 C25            8.1164    -0.5916     1.3490 C.1     
  26 N26            9.0907    -1.1419     1.5445 N.1     
  27 N27           -0.0639    -0.3787    -3.6866 N.pl3   
  28 C28           -1.1676    -0.2911    -4.4837 C.2     
  29 N29           -1.9784     0.6153    -4.0215 N.2     
  30 C30           -4.9034     6.4919     1.7345 C.3     
  31 F31           -6.1639     6.0948     2.1934 F       
  32 F32           -4.0043     6.5190     2.8060 F       
  33 F33           -4.9937     7.7684     1.1691 F       
  34 H34           -3.6033     2.6473    -2.9710 H       
  35 H35            0.5955     2.9077     0.8761 H       
  36 H36           -4.4994     4.9948    -2.6371 H       
  37 H37           -5.2926     6.5858    -0.9353 H       
  38 H38           -3.4446     4.2535     2.1208 H       
  39 H39           -2.6529     2.6522     0.4279 H       
  40 H40            3.2054    -1.5236     1.4622 H       
  41 H41            5.4095     2.0323     0.4874 H       
  42 H42            3.2737     4.2640     0.8357 H       
  43 H43            4.2161     3.8299    -0.6106 H       
  44 H44            2.4373     3.8348    -0.6757 H       
  45 H45            0.4896    -1.0703     0.1692 H       
  46 H46            0.7986    -1.2328     1.9146 H       
  47 H47           -0.0541     0.1999     1.2913 H       
  48 H48            5.6925    -1.5737     1.5594 H       
  49 H49            6.9049     1.1377     0.7962 H       
  50 H50            0.6893    -0.9767    -3.8128 H       
  51 H51           -1.3422    -0.8860    -5.3680 H       
@<TRIPOS>BOND
   1    1    2 ar
   2    1    8 1
   3    1    6 ar
   4    2    3 ar
   5    3    4 ar
   6    3   27 1
   7    4    5 ar
   8    4   29 1
   9    5    6 ar
  10    5    7 1
  11    7    9 1
  12    7   34 1
  13    8   10 1
  14    8   35 1
  15    9   12 ar
  16    9   16 ar
  17   10   11 ar
  18   10   17 ar
  19   11   21 1
  20   11   20 ar
  21   12   13 ar
  22   12   36 1
  23   13   14 ar
  24   13   37 1
  25   14   15 ar
  26   14   30 1
  27   15   16 ar
  28   15   38 1
  29   16   39 1
  30   17   18 ar
  31   17   22 1
  32   18   19 ar
  33   18   40 1
  34   19   20 ar
  35   19   23 1
  36   20   41 1
  37   21   42 1
  38   21   43 1
  39   21   44 1
  40   22   45 1
  41   22   46 1
  42   22   47 1
  43   23   24 2
  44   23   48 1
  45   24   25 1
  46   24   49 1
  47   25   26 3
  48   27   28 1
  49   27   50 1
  50   28   29 2
  51   28   51 1
  52   30   31 1
  53   30   32 1
  54   30   33 1

#	End of record

