#	Name: ASD07300210
#	Creating user name:	WinNT
#	Creation time:	15. 06. 2019 21:09

#	Modifying user name:	WinNT
#	Modification time:	15. 06. 2019 21:09

#	Program:	/corina/corina34_cracker 3.40 0067  02.08.2006

@<TRIPOS>MOLECULE
ASD07300210
  52   56    0    0    0
SMALL
NO_CHARGES


@<TRIPOS>ATOM
   1 C1            -0.8593     0.9898    -0.1290 C.ar    
   2 C2            -1.0224    -0.3809    -0.3520 C.ar    
   3 C3             0.0629    -1.2295    -0.1925 C.ar    
   4 C4             1.2779    -0.6768     0.1857 C.ar    
   5 C5             1.3673     0.6874     0.3894 C.ar    
   6 N6             0.3188     1.4718     0.2306 N.ar    
   7 C7            -2.9733     0.6168    -0.6996 C.2     
   8 N8            -2.0978     1.5795    -0.3555 N.am    
   9 N9            -2.3523    -0.5781    -0.7118 N.am    
  10 O10           -4.1470     0.7991    -0.9638 O.2     
  11 C11           -2.3866     2.9476    -0.2434 C.ar    
  12 C12           -3.6708     3.4094    -0.4983 C.ar    
  13 C13           -3.9547     4.7561    -0.3874 C.ar    
  14 C14           -2.9568     5.6478    -0.0213 C.ar    
  15 C15           -1.6733     5.1868     0.2336 C.ar    
  16 C16           -1.3897     3.8396     0.1281 C.ar    
  17 O17           -3.2368     6.9738     0.0874 O.3     
  18 C18           -3.9132     7.3925     1.1815 C.2     
  19 N19           -4.2407     6.6360     2.1967 N.2     
  20 C20           -4.9115     7.3750     3.1189 C.ar    
  21 C21           -4.9944     8.6846     2.6168 C.ar    
  22 N22           -4.3497     8.6678     1.3918 N.pl3   
  23 C23           -5.4764     7.0780     4.3613 C.ar    
  24 C24           -6.1073     8.0687     5.0801 C.ar    
  25 C25           -6.1868     9.3596     4.5797 C.ar    
  26 C26           -5.6339     9.6694     3.3541 C.ar    
  27 C27           -4.1722     9.8069     0.4879 C.3     
  28 C28           -5.3588     9.8837    -0.4749 C.3     
  29 O29           -5.1857    10.9948    -1.3566 O.3     
  30 C30           -2.9719    -1.8647    -1.0387 C.3     
  31 C31           -3.5356    -2.4975     0.2352 C.3     
  32 H32           -0.0353    -2.2922    -0.3580 H       
  33 H33            2.1452    -1.3063     0.3200 H       
  34 H34            2.3126     1.1187     0.6838 H       
  35 H35           -4.4476     2.7154    -0.7837 H       
  36 H36           -4.9536     5.1154    -0.5860 H       
  37 H37           -0.8968     5.8813     0.5186 H       
  38 H38           -0.3915     3.4803     0.3305 H       
  39 H39           -5.4188     6.0746     4.7568 H       
  40 H40           -6.5439     7.8385     6.0408 H       
  41 H41           -6.6850    10.1274     5.1529 H       
  42 H42           -5.6987    10.6768     2.9702 H       
  43 H43           -4.1162    10.7270     1.0696 H       
  44 H44           -3.2508     9.6797    -0.0804 H       
  45 H45           -5.4148     8.9635    -1.0566 H       
  46 H46           -6.2802    10.0109     0.0934 H       
  47 H47           -5.9025    11.1048    -1.9963 H       
  48 H48           -3.7789    -1.7080    -1.7543 H       
  49 H49           -2.2242    -2.5280    -1.4737 H       
  50 H50           -2.7285    -2.6543     0.9509 H       
  51 H51           -4.2832    -1.8343     0.6702 H       
  52 H52           -3.9966    -3.4549    -0.0080 H       
@<TRIPOS>BOND
   1    1    2 ar
   2    1    6 ar
   3    1    8 1
   4    2    3 ar
   5    2    9 1
   6    3    4 ar
   7    3   32 1
   8    4    5 ar
   9    4   33 1
  10    5    6 ar
  11    5   34 1
  12    7    8 am
  13    7    9 am
  14    7   10 2
  15    8   11 1
  16    9   30 1
  17   11   12 ar
  18   11   16 ar
  19   12   13 ar
  20   12   35 1
  21   13   14 ar
  22   13   36 1
  23   14   15 ar
  24   14   17 1
  25   15   16 ar
  26   15   37 1
  27   16   38 1
  28   17   18 1
  29   18   19 2
  30   18   22 1
  31   19   20 1
  32   20   21 ar
  33   20   23 ar
  34   21   22 1
  35   21   26 ar
  36   22   27 1
  37   23   24 ar
  38   23   39 1
  39   24   25 ar
  40   24   40 1
  41   25   26 ar
  42   25   41 1
  43   26   42 1
  44   27   28 1
  45   27   43 1
  46   27   44 1
  47   28   29 1
  48   28   45 1
  49   28   46 1
  50   29   47 1
  51   30   31 1
  52   30   48 1
  53   30   49 1
  54   31   50 1
  55   31   51 1
  56   31   52 1

#	End of record

