#	Name: ASD05180003
#	Creating user name:	WinNT
#	Creation time:	15. 06. 2019 20:57

#	Modifying user name:	WinNT
#	Modification time:	15. 06. 2019 20:57

#	Program:	/corina/corina34_cracker 3.40 0067  02.08.2006

@<TRIPOS>MOLECULE
ASD05180003
  26   26    0    0    0
SMALL
NO_CHARGES


@<TRIPOS>ATOM
   1 C1             0.0436     1.2261    -0.2559 C.ar    
   2 C2            -0.0892    -0.1453     0.0324 C.ar    
   3 C3            -1.3494    -0.6723     0.3025 C.ar    
   4 C4            -2.4603     0.1501     0.2865 C.ar    
   5 C5            -2.3297     1.4981     0.0031 C.ar    
   6 C6            -1.0860     2.0402    -0.2618 C.ar    
   7 C7             1.3753     1.7999    -0.5447 C.2     
   8 O8             1.8466     2.8173     0.2017 O.3     
   9 O9             0.9573    -2.3525     0.1902 O.3     
  10 C10            1.1020    -1.0209     0.0478 C.2     
  11 O11            2.0443     1.3538    -1.4549 O.2     
  12 O12            2.2110    -0.5395    -0.0680 O.2     
  13 C13           -3.8221    -0.4251     0.5789 C.3     
  14 C14           -4.1978    -0.1254     2.0073 C.2     
  15 O15           -3.7033    -0.8773     3.0032 O.3     
  16 O16           -4.9442     0.7916     2.2559 O.2     
  17 N17           -4.8121     0.1765    -0.3243 N.3     
  18 H18           -1.4590    -1.7237     0.5241 H       
  19 H19           -3.2044     2.1315    -0.0071 H       
  20 H20           -0.9916     3.0933    -0.4818 H       
  21 H21            2.7222     3.1593    -0.0250 H       
  22 H22            1.7652    -2.8839     0.1944 H       
  23 H23           -3.8008    -1.5044     0.4277 H       
  24 H24           -3.9729    -0.6467     3.9028 H       
  25 H25           -4.8509     1.1775    -0.2032 H       
  26 H26           -4.6186    -0.0642    -1.2849 H       
@<TRIPOS>BOND
   1    1    2 ar
   2    1    7 1
   3    1    6 ar
   4    2    3 ar
   5    2   10 1
   6    3    4 ar
   7    3   18 1
   8    4    5 ar
   9    4   13 1
  10    5    6 ar
  11    5   19 1
  12    6   20 1
  13    7    8 1
  14    7   11 2
  15    8   21 1
  16    9   10 1
  17    9   22 1
  18   10   12 2
  19   13   14 1
  20   13   17 1
  21   13   23 1
  22   14   15 1
  23   14   16 2
  24   15   24 1
  25   17   25 1
  26   17   26 1

#	End of record

