#	Name: ASD01410721
#	Creating user name:	WinNT
#	Creation time:	15. 06. 2019 19:18

#	Modifying user name:	WinNT
#	Modification time:	15. 06. 2019 19:18

#	Program:	/corina/corina34_cracker 3.40 0067  02.08.2006

@<TRIPOS>MOLECULE
ASD01410721
  84   90    0    0    0
SMALL
NO_CHARGES


@<TRIPOS>ATOM
   1 N1            -0.2414     2.7515    -0.0036 N.am    
   2 O2            -2.0383     5.1266    -1.7806 O.3     
   3 N3            -3.3072     4.5726    -5.1802 N.am    
   4 S4            -0.1049     1.1303     0.3014 S.o2    
   5 O5            -1.3818     0.5613     0.0464 O.2     
   6 N6             0.9232     0.5294    -0.8617 N.am    
   7 O7             0.5694     1.0076     1.5461 O.2     
   8 C8             0.4593     0.4013    -2.1037 C.2     
   9 O9            -0.6256    -0.1355    -2.2200 O.2     
  10 C10            1.1002     0.8298    -3.3361 C.ar    
  11 C11            2.4806     0.7529    -3.5301 C.ar    
  12 C12            3.0849     1.2746    -4.6429 C.ar    
  13 C13            2.2647     1.9105    -5.5891 C.ar    
  14 C14            0.8504     1.9263    -5.4468 C.ar    
  15 C15            0.2507     1.3754    -4.3277 C.ar    
  16 C16            2.5544     2.6367    -6.7520 C.2     
  17 C17            1.3865     3.0654    -7.2966 C.2     
  18 N18            0.3373     2.5745    -6.5384 N.pl3   
  19 C19            3.9314     2.8977    -7.3058 C.3     
  20 C20            4.8104     3.5162    -6.2169 C.3     
  21 C21            4.5512     1.5795    -7.7739 C.3     
  22 C22            5.9492     1.8445    -8.3362 C.3     
  23 C23            6.8281     2.4630    -7.2473 C.3     
  24 C24            6.2084     3.7812    -6.7792 C.3     
  25 C25            1.2417     3.9009    -8.5049 C.ar    
  26 C26            0.2526     4.8441    -8.7063 C.ar    
  27 C27           -0.8036     5.2006    -7.7044 C.3     
  28 C28           -1.4897     4.1805    -6.8295 C.3     
  29 C29           -1.0771     2.7090    -6.9022 C.3     
  30 C30           -2.9342     4.4200    -6.4709 C.2     
  31 O31           -3.7696     4.4760    -7.3483 O.2     
  32 C32            2.2074     3.6920    -9.5096 C.ar    
  33 C33            2.1687     4.4003   -10.6851 C.ar    
  34 C34            1.1605     5.3345   -10.8917 C.ar    
  35 C35            0.2132     5.5485    -9.9065 C.ar    
  36 O36            1.1058     6.0342   -12.0549 O.3     
  37 C37            2.1183     5.7596   -13.0253 C.3     
  38 C38           -2.7175     5.4812    -2.9875 C.3     
  39 C39           -2.2752     4.5691    -4.1326 C.3     
  40 C40           -1.7843     3.7297    -1.6343 C.3     
  41 C41           -1.5445     3.3919    -0.1608 C.3     
  42 C42            0.9729     3.5639    -0.1124 C.3     
  43 C43           -0.4585     5.1427    -6.2210 C.3     
  44 C44           -4.7200     4.7396    -4.8303 C.3     
  45 H45            1.8343     0.2800    -0.6414 H       
  46 H46            3.0894     0.2685    -2.7811 H       
  47 H47            4.1527     1.2001    -4.7872 H       
  48 H48           -0.8233     1.3625    -4.2155 H       
  49 H49            3.8597     3.5850    -8.1488 H       
  50 H50            4.3688     4.4553    -5.8834 H       
  51 H51            4.8821     2.8289    -5.3739 H       
  52 H52            4.6229     0.8922    -6.9310 H       
  53 H53            3.9250     1.1389    -8.5497 H       
  54 H54            6.3908     0.9054    -8.6697 H       
  55 H55            5.8775     2.5318    -9.1792 H       
  56 H56            6.8999     1.7757    -6.4043 H       
  57 H57            7.8241     2.6518    -7.6479 H       
  58 H58            6.1367     4.4685    -7.6221 H       
  59 H59            6.8345     4.2218    -6.0034 H       
  60 H60           -1.4233     6.0538    -7.9993 H       
  61 H61           -1.2275     2.3397    -7.9167 H       
  62 H62           -1.6865     2.1267    -6.2111 H       
  63 H63            2.9898     2.9643    -9.3524 H       
  64 H64            2.9177     4.2328   -11.4450 H       
  65 H65           -0.5699     6.2739   -10.0711 H       
  66 H66            1.9583     6.3844   -13.9040 H       
  67 H67            3.0980     5.9757   -12.5993 H       
  68 H68            2.0707     4.7093   -13.3127 H       
  69 H69           -3.7926     5.3755    -2.8419 H       
  70 H70           -2.4884     6.5163    -3.2407 H       
  71 H71           -2.1398     3.5544    -3.7583 H       
  72 H72           -1.3351     4.9340    -4.5464 H       
  73 H73           -2.6383     3.1656    -2.0093 H       
  74 H74           -0.8964     3.4617    -2.2069 H       
  75 H75           -2.3248     2.7151     0.1871 H       
  76 H76           -1.5715     4.3077     0.4297 H       
  77 H77            1.8480     2.9309     0.0349 H       
  78 H78            1.0172     4.0206    -1.1011 H       
  79 H79            0.9571     4.3446     0.6481 H       
  80 H80            0.5128     4.7328    -5.9440 H       
  81 H81           -0.8307     5.9451    -5.5841 H       
  82 H82           -5.3417     4.2934    -5.6064 H       
  83 H83           -4.9190     4.2481    -3.8780 H       
  84 H84           -4.9503     5.8017    -4.7461 H       
@<TRIPOS>BOND
   1    1    4 am
   2    1   42 1
   3    1   41 1
   4    2   38 1
   5    2   40 1
   6    3   30 am
   7    3   44 1
   8    3   39 1
   9    4    5 2
  10    4    6 am
  11    4    7 2
  12    6    8 am
  13    6   45 1
  14    8    9 2
  15    8   10 1
  16   10   11 ar
  17   10   15 ar
  18   11   12 ar
  19   11   46 1
  20   12   13 ar
  21   12   47 1
  22   13   14 ar
  23   13   16 1
  24   14   15 ar
  25   14   18 1
  26   15   48 1
  27   16   17 2
  28   16   19 1
  29   17   18 1
  30   17   25 1
  31   18   29 1
  32   19   20 1
  33   19   21 1
  34   19   49 1
  35   20   24 1
  36   20   50 1
  37   20   51 1
  38   21   22 1
  39   21   52 1
  40   21   53 1
  41   22   23 1
  42   22   54 1
  43   22   55 1
  44   23   24 1
  45   23   56 1
  46   23   57 1
  47   24   58 1
  48   24   59 1
  49   25   26 ar
  50   25   32 ar
  51   26   27 1
  52   26   35 ar
  53   27   28 1
  54   27   43 1
  55   27   60 1
  56   28   29 1
  57   28   43 1
  58   28   30 1
  59   29   61 1
  60   29   62 1
  61   30   31 2
  62   32   33 ar
  63   32   63 1
  64   33   34 ar
  65   33   64 1
  66   34   35 ar
  67   34   36 1
  68   35   65 1
  69   36   37 1
  70   37   66 1
  71   37   67 1
  72   37   68 1
  73   38   39 1
  74   38   69 1
  75   38   70 1
  76   39   71 1
  77   39   72 1
  78   40   41 1
  79   40   73 1
  80   40   74 1
  81   41   75 1
  82   41   76 1
  83   42   77 1
  84   42   78 1
  85   42   79 1
  86   43   80 1
  87   43   81 1
  88   44   82 1
  89   44   83 1
  90   44   84 1

#	End of record

