#	Name: ASD04880293
#	Creating user name:	WinNT
#	Creation time:	15. 06. 2019 20:53

#	Modifying user name:	WinNT
#	Modification time:	15. 06. 2019 20:53

#	Program:	/corina/corina34_cracker 3.40 0067  02.08.2006

@<TRIPOS>MOLECULE
ASD04880293
  41   44    0    0    0
SMALL
NO_CHARGES


@<TRIPOS>ATOM
   1 C1             0.0593     1.4209     0.4309 C.3     
   2 N2             0.0447    -0.0333     0.2057 N.am    
   3 N3             1.3487    -0.4664    -0.0258 N.2     
   4 C4             2.2294     0.4728     0.0101 C.2     
   5 C5             1.5500     1.7917     0.3014 C.3     
   6 C6            -1.0509    -0.8180     0.2213 C.2     
   7 N7            -0.9345    -2.1424    -0.0002 N.am    
   8 O8            -2.1446    -0.3312     0.4351 O.2     
   9 C9            -2.0557    -2.9717     0.1121 C.ar    
  10 C10            3.6774     0.2897    -0.1997 C.ar    
  11 C11            4.5389     1.3872    -0.1362 C.ar    
  12 C12            5.8921     1.2126    -0.3342 C.ar    
  13 C13            6.4038    -0.0511    -0.5978 C.ar    
  14 C14            5.5511    -1.1498    -0.6598 C.ar    
  15 C15            4.1928    -0.9829    -0.4570 C.ar    
  16 O16            6.0384    -2.3962    -0.9098 O.3     
  17 O17            7.7421    -0.1980    -0.7980 O.3     
  18 C18           -3.3052    -2.5088    -0.2791 C.ar    
  19 C19           -4.4112    -3.3290    -0.1675 C.ar    
  20 C20           -4.2763    -4.6101     0.3336 C.ar    
  21 C21           -3.0318    -5.0758     0.7255 C.ar    
  22 C22           -1.9202    -4.2609     0.6096 C.ar    
  23 F23           -2.9030    -6.3281     1.2157 F       
  24 C24            7.3519    -2.4721    -1.4744 C.3     
  25 C25            8.2680    -1.5248    -0.6878 C.3     
  26 H26           -0.5307     1.9327    -0.3294 H       
  27 H27           -0.3098     1.6583     1.4286 H       
  28 H28            1.7003     2.4894    -0.5224 H       
  29 H29            1.9211     2.2151     1.2348 H       
  30 H30           -0.0733    -2.5205    -0.2374 H       
  31 H31            4.1452     2.3721     0.0676 H       
  32 H32            6.5569     2.0623    -0.2845 H       
  33 H33            3.5303    -1.8344    -0.5068 H       
  34 H34           -3.4123    -1.5078    -0.6701 H       
  35 H35           -5.3827    -2.9686    -0.4719 H       
  36 H36           -5.1426    -5.2491     0.4201 H       
  37 H37           -0.9497    -4.6235     0.9149 H       
  38 H38            7.7263    -3.4930    -1.3983 H       
  39 H39            7.3204    -2.1685    -2.5207 H       
  40 H40            9.2747    -1.5569    -1.1046 H       
  41 H41            8.2938    -1.8242     0.3599 H       
@<TRIPOS>BOND
   1    1    2 1
   2    1    5 1
   3    1   26 1
   4    1   27 1
   5    2    3 1
   6    2    6 am
   7    3    4 2
   8    4    5 1
   9    4   10 1
  10    5   28 1
  11    5   29 1
  12    6    7 am
  13    6    8 2
  14    7    9 1
  15    7   30 1
  16    9   18 ar
  17    9   22 ar
  18   10   11 ar
  19   10   15 ar
  20   11   12 ar
  21   11   31 1
  22   12   13 ar
  23   12   32 1
  24   13   14 ar
  25   13   17 1
  26   14   15 ar
  27   14   16 1
  28   15   33 1
  29   16   24 1
  30   17   25 1
  31   18   19 ar
  32   18   34 1
  33   19   20 ar
  34   19   35 1
  35   20   21 ar
  36   20   36 1
  37   21   22 ar
  38   21   23 1
  39   22   37 1
  40   24   25 1
  41   24   38 1
  42   24   39 1
  43   25   40 1
  44   25   41 1

#	End of record

