#	Name: ASD00170588
#	Creating user name:	WinNT
#	Creation time:	15. 06. 2019 18:32

#	Modifying user name:	WinNT
#	Modification time:	15. 06. 2019 18:32

#	Program:	/corina/corina34_cracker 3.40 0067  02.08.2006

@<TRIPOS>MOLECULE
ASD00170588
  31   33    0    0    0
SMALL
NO_CHARGES


@<TRIPOS>ATOM
   1 C1            -0.0138     1.2150    -0.0100 C.2     
   2 O2             0.4595     0.7882     1.0276 O.2     
   3 C3             0.6965     1.0014    -1.2899 C.ar    
   4 C4             1.9602     0.4089    -1.2998 C.ar    
   5 C5             2.6172     0.2125    -2.4968 C.ar    
   6 C6             2.0264     0.6019    -3.6858 C.ar    
   7 C7             0.7739     1.1898    -3.6829 C.ar    
   8 C8             0.1034     1.3862    -2.4933 C.ar    
   9 C9            -5.0815     1.8086    -0.1133 C.3     
  10 C10           -3.5955     2.1301    -0.0466 C.2     
  11 C11           -2.5862     1.2655    -0.0976 C.2     
  12 C12           -2.6594    -0.2436    -0.2475 C.3     
  13 C13           -4.0302    -0.7839     0.1404 C.3     
  14 S14           -5.2926     0.1376    -0.7910 S.3     
  15 C15           -1.2875     1.9337     0.0084 C.2     
  16 C16           -1.3781     3.2920     0.1265 C.2     
  17 S17           -3.0051     3.7837     0.1156 S.3     
  18 N18           -0.2993     4.1452     0.2394 N.pl3   
  19 H19            2.4227     0.1051    -0.3723 H       
  20 H20            3.5951    -0.2459    -2.5058 H       
  21 H21            2.5453     0.4466    -4.6201 H       
  22 H22            0.3181     1.4915    -4.6144 H       
  23 H23           -0.8761     1.8411    -2.4928 H       
  24 H24           -5.5098     1.8531     0.8881 H       
  25 H25           -5.5824     2.5301    -0.7586 H       
  26 H26           -2.4538    -0.5079    -1.2847 H       
  27 H27           -1.9035    -0.7011     0.3908 H       
  28 H28           -4.0910    -1.8436    -0.1077 H       
  29 H29           -4.1899    -0.6468     1.2099 H       
  30 H30            0.5979     3.7850     0.3178 H       
  31 H31           -0.4383     5.1052     0.2405 H       
@<TRIPOS>BOND
   1    1    2 2
   2    1    3 1
   3    1   15 1
   4    3    4 ar
   5    3    8 ar
   6    4    5 ar
   7    4   19 1
   8    5    6 ar
   9    5   20 1
  10    6    7 ar
  11    6   21 1
  12    7    8 ar
  13    7   22 1
  14    8   23 1
  15    9   10 1
  16    9   14 1
  17    9   24 1
  18    9   25 1
  19   10   11 2
  20   10   17 1
  21   11   12 1
  22   11   15 1
  23   12   13 1
  24   12   26 1
  25   12   27 1
  26   13   14 1
  27   13   28 1
  28   13   29 1
  29   15   16 2
  30   16   17 1
  31   16   18 1
  32   18   30 1
  33   18   31 1

#	End of record

