#	Name: ASD08070196
#	Creating user name:	WinNT
#	Creation time:	15. 06. 2019 21:14

#	Modifying user name:	WinNT
#	Modification time:	15. 06. 2019 21:14

#	Program:	/corina/corina34_cracker 3.40 0067  02.08.2006

@<TRIPOS>MOLECULE
ASD08070196
  35   36    0    0    0
SMALL
NO_CHARGES


@<TRIPOS>ATOM
   1 C1            -0.0167     1.3804     0.0096 C.ar    
   2 C2             0.0021    -0.0041     0.0020 C.ar    
   3 C3             1.2090    -0.6862    -0.0127 C.ar    
   4 C4             2.3989     0.0125    -0.0198 C.ar    
   5 C5             2.3851     1.4087    -0.0126 C.ar    
   6 C6             1.1664     2.0893     0.0021 C.ar    
   7 N7             3.6397     3.5107    -0.0133 N.am    
   8 C8             3.6559     2.1630    -0.0202 C.2     
   9 O9             4.7159     1.5680    -0.0327 O.2     
  10 Cl10           1.2232    -2.4221    -0.0216 Cl      
  11 C11            4.8994     4.2584    -0.0208 C.3     
  12 C12            4.6653     5.6460    -0.6213 C.3     
  13 C13            5.4150     4.4034     1.4124 C.3     
  14 C14            6.7307     5.1844     1.4046 C.3     
  15 C15            6.4965     6.5719     0.8040 C.3     
  16 C16            5.9809     6.4270    -0.6292 C.3     
  17 C17            4.1497     5.5011    -2.0545 C.3     
  18 Cl18          -1.4913    -0.8891     0.0115 Cl      
  19 H19           -0.9599     1.9065     0.0169 H       
  20 H20            3.3388    -0.5194    -0.0306 H       
  21 H21            1.1500     3.1691     0.0074 H       
  22 H22            2.7939     3.9854    -0.0033 H       
  23 H23            5.6362     3.7230    -0.6196 H       
  24 H24            3.9285     6.1815    -0.0226 H       
  25 H25            4.6782     4.9388     2.0112 H       
  26 H26            5.5818     3.4149     1.8403 H       
  27 H27            7.0980     5.2876     2.4256 H       
  28 H28            7.4675     4.6489     0.8058 H       
  29 H29            5.7597     7.1074     1.4028 H       
  30 H30            7.4338     7.1283     0.7984 H       
  31 H31            6.7177     5.8915    -1.2279 H       
  32 H32            5.8141     7.4155    -1.0570 H       
  33 H33            3.2124     4.9447    -2.0490 H       
  34 H34            3.9829     6.4896    -2.4824 H       
  35 H35            4.8865     4.9656    -2.6533 H       
@<TRIPOS>BOND
   1    1    2 ar
   2    1    6 ar
   3    1   19 1
   4    2    3 ar
   5    2   18 1
   6    3    4 ar
   7    3   10 1
   8    4    5 ar
   9    4   20 1
  10    5    6 ar
  11    5    8 1
  12    6   21 1
  13    7    8 am
  14    7   11 1
  15    7   22 1
  16    8    9 2
  17   11   12 1
  18   11   13 1
  19   11   23 1
  20   12   17 1
  21   12   16 1
  22   12   24 1
  23   13   14 1
  24   13   25 1
  25   13   26 1
  26   14   15 1
  27   14   27 1
  28   14   28 1
  29   15   16 1
  30   15   29 1
  31   15   30 1
  32   16   31 1
  33   16   32 1
  34   17   33 1
  35   17   34 1
  36   17   35 1

#	End of record

