#	Name: ASD01882072
#	Creating user name:	WinNT
#	Creation time:	15. 06. 2019 19:43

#	Modifying user name:	WinNT
#	Modification time:	15. 06. 2019 19:43

#	Program:	/corina/corina34_cracker 3.40 0067  02.08.2006

@<TRIPOS>MOLECULE
ASD01882072
  26   26    0    0    0
SMALL
NO_CHARGES


@<TRIPOS>ATOM
   1 C1            -0.0184     1.5028     0.0103 C.2     
   2 C2             0.0021    -0.0041     0.0020 C.3     
   3 O3             1.0197     2.1211     0.0037 O.2     
   4 O4            -1.1898     2.1580     0.0194 O.3     
   5 N5             1.3935    -0.4748    -0.0138 N.3     
   6 C6             1.4526    -1.9426    -0.0222 C.3     
   7 C7             2.8924    -2.3873    -0.0384 C.ar    
   8 C8             3.6261    -2.3989     1.1349 C.ar    
   9 C9             4.9475    -2.8071     1.1197 C.ar    
  10 C10            5.5349    -3.2035    -0.0682 C.ar    
  11 C11            4.8007    -3.1915    -1.2403 C.ar    
  12 C12            3.4783    -2.7888    -1.2239 C.ar    
  13 Cl13           2.8883    -1.9008     2.6252 Cl      
  14 Br14           7.3417    -3.7611    -0.0899 Br      
  15 C15           -1.1335     3.6089     0.0270 C.3     
  16 H16           -0.4983    -0.3791     0.8948 H       
  17 H17           -0.5153    -0.3696    -0.8850 H       
  18 H18            1.8972    -0.0881    -0.7979 H       
  19 H19            0.9623    -2.3311     0.8704 H       
  20 H20            0.9453    -2.3216    -0.9095 H       
  21 H21            5.5207    -2.8160     2.0351 H       
  22 H22            5.2594    -3.5009    -2.1678 H       
  23 H23            2.9040    -2.7841    -2.1385 H       
  24 H24           -0.6017     3.9472     0.9164 H       
  25 H25           -0.6102     3.9569    -0.8636 H       
  26 H26           -2.1463     4.0118     0.0340 H       
@<TRIPOS>BOND
   1    1    2 1
   2    1    3 2
   3    1    4 1
   4    2    5 1
   5    2   16 1
   6    2   17 1
   7    4   15 1
   8    5    6 1
   9    5   18 1
  10    6    7 1
  11    6   19 1
  12    6   20 1
  13    7    8 ar
  14    7   12 ar
  15    8    9 ar
  16    8   13 1
  17    9   10 ar
  18    9   21 1
  19   10   11 ar
  20   10   14 1
  21   11   12 ar
  22   11   22 1
  23   12   23 1
  24   15   24 1
  25   15   25 1
  26   15   26 1

#	End of record

