#	Name: ASD02508420
#	Creating user name:	WinNT
#	Creation time:	15. 06. 2019 20:24

#	Modifying user name:	WinNT
#	Modification time:	15. 06. 2019 20:24

#	Program:	/corina/corina34_cracker 3.40 0067  02.08.2006

@<TRIPOS>MOLECULE
ASD02508420
  40   42    0    0    0
SMALL
NO_CHARGES


@<TRIPOS>ATOM
   1 N1             0.5777     1.4599     0.6453 N.2     
   2 C2             0.4345     0.1261     0.6357 C.2     
   3 C3             1.5819    -0.4171     0.1879 C.2     
   4 N4             2.4363     0.6226    -0.0782 N.pl3   
   5 C5             1.7716     1.7701     0.2201 C.2     
   6 C6             3.7436     0.5211    -0.5639 C.ar    
   7 C7             4.4873     1.6739    -0.7840 C.ar    
   8 N8             4.2625    -0.6718    -0.8043 N.ar    
   9 C9             5.4915    -0.8125    -1.2623 C.ar    
  10 C10            6.2859     0.2901    -1.5084 C.ar    
  11 C11            5.7803     1.5595    -1.2645 C.ar    
  12 S12            1.9215    -2.1340    -0.0164 S.o2    
  13 O13            1.6427    -2.4392    -1.3760 O.2     
  14 O14            3.1855    -2.3679     0.5892 O.2     
  15 N15            0.8094    -2.9645     0.8868 N.am    
  16 C16            0.7653    -2.7913     2.2747 C.ar    
  17 C17           -0.4520    -2.5881     2.9111 C.ar    
  18 C18           -0.4946    -2.4171     4.2809 C.ar    
  19 C19            0.6782    -2.4479     5.0208 C.ar    
  20 C20            1.8946    -2.6504     4.3859 C.ar    
  21 C21            1.9383    -2.8281     3.0170 C.ar    
  22 O22            0.6354    -2.2791     6.3697 O.3     
  23 C23            1.8810    -2.3224     7.0687 C.3     
  24 C24            7.6888     0.1165    -2.0307 C.3     
  25 F25            7.9627    -1.2464    -2.1877 F       
  26 F26            7.8096     0.7619    -3.2661 F       
  27 F27            8.5965     0.6731    -1.1231 F       
  28 H28           -0.4487    -0.4181     0.9361 H       
  29 H29            2.1657     2.7708     0.1218 H       
  30 H30            4.0621     2.6461    -0.5831 H       
  31 H31            5.8815    -1.8026    -1.4469 H       
  32 H32            6.3808     2.4380    -1.4488 H       
  33 H33            0.1885    -3.5711     0.4538 H       
  34 H34           -1.3652    -2.5634     2.3351 H       
  35 H35           -1.4413    -2.2591     4.7761 H       
  36 H36            2.8074    -2.6739     4.9627 H       
  37 H37            2.8855    -2.9861     2.5227 H       
  38 H38            2.3534    -3.2917     6.9097 H       
  39 H39            2.5348    -1.5341     6.6954 H       
  40 H40            1.7051    -2.1743     8.1342 H       
@<TRIPOS>BOND
   1    1    2 1
   2    1    5 2
   3    2    3 2
   4    2   28 1
   5    3    4 1
   6    3   12 1
   7    4    5 1
   8    4    6 1
   9    5   29 1
  10    6    7 ar
  11    6    8 ar
  12    7   11 ar
  13    7   30 1
  14    8    9 ar
  15    9   10 ar
  16    9   31 1
  17   10   11 ar
  18   10   24 1
  19   11   32 1
  20   12   13 2
  21   12   14 2
  22   12   15 am
  23   15   16 1
  24   15   33 1
  25   16   17 ar
  26   16   21 ar
  27   17   18 ar
  28   17   34 1
  29   18   19 ar
  30   18   35 1
  31   19   20 ar
  32   19   22 1
  33   20   21 ar
  34   20   36 1
  35   21   37 1
  36   22   23 1
  37   23   38 1
  38   23   39 1
  39   23   40 1
  40   24   25 1
  41   24   26 1
  42   24   27 1

#	End of record

