#	Name: ASD01151061
#	Creating user name:	WinNT
#	Creation time:	15. 06. 2019 19:05

#	Modifying user name:	WinNT
#	Modification time:	15. 06. 2019 19:05

#	Program:	/corina/corina34_cracker 3.40 0067  02.08.2006

@<TRIPOS>MOLECULE
ASD01151061
  51   53    0    0    0
SMALL
NO_CHARGES


@<TRIPOS>ATOM
   1 O1            -0.7304     1.3653     3.2367 O.2     
   2 C2            -0.4794     2.2420     2.4329 C.2     
   3 C3             0.8005     2.9770     2.5164 C.ar    
   4 C4             1.0912     3.9841     1.5945 C.ar    
   5 C5             2.2866     4.6692     1.6749 C.ar    
   6 C6             3.1993     4.3619     2.6663 C.ar    
   7 C7             2.9194     3.3607     3.5892 C.ar    
   8 C8             1.7194     2.6704     3.5203 C.ar    
   9 N9             3.8467     3.0532     4.5903 N.am    
  10 C10            3.9913     1.7796     5.0067 C.2     
  11 O11            3.2607     0.9110     4.5712 O.2     
  12 C12            5.0377     1.4390     5.9924 C.ar    
  13 C13            5.8855     2.4297     6.5018 C.ar    
  14 C14            6.8494     2.0584     7.4228 C.ar    
  15 C15            6.9443     0.7334     7.8078 C.ar    
  16 N16            6.1323    -0.1806     7.3115 N.ar    
  17 C17            5.1944     0.1232     6.4368 C.ar    
  18 Cl18           4.1562    -1.1236     5.8194 Cl      
  19 N19           -1.3655     2.5400     1.4621 N.am    
  20 C20           -2.5434     1.7961     1.3380 C.ar    
  21 C21           -2.4955     0.4078     1.3588 C.ar    
  22 I22           -0.6582    -0.5750     1.5762 I       
  23 C23           -3.6613    -0.3239     1.2365 C.ar    
  24 C24           -4.8741     0.3243     1.0930 C.ar    
  25 C25           -4.9249     1.7062     1.0719 C.ar    
  26 C26           -3.7643     2.4437     1.1995 C.ar    
  27 C27           -3.8211     3.9494     1.1764 C.3     
  28 F28           -5.1478     4.3637     1.0169 F       
  29 F29           -3.3166     4.4536     2.3800 F       
  30 F30           -3.0515     4.4288     0.1110 F       
  31 C31           -6.1434    -0.4769     0.9588 C.3     
  32 C32           -6.6296    -0.4230    -0.4909 C.3     
  33 F33           -5.6060    -0.8523    -1.3424 F       
  34 F34           -7.7420    -1.2580    -0.6410 F       
  35 F35           -6.9855     0.8906    -0.8148 F       
  36 C36           -5.8730    -1.9305     1.3523 C.3     
  37 F37           -5.3011    -1.9695     2.6284 F       
  38 F38           -7.0767    -2.6435     1.3587 F       
  39 F39           -4.9941    -2.5077     0.4295 F       
  40 F40           -7.1243     0.0592     1.7999 F       
  41 H41            0.3808     4.2270     0.8181 H       
  42 H42            2.5098     5.4478     0.9605 H       
  43 H43            4.1332     4.9012     2.7240 H       
  44 H44            1.4999     1.8925     4.2366 H       
  45 H45            4.3857     3.7566     4.9848 H       
  46 H46            5.7901     3.4574     6.1838 H       
  47 H47            7.5210     2.7960     7.8367 H       
  48 H48            7.6959     0.4419     8.5265 H       
  49 H49           -1.1864     3.2704     0.8495 H       
  50 H50           -3.6249    -1.4031     1.2525 H       
  51 H51           -5.8740     2.2093     0.9597 H       
@<TRIPOS>BOND
   1    1    2 2
   2    2    3 1
   3    2   19 am
   4    3    4 ar
   5    3    8 ar
   6    4    5 ar
   7    4   41 1
   8    5    6 ar
   9    5   42 1
  10    6    7 ar
  11    6   43 1
  12    7    8 ar
  13    7    9 1
  14    8   44 1
  15    9   10 am
  16    9   45 1
  17   10   11 2
  18   10   12 1
  19   12   13 ar
  20   12   17 ar
  21   13   14 ar
  22   13   46 1
  23   14   15 ar
  24   14   47 1
  25   15   16 ar
  26   15   48 1
  27   16   17 ar
  28   17   18 1
  29   19   20 1
  30   19   49 1
  31   20   21 ar
  32   20   26 ar
  33   21   22 1
  34   21   23 ar
  35   23   24 ar
  36   23   50 1
  37   24   25 ar
  38   24   31 1
  39   25   26 ar
  40   25   51 1
  41   26   27 1
  42   27   28 1
  43   27   29 1
  44   27   30 1
  45   31   32 1
  46   31   36 1
  47   31   40 1
  48   32   33 1
  49   32   34 1
  50   32   35 1
  51   36   37 1
  52   36   38 1
  53   36   39 1

#	End of record

