#	Name: ASD05250060
#	Creating user name:	WinNT
#	Creation time:	15. 06. 2019 20:58

#	Modifying user name:	WinNT
#	Modification time:	15. 06. 2019 20:58

#	Program:	/corina/corina34_cracker 3.40 0067  02.08.2006

@<TRIPOS>MOLECULE
ASD05250060
  33   32    0    0    0
SMALL
NO_CHARGES


@<TRIPOS>ATOM
   1 N1            -0.0162     1.3436     0.0094 N.am    
   2 C2             0.0021    -0.0041     0.0020 C.2     
   3 S3             1.4961    -0.8398    -0.0167 S.2     
   4 N4            -1.1558    -0.6938     0.0094 N.am    
   5 N5            -2.3785    -0.0099     0.0247 N.2     
   6 C6            -3.4968    -0.6760     0.0318 C.2     
   7 C7            -3.4764    -2.1828     0.0235 C.3     
   8 C8            -4.7728     0.0378     0.0478 C.2     
   9 O9            -4.5660    -2.6783     0.8041 O.3     
  10 C10           -3.6089    -2.6868    -1.4150 C.3     
  11 C11           -4.2503    -2.8754     2.1838 C.3     
  12 C12           -5.4835    -3.4046     2.9186 C.3     
  13 N13           -4.7905     1.3393     0.0550 N.2     
  14 N14           -6.0131     2.0233     0.0703 N.am    
  15 C15           -6.0314     3.3709     0.0778 C.2     
  16 N16           -4.8735     4.0606     0.0704 N.am    
  17 S17           -7.5254     4.2066     0.0965 S.2     
  18 H18            0.8172     1.8399     0.0041 H       
  19 H19           -0.8627     1.8171     0.0160 H       
  20 H20           -1.1427    -1.6637     0.0040 H       
  21 H21           -2.5360    -2.5358     0.4470 H       
  22 H22           -5.7007    -0.5149     0.0537 H       
  23 H23           -2.7777    -2.3089    -2.0104 H       
  24 H24           -3.5941    -3.7767    -1.4210 H       
  25 H25           -4.5492    -2.3338    -1.8385 H       
  26 H26           -3.4379    -3.5968     2.2712 H       
  27 H27           -3.9433    -1.9272     2.6253 H       
  28 H28           -5.2427    -3.5549     3.9710 H       
  29 H29           -6.2960    -2.6832     2.8312 H       
  30 H30           -5.7905    -4.3527     2.4771 H       
  31 H31           -6.8464     1.5269     0.0756 H       
  32 H32           -4.0270     3.5871     0.0598 H       
  33 H33           -4.8866     5.0305     0.0757 H       
@<TRIPOS>BOND
   1    1    2 am
   2    1   18 1
   3    1   19 1
   4    2    3 2
   5    2    4 am
   6    4    5 1
   7    4   20 1
   8    5    6 2
   9    6    7 1
  10    6    8 1
  11    7    9 1
  12    7   10 1
  13    7   21 1
  14    8   13 2
  15    8   22 1
  16    9   11 1
  17   10   23 1
  18   10   24 1
  19   10   25 1
  20   11   12 1
  21   11   26 1
  22   11   27 1
  23   12   28 1
  24   12   29 1
  25   12   30 1
  26   13   14 1
  27   14   15 am
  28   14   31 1
  29   15   16 am
  30   15   17 2
  31   16   32 1
  32   16   33 1

#	End of record

