#	Name: ASD07301057
#	Creating user name:	WinNT
#	Creation time:	15. 06. 2019 21:10

#	Modifying user name:	WinNT
#	Modification time:	15. 06. 2019 21:10

#	Program:	/corina/corina34_cracker 3.40 0067  02.08.2006

@<TRIPOS>MOLECULE
ASD07301057
  38   39    0    0    0
SMALL
NO_CHARGES


@<TRIPOS>ATOM
   1 C1            -0.2428     1.5282     0.0529 C.3     
   2 C2            -0.2822     0.0218     0.0488 C.2     
   3 C3            -0.1175    -0.7178     1.3007 C.2     
   4 C4            -0.1558    -2.1806     1.2968 C.2     
   5 C5             1.1272    -2.9678     1.2233 C.3     
   6 O6            -0.4506    -0.5781    -0.9927 O.2     
   7 O7            -1.2208    -2.7599     1.3527 O.2     
   8 N8             0.0662    -0.0633     2.4372 N.2     
   9 N9             0.1118    -0.7088     3.5531 N.pl3   
  10 C10            0.1998    -0.0124     4.7585 C.ar    
  11 C11            0.2492    -0.7083     5.9671 C.ar    
  12 C12            0.3366    -0.0100     7.1608 C.ar    
  13 C13            0.3741     1.3719     7.1527 C.ar    
  14 C14            0.3252     2.0627     5.9554 C.ar    
  15 C15            0.2443     1.3757     4.7596 C.ar    
  16 O16            0.2114    -2.0666     5.9733 O.3     
  17 C17            0.1314    -2.6970     7.1743 C.ar    
  18 C18           -1.0189    -2.5859     7.9424 C.ar    
  19 C19           -1.0976    -3.2277     9.1630 C.ar    
  20 C20           -0.0314    -3.9805     9.6197 C.ar    
  21 C21            1.1160    -4.0928     8.8564 C.ar    
  22 C22            1.1977    -3.4577     7.6324 C.ar    
  23 H23            0.7831     1.8652    -0.0954 H       
  24 H24           -0.8706     1.9103    -0.7521 H       
  25 H25           -0.6124     1.8988     1.0090 H       
  26 H26            1.9658    -2.2842     1.0905 H       
  27 H27            1.2608    -3.5317     2.1465 H       
  28 H28            1.0830    -3.6567     0.3798 H       
  29 H29            0.0849    -1.6784     3.5540 H       
  30 H30            0.3750    -0.5456     8.0978 H       
  31 H31            0.4415     1.9139     8.0844 H       
  32 H32            0.3548     3.1423     5.9551 H       
  33 H33            0.2111     1.9180     3.8262 H       
  34 H34           -1.8519    -1.9978     7.5863 H       
  35 H35           -1.9926    -3.1413     9.7614 H       
  36 H36           -0.0949    -4.4812    10.5745 H       
  37 H37            1.9473    -4.6814     9.2154 H       
  38 H38            2.0923    -3.5497     7.0344 H       
@<TRIPOS>BOND
   1    1    2 1
   2    1   23 1
   3    1   24 1
   4    1   25 1
   5    2    3 1
   6    2    6 2
   7    3    4 1
   8    3    8 2
   9    4    5 1
  10    4    7 2
  11    5   26 1
  12    5   27 1
  13    5   28 1
  14    8    9 1
  15    9   10 1
  16    9   29 1
  17   10   11 ar
  18   10   15 ar
  19   11   12 ar
  20   11   16 1
  21   12   13 ar
  22   12   30 1
  23   13   14 ar
  24   13   31 1
  25   14   15 ar
  26   14   32 1
  27   15   33 1
  28   16   17 1
  29   17   18 ar
  30   17   22 ar
  31   18   19 ar
  32   18   34 1
  33   19   20 ar
  34   19   35 1
  35   20   21 ar
  36   20   36 1
  37   21   22 ar
  38   21   37 1
  39   22   38 1

#	End of record

