#	Name: ASD04591082
#	Creating user name:	WinNT
#	Creation time:	15. 06. 2019 20:52

#	Modifying user name:	WinNT
#	Modification time:	15. 06. 2019 20:52

#	Program:	/corina/corina34_cracker 3.40 0067  02.08.2006

@<TRIPOS>MOLECULE
ASD04591082
  65   70    0    0    0
SMALL
NO_CHARGES


@<TRIPOS>ATOM
   1 N1            -0.0170     1.3232    -0.0111 N.ar    
   2 C2             0.0017    -0.0035    -0.0048 C.ar    
   3 N3             1.1299    -0.6949    -0.0118 N.ar    
   4 C4             2.3050    -0.0729    -0.0258 C.ar    
   5 C5             2.3189     1.3365    -0.0332 C.ar    
   6 C6             1.1072     2.0202    -0.0251 C.ar    
   7 N7             3.6031    -0.5196    -0.0356 N.pl3   
   8 C8             4.4823     0.5494    -0.0493 C.ar    
   9 C9             3.7313     1.7384    -0.0484 C.ar    
  10 C10            5.8681     0.6417    -0.0622 C.ar    
  11 N11            6.4613     1.8180    -0.0729 N.ar    
  12 C12            5.7851     2.9532    -0.0725 C.ar    
  13 C13            4.4064     2.9584    -0.0613 C.ar    
  14 N14           -1.2019    -0.6887     0.0098 N.pl3   
  15 C15           -2.4022     0.0122     0.1304 C.ar    
  16 N16           -2.3891     1.3195     0.3310 N.ar    
  17 N17           -3.4683     2.0042     0.4478 N.ar    
  18 C18           -4.6668     1.4483     0.3753 C.ar    
  19 C19           -4.7831     0.0733     0.1655 C.ar    
  20 C20           -3.6194    -0.6637     0.0338 C.ar    
  21 N21           -5.8099     2.2334     0.5087 N.3     
  22 C22            4.0018    -1.9293    -0.0316 C.3     
  23 C23           -6.6945     2.0766    -0.6529 C.3     
  24 C24            3.4609    -2.6264     1.2291 C.3     
  25 C25            2.5278    -3.7546     0.7428 C.3     
  26 C26            3.0202    -4.0623    -0.6931 C.3     
  27 C27            3.3785    -2.6581    -1.2399 C.3     
  28 C28           -5.4581     3.6431     0.7218 C.3     
  29 C29           -6.7271     4.4492     1.0083 C.3     
  30 C30           -7.6881     4.3170    -0.1764 C.3     
  31 C31           -8.0003     2.8359    -0.4075 C.3     
  32 N32           -8.9322     5.0409     0.1176 N.3     
  33 C33           -9.6087     5.4494    -1.1207 C.3     
  34 C34          -10.8970     6.1986    -0.7747 C.3     
  35 F35          -10.5876     7.3328    -0.0163 F       
  36 F36          -11.5413     6.5877    -1.9540 F       
  37 F37          -11.7402     5.3604    -0.0374 F       
  38 H38            1.0849     3.0999    -0.0300 H       
  39 H39            6.4645    -0.2586    -0.0631 H       
  40 H40            6.3204     3.8911    -0.0816 H       
  41 H41            3.8597     3.8898    -0.0610 H       
  42 H42           -1.2103    -1.6559    -0.0637 H       
  43 H43           -5.7518    -0.4003     0.1036 H       
  44 H44           -3.6520    -1.7307    -0.1299 H       
  45 H45            5.0882    -2.0099    -0.0658 H       
  46 H46           -6.2032     2.4762    -1.5401 H       
  47 H47           -6.9120     1.0192    -0.8036 H       
  48 H48            4.2848    -3.0461     1.8062 H       
  49 H49            2.9018    -1.9159     1.8379 H       
  50 H50            2.6300    -4.6345     1.3779 H       
  51 H51            1.4928    -3.4130     0.7262 H       
  52 H52            3.9009    -4.7042    -0.6702 H       
  53 H53            2.2255    -4.5162    -1.2851 H       
  54 H54            2.4809    -2.1395    -1.5768 H       
  55 H55            4.1014    -2.7379    -2.0518 H       
  56 H56           -4.7777     3.7235     1.5696 H       
  57 H57           -4.9727     4.0354    -0.1718 H       
  58 H58           -7.2057     4.0663     1.9096 H       
  59 H59           -6.4674     5.4981     1.1510 H       
  60 H60           -7.2247     4.7353    -1.0699 H       
  61 H61           -8.6503     2.7322    -1.2763 H       
  62 H62           -8.4990     2.4276     0.4716 H       
  63 H63           -9.5441     4.4872     0.6982 H       
  64 H64           -8.9517     6.1025    -1.6952 H       
  65 H65           -9.8498     4.5658    -1.7116 H       
@<TRIPOS>BOND
   1    1    2 ar
   2    1    6 ar
   3    2    3 ar
   4    2   14 1
   5    3    4 ar
   6    4    5 ar
   7    4    7 1
   8    5    6 ar
   9    5    9 1
  10    6   38 1
  11    7    8 1
  12    7   22 1
  13    8    9 ar
  14    8   10 ar
  15    9   13 ar
  16   10   11 ar
  17   10   39 1
  18   11   12 ar
  19   12   13 ar
  20   12   40 1
  21   13   41 1
  22   14   15 1
  23   14   42 1
  24   15   16 ar
  25   15   20 ar
  26   16   17 ar
  27   17   18 ar
  28   18   19 ar
  29   18   21 1
  30   19   20 ar
  31   19   43 1
  32   20   44 1
  33   21   28 1
  34   21   23 1
  35   22   24 1
  36   22   27 1
  37   22   45 1
  38   23   31 1
  39   23   46 1
  40   23   47 1
  41   24   25 1
  42   24   48 1
  43   24   49 1
  44   25   26 1
  45   25   50 1
  46   25   51 1
  47   26   27 1
  48   26   52 1
  49   26   53 1
  50   27   54 1
  51   27   55 1
  52   28   29 1
  53   28   56 1
  54   28   57 1
  55   29   30 1
  56   29   58 1
  57   29   59 1
  58   30   31 1
  59   30   32 1
  60   30   60 1
  61   31   61 1
  62   31   62 1
  63   32   33 1
  64   32   63 1
  65   33   34 1
  66   33   64 1
  67   33   65 1
  68   34   35 1
  69   34   36 1
  70   34   37 1

#	End of record

