#	Name: ASD01884128
#	Creating user name:	WinNT
#	Creation time:	15. 06. 2019 19:47

#	Modifying user name:	WinNT
#	Modification time:	15. 06. 2019 19:47

#	Program:	/corina/corina34_cracker 3.40 0067  02.08.2006

@<TRIPOS>MOLECULE
ASD01884128
  52   56    0    0    0
SMALL
NO_CHARGES


@<TRIPOS>ATOM
   1 C1            -0.8460    -0.1816    -0.9932 C.2     
   2 C2            -0.0271    -0.0493     0.0952 C.2     
   3 C3            -0.3893     0.8327     1.1366 C.2     
   4 C4            -1.5337     1.5397     1.0608 C.2     
   5 N5            -2.3573     1.4147    -0.0198 N.pl3   
   6 C6            -2.0315     0.5706    -1.0536 C.2     
   7 N7            -3.0075     0.6609    -1.9441 N.2     
   8 C8            -3.5474     1.9843    -0.3659 C.2     
   9 N9            -3.8949     1.4936    -1.5264 N.2     
  10 C10           -4.3214     2.9928     0.4432 C.3     
  11 N11            1.1547    -0.7797     0.1753 N.pl3   
  12 C12            1.1234    -2.2439     0.2921 C.3     
  13 C13            1.9523    -2.6591     1.5116 C.3     
  14 C14            3.3589    -2.0681     1.3925 C.3     
  15 C15            3.2716    -0.5404     1.3653 C.3     
  16 C16            2.4577    -0.1016     0.1384 C.3     
  17 C17            4.1878    -2.5025     2.5738 C.ar    
  18 C18            5.5625    -2.3611     2.5430 C.ar    
  19 C19            6.3228    -2.7597     3.6265 C.ar    
  20 C20            5.7083    -3.2993     4.7410 C.ar    
  21 C21            4.3334    -3.4398     4.7722 C.ar    
  22 C22            3.5728    -3.0372     3.6904 C.ar    
  23 C23           -3.8785     4.4053     0.0564 C.3     
  24 F24            3.9568    -2.5218     0.2119 F       
  25 C25           -4.6324     5.5790     0.6848 C.3     
  26 C26           -3.2068     5.2557     1.1365 C.3     
  27 C27           -0.4781    -1.1175    -2.1156 C.3     
  28 F28           -0.9355    -2.4056    -1.8176 F       
  29 F29           -1.0698    -0.6758    -3.3039 F       
  30 F30            0.9125    -1.1399    -2.2673 F       
  31 H31            0.2535     0.9408     1.9978 H       
  32 H32           -1.8018     2.2114     1.8629 H       
  33 H33           -5.3868     2.8785     0.2432 H       
  34 H34           -4.1315     2.8302     1.5042 H       
  35 H35            0.0938    -2.5784     0.4191 H       
  36 H36            1.5469    -2.6914    -0.6071 H       
  37 H37            1.4767    -2.2864     2.4188 H       
  38 H38            2.0170    -3.7464     1.5545 H       
  39 H39            2.7835    -0.1876     2.2738 H       
  40 H40            4.2752    -0.1196     1.3040 H       
  41 H41            2.9921    -0.3748    -0.7714 H       
  42 H42            2.3075     0.9776     0.1664 H       
  43 H43            6.0426    -1.9396     1.6722 H       
  44 H44            7.3969    -2.6499     3.6021 H       
  45 H45            6.3023    -3.6113     5.5872 H       
  46 H46            3.8533    -3.8616     5.6428 H       
  47 H47            2.4987    -3.1470     3.7147 H       
  48 H48           -3.5273     4.5236    -0.9686 H       
  49 H49           -4.7768     6.4697     0.0734 H       
  50 H50           -5.4439     5.3449     1.3739 H       
  51 H51           -3.0804     4.8088     2.1226 H       
  52 H52           -2.4133     5.9336     0.8221 H       
@<TRIPOS>BOND
   1    1    2 2
   2    1   27 1
   3    1    6 1
   4    2    3 1
   5    2   11 1
   6    3    4 2
   7    3   31 1
   8    4    5 1
   9    4   32 1
  10    5    6 1
  11    5    8 1
  12    6    7 2
  13    7    9 1
  14    8    9 2
  15    8   10 1
  16   10   23 1
  17   10   33 1
  18   10   34 1
  19   11   12 1
  20   11   16 1
  21   12   13 1
  22   12   35 1
  23   12   36 1
  24   13   14 1
  25   13   37 1
  26   13   38 1
  27   14   15 1
  28   14   17 1
  29   14   24 1
  30   15   16 1
  31   15   39 1
  32   15   40 1
  33   16   41 1
  34   16   42 1
  35   17   18 ar
  36   17   22 ar
  37   18   19 ar
  38   18   43 1
  39   19   20 ar
  40   19   44 1
  41   20   21 ar
  42   20   45 1
  43   21   22 ar
  44   21   46 1
  45   22   47 1
  46   23   25 1
  47   23   26 1
  48   23   48 1
  49   25   26 1
  50   25   49 1
  51   25   50 1
  52   26   51 1
  53   26   52 1
  54   27   28 1
  55   27   29 1
  56   27   30 1

#	End of record

