#	Name: ASD03082263
#	Creating user name:	WinNT
#	Creation time:	15. 06. 2019 20:27

#	Modifying user name:	WinNT
#	Modification time:	15. 06. 2019 20:27

#	Program:	/corina/corina34_cracker 3.40 0067  02.08.2006

@<TRIPOS>MOLECULE
ASD03082263
  48   50    0    0    0
SMALL
NO_CHARGES


@<TRIPOS>ATOM
   1 N1            -0.0602     1.1964     0.9671 N.pl3   
   2 N2             0.0015    -0.1027     0.4377 N.2     
   3 C3             1.2680    -0.4495     0.4203 C.2     
   4 N4             2.0007     0.5537     0.9063 N.2     
   5 C5             1.2138     1.5570     1.2419 C.2     
   6 N6             1.7674    -1.6719    -0.0336 N.pl3   
   7 C7             0.8877    -2.7014    -0.3779 C.ar    
   8 C8             1.3156    -4.0219    -0.3442 C.ar    
   9 C9             0.4400    -5.0401    -0.6859 C.ar    
  10 C10           -0.8620    -4.7381    -1.0609 C.ar    
  11 C11           -1.2864    -3.4235    -1.0940 C.ar    
  12 C12           -0.4182    -2.4057    -0.7490 C.ar    
  13 O13            0.8558    -6.3335    -0.6543 O.3     
  14 C14            1.6476     2.8481     1.8170 C.ar    
  15 C15           -1.2651     2.0035     1.1745 C.3     
  16 C16            1.0993     4.0548     1.3709 C.ar    
  17 C17            1.5325     5.2373     1.9346 C.ar    
  18 N18            2.4506     5.2441     2.8819 N.ar    
  19 C19            2.9975     4.1342     3.3361 C.ar    
  20 C20            2.6188     2.8976     2.8317 C.ar    
  21 C21           -1.9052     2.3213    -0.1783 C.3     
  22 O22           -2.1930     1.2754     1.9813 O.3     
  23 N23            3.1994     1.7267     3.3152 N.pl3   
  24 C24            4.1494     1.7859     4.4288 C.3     
  25 C25            4.5434     0.3655     4.8390 C.3     
  26 C26           -0.1000    -7.3313    -1.0190 C.3     
  27 F27           -0.5309    -7.1069    -2.3309 F       
  28 F28            0.4906    -8.5966    -0.9321 F       
  29 F29           -1.1952    -7.2673    -0.1510 F       
  30 H30            2.7250    -1.8063    -0.1099 H       
  31 H31            2.3290    -4.2549    -0.0525 H       
  32 H32           -1.5442    -5.5318    -1.3276 H       
  33 H33           -2.2999    -3.1915    -1.3862 H       
  34 H34           -0.7536    -1.3794    -0.7718 H       
  35 H35           -0.9977     2.9330     1.6772 H       
  36 H36            0.3473     4.0611     0.5957 H       
  37 H37            1.1134     6.1727     1.5945 H       
  38 H38            3.7459     4.1872     4.1130 H       
  39 H39           -1.1975     2.8766    -0.7937 H       
  40 H40           -2.1726     1.3918    -0.6810 H       
  41 H41           -2.8017     2.9218    -0.0240 H       
  42 H42           -3.0162     1.7504     2.1597 H       
  43 H43            2.9744     0.8725     2.9144 H       
  44 H44            5.0388     2.3345     4.1189 H       
  45 H45            3.6861     2.2931     5.2751 H       
  46 H46            5.1824     0.4062     5.7212 H       
  47 H47            3.6457    -0.2091     5.0669 H       
  48 H48            5.0829    -0.1124     4.0213 H       
@<TRIPOS>BOND
   1    1    2 1
   2    1    5 1
   3    1   15 1
   4    2    3 2
   5    3    4 1
   6    3    6 1
   7    4    5 2
   8    5   14 1
   9    6    7 1
  10    6   30 1
  11    7    8 ar
  12    7   12 ar
  13    8    9 ar
  14    8   31 1
  15    9   10 ar
  16    9   13 1
  17   10   11 ar
  18   10   32 1
  19   11   12 ar
  20   11   33 1
  21   12   34 1
  22   13   26 1
  23   14   16 ar
  24   14   20 ar
  25   15   21 1
  26   15   22 1
  27   15   35 1
  28   16   17 ar
  29   16   36 1
  30   17   18 ar
  31   17   37 1
  32   18   19 ar
  33   19   20 ar
  34   19   38 1
  35   20   23 1
  36   21   39 1
  37   21   40 1
  38   21   41 1
  39   22   42 1
  40   23   24 1
  41   23   43 1
  42   24   25 1
  43   24   44 1
  44   24   45 1
  45   25   46 1
  46   25   47 1
  47   25   48 1
  48   26   27 1
  49   26   28 1
  50   26   29 1

#	End of record

