#	Name: ASD08170107
#	Creating user name:	WinNT
#	Creation time:	15. 06. 2019 21:17

#	Modifying user name:	WinNT
#	Modification time:	15. 06. 2019 21:17

#	Program:	/corina/corina34_cracker 3.40 0067  02.08.2006

@<TRIPOS>MOLECULE
ASD08170107
  95   98    0    0    0
SMALL
NO_CHARGES


@<TRIPOS>ATOM
   1 N1            -1.8932     3.1688     2.2870 N.2     
   2 N2            -1.8224     1.9158     2.4251 N.2     
   3 C3            -0.8079     3.8013     1.9567 C.2     
   4 S4             0.4644     2.6647     1.8012 S.3     
   5 C5            -0.6630     1.3751     2.2223 C.2     
   6 C6            -0.3360    -0.0922     2.3273 C.3     
   7 C7            -0.5495    -0.7609     0.9679 C.3     
   8 S8            -0.1559    -2.5272     1.0943 S.3     
   9 C9            -0.4646    -3.1354    -0.5866 C.3     
  10 C10           -0.1735    -4.6362    -0.6474 C.3     
  11 C11           -0.4300    -5.1415    -2.0438 C.2     
  12 N12            0.4337    -5.1949    -3.0076 N.2     
  13 S13           -1.9584    -5.7734    -2.6573 S.3     
  14 C14           -1.2186    -6.0294    -4.1811 C.2     
  15 N15            0.0225    -5.6529    -4.1098 N.2     
  16 N16           -1.8422    -6.5574    -5.3065 N.am    
  17 C17           -3.1402    -6.9163    -5.2516 C.2     
  18 O18           -3.7396    -6.8648    -4.1985 O.2     
  19 C19           -3.8466    -7.3817    -6.4988 C.3     
  20 N20           -0.6971     5.1738     1.7612 N.am    
  21 C21            0.4900     5.7121     1.4184 C.2     
  22 O22            1.4402     4.9923     1.1947 O.2     
  23 C23            0.6367     7.2082     1.3131 C.3     
  24 C24           -5.2394    -7.8370    -6.1469 C.ar    
  25 C25           -6.2873    -6.9356    -6.1680 C.ar    
  26 C26           -5.4702    -9.1573    -5.8085 C.ar    
  27 C27           -6.7478    -9.5749    -5.4857 C.ar    
  28 C28           -7.7946    -8.6722    -5.5009 C.ar    
  29 C29           -7.5649    -7.3533    -5.8452 C.ar    
  30 C30            2.0775     7.5536     1.0381 C.ar    
  31 C31            2.5287     7.6497    -0.2650 C.ar    
  32 C32            3.8504     7.9664    -0.5173 C.ar    
  33 C33            4.7208     8.1875     0.5335 C.ar    
  34 C34            4.2695     8.0923     1.8366 C.ar    
  35 C35            2.9468     7.7798     2.0889 C.ar    
  36 C36           -1.8709     6.0345     1.9279 C.3     
  37 O37           -2.3470     6.4615     0.6243 O.3     
  38 C38           -3.0594     5.5725    -0.0855 C.2     
  39 O39           -3.3601     4.5099     0.4047 O.2     
  40 C40           -3.4842     5.8997    -1.4939 C.3     
  41 C41           -4.2772     4.7264    -2.0730 C.3     
  42 C42           -4.3618     7.1529    -1.4837 C.3     
  43 C43           -2.2448     6.1520    -2.3548 C.3     
  44 C44           -1.0884    -6.7233    -6.5516 C.3     
  45 O45           -1.4926    -5.7026    -7.5019 O.3     
  46 C46           -1.0000    -4.4679    -7.3164 C.2     
  47 O47           -0.1824    -4.2676    -6.4495 O.2     
  48 C48           -1.4665    -3.3315    -8.1893 C.3     
  49 C49           -0.7552    -2.0427    -7.7721 C.3     
  50 C50           -1.1400    -3.6439    -9.6510 C.3     
  51 C51           -2.9779    -3.1540    -8.0309 C.3     
  52 H52            0.7038    -0.2119     2.6318 H       
  53 H53           -0.9871    -0.5575     3.0674 H       
  54 H54           -1.5893    -0.6413     0.6634 H       
  55 H55            0.1016    -0.2956     0.2278 H       
  56 H56           -1.5065    -2.9563    -0.8521 H       
  57 H57            0.1843    -2.6107    -1.2878 H       
  58 H58            0.8684    -4.8153    -0.3819 H       
  59 H59           -0.8225    -5.1609     0.0537 H       
  60 H60           -3.9025    -6.5599    -7.2127 H       
  61 H61           -3.2943    -8.2106    -6.9414 H       
  62 H62            0.0127     7.5781     0.4995 H       
  63 H63            0.3245     7.6707     2.2495 H       
  64 H64           -6.1077    -5.9050    -6.4364 H       
  65 H65           -4.6523    -9.8625    -5.7966 H       
  66 H66           -6.9282   -10.6066    -5.2220 H       
  67 H67           -8.7928    -8.9986    -5.2491 H       
  68 H68           -8.3827    -6.6480    -5.8571 H       
  69 H69            1.8486     7.4770    -1.0860 H       
  70 H70            4.2030     8.0408    -1.5354 H       
  71 H71            5.7536     8.4343     0.3364 H       
  72 H72            4.9497     8.2647     2.6576 H       
  73 H73            2.5942     7.7054     3.1070 H       
  74 H74           -2.6583     5.4802     2.4386 H       
  75 H75           -1.5994     6.9086     2.5198 H       
  76 H76           -5.1602     4.5467    -1.4597 H       
  77 H77           -4.5845     4.9631    -3.0917 H       
  78 H78           -3.6520     3.8336    -2.0802 H       
  79 H79           -3.7968     7.9888    -1.0712 H       
  80 H80           -4.6690     7.3896    -2.5024 H       
  81 H81           -5.2448     6.9732    -0.8704 H       
  82 H82           -1.6196     5.2591    -2.3621 H       
  83 H83           -2.5520     6.3886    -3.3735 H       
  84 H84           -1.6798     6.9878    -1.9422 H       
  85 H85           -0.0222    -6.6269    -6.3464 H       
  86 H86           -1.2901    -7.7095    -6.9698 H       
  87 H87            0.3216    -2.1691    -7.8849 H       
  88 H88           -1.0926    -1.2208    -8.4034 H       
  89 H89           -0.9878    -1.8201    -6.7307 H       
  90 H90           -1.6468    -4.5621    -9.9482 H       
  91 H91           -1.4775    -2.8220   -10.2824 H       
  92 H92           -0.0633    -3.7704    -9.7638 H       
  93 H93           -3.2105    -2.9314    -6.9896 H       
  94 H94           -3.3153    -2.3321    -8.6623 H       
  95 H95           -3.4846    -4.0722    -8.3282 H       
@<TRIPOS>BOND
   1    1    2 1
   2    1    3 2
   3    2    5 2
   4    3    4 1
   5    3   20 1
   6    4    5 1
   7    5    6 1
   8    6    7 1
   9    6   52 1
  10    6   53 1
  11    7    8 1
  12    7   54 1
  13    7   55 1
  14    8    9 1
  15    9   10 1
  16    9   56 1
  17    9   57 1
  18   10   11 1
  19   10   58 1
  20   10   59 1
  21   11   12 2
  22   11   13 1
  23   12   15 1
  24   13   14 1
  25   14   15 2
  26   14   16 1
  27   16   17 am
  28   16   44 1
  29   17   18 2
  30   17   19 1
  31   19   24 1
  32   19   60 1
  33   19   61 1
  34   20   21 am
  35   20   36 1
  36   21   22 2
  37   21   23 1
  38   23   30 1
  39   23   62 1
  40   23   63 1
  41   24   25 ar
  42   24   26 ar
  43   25   29 ar
  44   25   64 1
  45   26   27 ar
  46   26   65 1
  47   27   28 ar
  48   27   66 1
  49   28   29 ar
  50   28   67 1
  51   29   68 1
  52   30   31 ar
  53   30   35 ar
  54   31   32 ar
  55   31   69 1
  56   32   33 ar
  57   32   70 1
  58   33   34 ar
  59   33   71 1
  60   34   35 ar
  61   34   72 1
  62   35   73 1
  63   36   37 1
  64   36   74 1
  65   36   75 1
  66   37   38 1
  67   38   39 2
  68   38   40 1
  69   40   41 1
  70   40   42 1
  71   40   43 1
  72   41   76 1
  73   41   77 1
  74   41   78 1
  75   42   79 1
  76   42   80 1
  77   42   81 1
  78   43   82 1
  79   43   83 1
  80   43   84 1
  81   44   45 1
  82   44   85 1
  83   44   86 1
  84   45   46 1
  85   46   47 2
  86   46   48 1
  87   48   49 1
  88   48   50 1
  89   48   51 1
  90   49   87 1
  91   49   88 1
  92   49   89 1
  93   50   90 1
  94   50   91 1
  95   50   92 1
  96   51   93 1
  97   51   94 1
  98   51   95 1

#	End of record

