#	Name: ASD01910021
#	Creating user name:	WinNT
#	Creation time:	15. 06. 2019 19:55

#	Modifying user name:	WinNT
#	Modification time:	15. 06. 2019 19:55

#	Program:	/corina/corina34_cracker 3.40 0067  02.08.2006

@<TRIPOS>MOLECULE
ASD01910021
  20   20    0    0    0
SMALL
NO_CHARGES


@<TRIPOS>ATOM
   1 C1            -0.0162     1.3427     0.0094 C.2     
   2 N2             0.0021    -0.0041     0.0020 N.am    
   3 O3            -1.1286    -0.4402     0.0109 O.3     
   4 C4            -2.0181     0.5614     0.0251 C.2     
   5 N5            -1.3159     1.7174     0.0298 N.am    
   6 O6            -3.2289     0.4519     0.0365 O.2     
   7 O7             0.9510     2.0808     0.0042 O.2     
   8 C8             1.2156    -0.8246    -0.0144 C.3     
   9 C9             1.8610    -0.8085     1.3727 C.3     
  10 N10            2.0990     0.5810     1.7859 N.3     
  11 C11            3.1720    -1.5501     1.3254 C.2     
  12 O12            4.2103    -0.9372     1.2462 O.2     
  13 O13            3.1864    -2.8915     1.3712 O.3     
  14 H14           -1.6686     2.6210     0.0396 H       
  15 H15            0.9579    -1.8490    -0.2834 H       
  16 H16            1.9164    -0.4223    -0.7459 H       
  17 H17            1.1959    -1.2916     2.0885 H       
  18 H18            2.7133     1.0508     1.1377 H       
  19 H19            1.2291     1.0820     1.8876 H       
  20 H20            4.0513    -3.3227     1.3379 H       
@<TRIPOS>BOND
   1    1    2 am
   2    1    7 2
   3    1    5 am
   4    2    3 1
   5    2    8 1
   6    3    4 1
   7    4    5 am
   8    4    6 2
   9    5   14 1
  10    8    9 1
  11    8   15 1
  12    8   16 1
  13    9   11 1
  14    9   10 1
  15    9   17 1
  16   10   18 1
  17   10   19 1
  18   11   12 2
  19   11   13 1
  20   13   20 1

#	End of record

