#	Name: ASD01180211
#	Creating user name:	WinNT
#	Creation time:	15. 06. 2019 19:07

#	Modifying user name:	WinNT
#	Modification time:	15. 06. 2019 19:07

#	Program:	/corina/corina34_cracker 3.40 0067  02.08.2006

@<TRIPOS>MOLECULE
ASD01180211
  66   70    0    0    0
SMALL
NO_CHARGES


@<TRIPOS>ATOM
   1 C1            -0.1396    -4.7489    -6.3858 C.3     
   2 C2            -0.5819    -3.5851    -5.4965 C.3     
   3 C3            -0.9185    -2.3750    -6.3702 C.3     
   4 N4            -1.7701    -3.9799    -4.7282 N.3     
   5 C5            -2.9620    -4.0869    -5.6086 C.3     
   6 C6            -4.1659    -3.9634    -4.6501 C.3     
   7 C7            -3.6240    -3.2040    -3.4216 C.3     
   8 C8            -2.1382    -2.9324    -3.7412 C.3     
   9 H9            -2.0182    -1.9405    -4.1769 H       
  10 C10           -1.2871    -3.0678    -2.4770 C.3     
  11 N11            0.1281    -2.9114    -2.8221 N.am    
  12 C12            0.6686    -1.6798    -2.9082 C.2     
  13 O13           -0.0398    -0.6955    -2.8031 O.2     
  14 C14            2.1093    -1.5255    -3.1283 C.2     
  15 C15            2.6108    -1.6578    -4.3717 C.2     
  16 N16            3.9487    -1.5236    -4.6293 N.am    
  17 C17            4.4410    -1.6775    -6.0005 C.3     
  18 C18            4.1643    -3.1092    -6.5038 C.3     
  19 C19            2.8319    -2.9868    -7.2840 C.3     
  20 C20            2.9716    -1.6130    -7.9856 C.3     
  21 C21            3.6827    -0.7261    -6.9427 C.3     
  22 C22            4.8186    -1.2509    -3.6355 C.2     
  23 O23            6.0067    -1.1323    -3.8699 O.2     
  24 C24            4.3095    -1.0987    -2.2640 C.2     
  25 C25            4.9282    -0.8291    -1.0837 C.2     
  26 C26            6.4050    -0.6039    -0.8856 C.3     
  27 C27            3.9371    -0.7980    -0.0754 C.ar    
  28 C28            3.9791    -0.5712     1.3072 C.ar    
  29 C29            2.8247    -0.6058     2.0363 C.ar    
  30 F30            2.8675    -0.3869     3.3688 F       
  31 C31            1.6049    -0.8641     1.4185 C.ar    
  32 C32            1.5387    -1.0898     0.0625 C.ar    
  33 C33            2.7021    -1.0602    -0.7029 C.ar    
  34 N34            2.9493    -1.2363    -2.0429 N.pl3   
  35 H35            0.6927    -4.4306    -7.0135 H       
  36 H36            0.1755    -5.5844    -5.7607 H       
  37 H37           -0.9719    -5.0609    -7.0166 H       
  38 H38            0.2243    -3.3250    -4.8107 H       
  39 H39           -1.6214    -2.6728    -7.1482 H       
  40 H40           -1.3671    -1.5956    -5.7542 H       
  41 H41           -0.0067    -1.9944    -6.8306 H       
  42 H42           -2.9709    -3.2757    -6.3365 H       
  43 H43           -2.9759    -5.0525    -6.1140 H       
  44 H44           -4.9687    -3.3967    -5.1217 H       
  45 H45           -4.5202    -4.9520    -4.3580 H       
  46 H46           -4.1608    -2.2645    -3.2902 H       
  47 H47           -3.7123    -3.8198    -2.5266 H       
  48 H48           -1.5740    -2.2970    -1.7616 H       
  49 H49           -1.4468    -4.0513    -2.0351 H       
  50 H50            0.6761    -3.6943    -2.9885 H       
  51 H51            1.9385    -1.8763    -5.1882 H       
  52 H52            5.5099    -1.4674    -6.0390 H       
  53 H53            4.9643    -3.4424    -7.1650 H       
  54 H54            4.0527    -3.7941    -5.6633 H       
  55 H55            2.7388    -3.7875    -8.0176 H       
  56 H56            1.9827    -2.9869    -6.6006 H       
  57 H57            3.5790    -1.7046    -8.8861 H       
  58 H58            1.9896    -1.2060    -8.2265 H       
  59 H59            2.9484    -0.1500    -6.3797 H       
  60 H60            4.3836    -0.0550    -7.4390 H       
  61 H61            6.6291     0.4569    -0.9985 H       
  62 H62            6.6916    -0.9314     0.1138 H       
  63 H63            6.9624    -1.1741    -1.6286 H       
  64 H64            4.9217    -0.3700     1.7945 H       
  65 H65            0.7010    -0.8881     2.0091 H       
  66 H66            0.5868    -1.2890    -0.4071 H       
@<TRIPOS>BOND
   1    1    2 1
   2    1   35 1
   3    1   36 1
   4    1   37 1
   5    2    3 1
   6    2    4 1
   7    2   38 1
   8    3   39 1
   9    3   40 1
  10    3   41 1
  11    4    8 1
  12    4    5 1
  13    5    6 1
  14    5   42 1
  15    5   43 1
  16    6    7 1
  17    6   44 1
  18    6   45 1
  19    7    8 1
  20    7   46 1
  21    7   47 1
  22    8    9 1
  23    8   10 1
  24   10   11 1
  25   10   48 1
  26   10   49 1
  27   11   12 am
  28   11   50 1
  29   12   13 2
  30   12   14 1
  31   14   34 1
  32   14   15 2
  33   15   16 1
  34   15   51 1
  35   16   17 1
  36   16   22 am
  37   17   21 1
  38   17   18 1
  39   17   52 1
  40   18   19 1
  41   18   53 1
  42   18   54 1
  43   19   20 1
  44   19   55 1
  45   19   56 1
  46   20   21 1
  47   20   57 1
  48   20   58 1
  49   21   59 1
  50   21   60 1
  51   22   23 2
  52   22   24 1
  53   24   34 1
  54   24   25 2
  55   25   26 1
  56   25   27 1
  57   26   61 1
  58   26   62 1
  59   26   63 1
  60   27   33 ar
  61   27   28 ar
  62   28   29 ar
  63   28   64 1
  64   29   30 1
  65   29   31 ar
  66   31   32 ar
  67   31   65 1
  68   32   33 ar
  69   32   66 1
  70   33   34 1

#	End of record

