#	Name: ASD01001118
#	Creating user name:	WinNT
#	Creation time:	15. 06. 2019 18:55

#	Modifying user name:	WinNT
#	Modification time:	15. 06. 2019 18:55

#	Program:	/corina/corina34_cracker 3.40 0067  02.08.2006

@<TRIPOS>MOLECULE
ASD01001118
  47   49    0    0    0
SMALL
NO_CHARGES


@<TRIPOS>ATOM
   1 C1             0.0460     1.2730     0.0912 C.2     
   2 C2             0.0384    -0.0637     0.0619 C.2     
   3 C3            -1.3076    -0.6098     0.0519 C.2     
   4 C4            -2.2817     0.3507     0.0746 C.2     
   5 S5            -1.5915     1.9068     0.1003 S.3     
   6 N6            -3.6395     0.0933     0.0707 N.pl3   
   7 C7            -4.5955     1.2030     0.0967 C.3     
   8 C8            -1.5937    -2.0457     0.0202 C.2     
   9 O9            -1.6182    -2.6845     1.0562 O.2     
  10 N10           -1.8297    -2.6600    -1.1560 N.am    
  11 C11           -2.0039    -4.1139    -1.2011 C.3     
  12 C12           -1.9121    -1.8738    -2.3894 C.3     
  13 C13           -3.4619    -4.4626    -0.8955 C.3     
  14 C14           -0.5487    -1.8699    -3.0838 C.3     
  15 C15           -5.9999     0.6565     0.0863 C.2     
  16 C16            1.3038     2.1206     0.1075 C.3     
  17 C17            2.4891     1.2352     0.5016 C.3     
  18 C18            2.4810    -0.0261    -0.3673 C.3     
  19 C19            1.3011    -0.9105     0.0416 C.3     
  20 C20           -6.7151     0.3533     1.1707 C.2     
  21 C21           -7.9848    -0.1346     0.9143 C.2     
  22 C22           -8.3008    -0.2277    -0.3783 C.2     
  23 S23           -6.9494     0.3280    -1.3573 S.3     
  24 H24           -3.9595    -0.8222     0.0506 H       
  25 H25           -4.4421     1.7936     0.9999 H       
  26 H26           -4.4445     1.8333    -0.7797 H       
  27 H27           -1.7430    -4.4805    -2.1939 H       
  28 H28           -1.3555    -4.5807    -0.4595 H       
  29 H29           -2.6563    -2.3150    -3.0525 H       
  30 H30           -2.2005    -0.8504    -2.1494 H       
  31 H31           -4.1025    -4.0707    -1.6855 H       
  32 H32           -3.5729    -5.5456    -0.8415 H       
  33 H33           -3.7491    -4.0199     0.0583 H       
  34 H34            0.1761    -1.3488    -2.4583 H       
  35 H35           -0.2193    -2.8966    -3.2433 H       
  36 H36           -0.6317    -1.3614    -4.0444 H       
  37 H37            1.4747     2.5401    -0.8839 H       
  38 H38            1.1922     2.9262     0.8332 H       
  39 H39            3.4197     1.7805     0.3443 H       
  40 H40            2.4019     0.9553     1.5515 H       
  41 H41            2.3796     0.2545    -1.4156 H       
  42 H42            3.4130    -0.5729    -0.2241 H       
  43 H43            1.4802    -1.3226     1.0346 H       
  44 H44            1.1860    -1.7215    -0.6776 H       
  45 H45           -6.3323     0.4787     2.1728 H       
  46 H46           -8.6678    -0.4188     1.7012 H       
  47 H47           -9.2436    -0.5861    -0.7645 H       
@<TRIPOS>BOND
   1    1    2 2
   2    1   16 1
   3    1    5 1
   4    2    3 1
   5    2   19 1
   6    3    4 2
   7    3    8 1
   8    4    5 1
   9    4    6 1
  10    6    7 1
  11    6   24 1
  12    7   15 1
  13    7   25 1
  14    7   26 1
  15    8    9 2
  16    8   10 am
  17   10   11 1
  18   10   12 1
  19   11   13 1
  20   11   27 1
  21   11   28 1
  22   12   14 1
  23   12   29 1
  24   12   30 1
  25   13   31 1
  26   13   32 1
  27   13   33 1
  28   14   34 1
  29   14   35 1
  30   14   36 1
  31   15   20 2
  32   15   23 1
  33   16   17 1
  34   16   37 1
  35   16   38 1
  36   17   18 1
  37   17   39 1
  38   17   40 1
  39   18   19 1
  40   18   41 1
  41   18   42 1
  42   19   43 1
  43   19   44 1
  44   20   21 1
  45   20   45 1
  46   21   22 2
  47   21   46 1
  48   22   23 1
  49   22   47 1

#	End of record

