#	Name: ASD00241037
#	Creating user name:	WinNT
#	Creation time:	15. 06. 2019 18:33

#	Modifying user name:	WinNT
#	Modification time:	15. 06. 2019 18:33

#	Program:	/corina/corina34_cracker 3.40 0067  02.08.2006

@<TRIPOS>MOLECULE
ASD00241037
  39   42    0    0    0
SMALL
NO_CHARGES


@<TRIPOS>ATOM
   1 N1            -0.0158     1.3174     0.0093 N.ar    
   2 C2             0.0021    -0.0041     0.0020 C.ar    
   3 N3             1.1237    -0.6954    -0.0120 N.ar    
   4 C4             2.3002    -0.0771    -0.0199 C.ar    
   5 C5             2.3338     1.3275    -0.0131 C.ar    
   6 C6             1.1117     2.0208     0.0023 C.ar    
   7 N7             3.6095    -0.4868    -0.0342 N.pl3   
   8 C8             4.3880     0.6326    -0.0358 C.2     
   9 N9             3.6378     1.6958    -0.0235 N.2     
  10 C10            4.0840    -1.8727    -0.0449 C.3     
  11 O11            5.4135    -1.9325     0.4801 O.3     
  12 C12            6.2966    -2.5243    -0.4833 C.3     
  13 C13            5.6318    -2.2945    -1.8585 C.3     
  14 C14            4.1169    -2.4005    -1.4918 C.3     
  15 C15            7.6641    -1.8397    -0.4367 C.3     
  16 O16            3.9111    -3.8295    -1.4654 O.3     
  17 O17            5.8581    -3.4439    -2.6896 O.3     
  18 N18            1.0829     3.4043     0.0091 N.pl3   
  19 O19            8.2926    -2.1160     0.8166 O.3     
  20 Cl20          -1.5078    -0.8607     0.0118 Cl      
  21 C21            4.7832    -4.3641    -2.4718 C.3     
  22 C22            5.3445    -5.7083    -2.0039 C.3     
  23 C23            4.0045    -4.5618    -3.7739 C.3     
  24 H24            5.4679     0.6363    -0.0452 H       
  25 H25            3.4216    -2.4934     0.5584 H       
  26 H26            6.4028    -3.5918    -0.2904 H       
  27 H27            5.9073    -1.3473    -2.3224 H       
  28 H28            3.4565    -1.8610    -2.1707 H       
  29 H29            8.2875    -2.2178    -1.2470 H       
  30 H30            7.5355    -0.7632    -0.5492 H       
  31 H31            1.9126     3.9068     0.0033 H       
  32 H32            0.2329     3.8717     0.0198 H       
  33 H33            9.1657    -1.7124     0.9161 H       
  34 H34            4.5236    -6.4039    -1.8295 H       
  35 H35            6.0064    -6.1122    -2.7699 H       
  36 H36            5.9033    -5.5665    -1.0788 H       
  37 H37            3.6088    -3.6033    -4.1098 H       
  38 H38            4.6690    -4.9679    -4.5366 H       
  39 H39            3.1810    -5.2551    -3.6031 H       
@<TRIPOS>BOND
   1    1    2 ar
   2    1    6 ar
   3    2    3 ar
   4    2   20 1
   5    3    4 ar
   6    4    5 ar
   7    4    7 1
   8    5    6 ar
   9    5    9 1
  10    6   18 1
  11    7    8 1
  12    7   10 1
  13    8    9 2
  14    8   24 1
  15   10   11 1
  16   10   14 1
  17   10   25 1
  18   11   12 1
  19   12   13 1
  20   12   15 1
  21   12   26 1
  22   13   14 1
  23   13   17 1
  24   13   27 1
  25   14   16 1
  26   14   28 1
  27   15   19 1
  28   15   29 1
  29   15   30 1
  30   16   21 1
  31   17   21 1
  32   18   31 1
  33   18   32 1
  34   19   33 1
  35   21   22 1
  36   21   23 1
  37   22   34 1
  38   22   35 1
  39   22   36 1
  40   23   37 1
  41   23   38 1
  42   23   39 1

#	End of record

