#	Name: ASD01911752
#	Creating user name:	WinNT
#	Creation time:	15. 06. 2019 19:58

#	Modifying user name:	WinNT
#	Modification time:	15. 06. 2019 19:58

#	Program:	/corina/corina34_cracker 3.40 0067  02.08.2006

@<TRIPOS>MOLECULE
ASD01911752
  31   32    0    0    0
SMALL
NO_CHARGES


@<TRIPOS>ATOM
   1 N1            -0.0178     1.4648     0.0101 N.3     
   2 C2             0.0021    -0.0041     0.0020 C.3     
   3 C3             0.5981    -0.5055     1.2922 C.2     
   4 C4            -0.0787    -0.7823     2.4135 C.2     
   5 S5             2.3050    -0.8354     1.5818 S.3     
   6 C6             1.9265    -1.3194     3.2329 C.2     
   7 N7             0.6393    -1.2087     3.4249 N.2     
   8 C8             2.8766    -1.7673     4.2063 C.1     
   9 C9             3.6554    -2.1345     5.0043 C.1     
  10 C10            4.6055    -2.5824     5.9777 C.ar    
  11 C11            4.1811    -2.9404     7.2607 C.ar    
  12 C12            5.1019    -3.3712     8.1925 C.ar    
  13 C13            6.4430    -3.4496     7.8602 C.ar    
  14 C14            6.8708    -3.0965     6.5923 C.ar    
  15 C15            5.9612    -2.6693     5.6479 C.ar    
  16 C16            1.3463     2.0098    -0.0000 C.3     
  17 C17           -0.8017     1.9868    -1.1173 C.3     
  18 H18           -1.0158    -0.3807    -0.0985 H       
  19 H19            0.6037    -0.3547    -0.8366 H       
  20 H20           -1.1498    -0.6617     2.4813 H       
  21 H21            3.1348    -2.8793     7.5215 H       
  22 H22            4.7756    -3.6478     9.1842 H       
  23 H23            7.1595    -3.7878     8.5941 H       
  24 H24            7.9191    -3.1600     6.3404 H       
  25 H25            6.2965    -2.3945     4.6587 H       
  26 H26            1.8658     1.6723    -0.8968 H       
  27 H27            1.3024     3.0989     0.0063 H       
  28 H28            1.8828     1.6627     0.8830 H       
  29 H29           -1.8268     1.6230    -1.0465 H       
  30 H30           -0.8000     3.0764    -1.0873 H       
  31 H31           -0.3600     1.6485    -2.0545 H       
@<TRIPOS>BOND
   1    1    2 1
   2    1   16 1
   3    1   17 1
   4    2    3 1
   5    2   18 1
   6    2   19 1
   7    3    4 2
   8    3    5 1
   9    4    7 1
  10    4   20 1
  11    5    6 1
  12    6    7 2
  13    6    8 1
  14    8    9 3
  15    9   10 1
  16   10   11 ar
  17   10   15 ar
  18   11   12 ar
  19   11   21 1
  20   12   13 ar
  21   12   22 1
  22   13   14 ar
  23   13   23 1
  24   14   15 ar
  25   14   24 1
  26   15   25 1
  27   16   26 1
  28   16   27 1
  29   16   28 1
  30   17   29 1
  31   17   30 1
  32   17   31 1

#	End of record

