#	Name: ASD05143017
#	Creating user name:	WinNT
#	Creation time:	15. 06. 2019 20:57

#	Modifying user name:	WinNT
#	Modification time:	15. 06. 2019 20:57

#	Program:	/corina/corina34_cracker 3.40 0067  02.08.2006

@<TRIPOS>MOLECULE
ASD05143017
 145  148    0    0    0
SMALL
NO_CHARGES


@<TRIPOS>ATOM
   1 C1            -2.1118     5.3907     7.5278 C.2     
   2 C2            -1.6271     4.6519     8.7486 C.3     
   3 N3            -1.2234     5.9272     6.6680 N.am    
   4 O4            -3.3012     5.4981     7.3165 O.2     
   5 C5            -1.6946     6.6455     5.4812 C.3     
   6 C6            -2.5275     5.7019     4.6113 C.3     
   7 C7            -2.5426     7.8165     5.9065 C.2     
   8 C8            -1.6352     4.5796     4.0774 C.3     
   9 C9            -2.4681     3.6360     3.2074 C.3     
  10 N10           -1.6137     2.5613     2.6962 N.pl3   
  11 C11           -2.1458     1.5870     1.8852 C.2     
  12 N12           -3.4797     1.6212     1.5538 N.pl3   
  13 N13           -1.3857     0.6309     1.4303 N.2     
  14 O14           -3.0360     7.8373     7.0142 O.2     
  15 N15           -2.7526     8.8405     5.0558 N.am    
  16 C16           -3.5769     9.9789     5.4692 C.3     
  17 C17           -2.6743    11.1698     5.7975 C.3     
  18 C18           -1.5187    10.7051     6.6859 C.3     
  19 C19           -0.3771    10.2358     5.8216 C.2     
  20 O20           -0.5792     9.5059     4.8743 O.2     
  21 N21            0.8898    10.6482     6.1243 N.am    
  22 C22            1.9537    10.1371     5.2302 C.3     
  23 C23            2.1047    11.0979     4.0491 C.3     
  24 C24            2.7689    10.3677     2.8801 C.3     
  25 C25            3.7278    11.3195     2.1621 C.3     
  26 N26            3.6772    11.0427     0.7124 N.am    
  27 C27            5.1300    11.1011     2.6692 C.2     
  28 N28            5.5168    11.6493     3.8381 N.am    
  29 O29            5.9104    10.4322     2.0255 O.2     
  30 C30            2.8515    11.8310    -0.0287 C.2     
  31 O31            2.2073    12.7127     0.4991 O.2     
  32 C32            2.7483    11.5949    -1.5135 C.3     
  33 N33            1.5339    12.2778    -2.0159 N.am    
  34 C34            3.9845    12.1652    -2.2117 C.3     
  35 C35            0.4810    11.4583    -2.3099 C.2     
  36 O36            0.5725    10.2579    -2.1630 O.2     
  37 C37           -0.7964    12.0742    -2.8197 C.3     
  38 N38           -1.9234    11.1811    -2.4848 N.am    
  39 C39           -1.0082    13.4372    -2.1576 C.3     
  40 C40           -3.0284    11.7691    -1.9493 C.2     
  41 O41           -3.0580    12.9669    -1.7617 O.2     
  42 C42           -4.2143    10.9101    -1.5934 C.3     
  43 C43            3.9373    11.8201    -3.6779 C.2     
  44 C44            3.2398    12.5675    -4.7270 C.ar    
  45 C45            3.4785    11.8703    -5.9251 C.ar    
  46 N46            4.2634    10.7830    -5.6130 N.pl3   
  47 C47            4.5314    10.7727    -4.2712 C.2     
  48 C48            2.4630    13.7278    -4.7389 C.ar    
  49 C49            1.9379    14.1804    -5.9162 C.ar    
  50 C50            2.1702    13.4956    -7.1014 C.ar    
  51 C51            2.9343    12.3495    -7.1125 C.ar    
  52 N52           -4.8009    11.4112    -0.3295 N.am    
  53 C53           -3.7613     9.4603    -1.4097 C.3     
  54 C54           -4.9600     8.5913    -1.1283 C.ar    
  55 C55           -5.9883     8.5142    -2.0484 C.ar    
  56 C56           -7.0889     7.7166    -1.7905 C.ar    
  57 C57           -7.1592     6.9960    -0.6104 C.ar    
  58 C58           -6.1289     7.0743     0.3095 C.ar    
  59 C59           -5.0276     7.8672     0.0476 C.ar    
  60 C60           -4.5145    10.3530     4.3501 C.2     
  61 N61           -3.9968    10.8407     3.1893 N.am    
  62 O62           -5.7129    10.2211     4.4816 O.2     
  63 C63           -4.9639    11.1902     2.1296 C.3     
  64 C64           -5.1856    12.7040     2.1169 C.3     
  65 C65           -4.4083    10.7500     0.7998 C.2     
  66 C66           -5.8497    13.1333     3.4267 C.3     
  67 N67           -6.0625    14.5867     3.4144 N.3     
  68 O68           -3.6268     9.8249     0.7331 O.2     
  69 C69           -1.0192    13.2692    -0.6369 C.3     
  70 C70           -1.3777    14.6033     0.0210 C.3     
  71 N71           -1.3882    14.4424     1.4771 N.pl3   
  72 C72           -1.6860    15.5143     2.2849 C.2     
  73 N73           -1.6958    15.3634     3.6514 N.pl3   
  74 N74           -1.9589    16.6736     1.7553 N.2     
  75 Cl75          -8.5398     5.9950    -0.2850 Cl      
  76 Cl76          -8.3812     7.6198    -2.9456 Cl      
  77 H77           -1.5217     5.3508     9.5783 H       
  78 H78           -2.3471     3.8780     9.0146 H       
  79 H79           -0.6618     4.1924     8.5358 H       
  80 H80           -0.2721     5.8379     6.8349 H       
  81 H81           -0.8385     7.0052     4.9105 H       
  82 H82           -3.3326     5.2733     5.2080 H       
  83 H83           -2.9514     6.2579     3.7751 H       
  84 H84           -0.8301     5.0082     3.4806 H       
  85 H85           -1.2113     4.0235     4.9136 H       
  86 H86           -3.2732     3.2073     3.8042 H       
  87 H87           -2.8920     4.1920     2.3712 H       
  88 H88           -0.6726     2.5371     2.9300 H       
  89 H89           -4.0454     2.3328     1.8923 H       
  90 H90           -3.8551     0.9338     0.9816 H       
  91 H91           -1.7611    -0.0566     0.8581 H       
  92 H92           -2.3580     8.8239     4.1699 H       
  93 H93           -4.1553     9.7070     6.3523 H       
  94 H94           -2.2761    11.5893     4.8736 H       
  95 H95           -3.2527    11.9303     6.3220 H       
  96 H96           -1.1848    11.5337     7.3105 H       
  97 H97           -1.8552     9.8849     7.3201 H       
  98 H98            1.0792    11.2353     6.8729 H       
  99 H99            2.8947    10.0793     5.7772 H       
 100 H100           1.6796     9.1477     4.8640 H       
 101 H101           1.1214    11.4549     3.7431 H       
 102 H102           2.7226    11.9451     4.3466 H       
 103 H103           3.3240     9.5086     3.2566 H       
 104 H104           2.0037    10.0282     2.1820 H       
 105 H105           3.4265    12.3504     2.3479 H       
 106 H106           4.2048    10.3356     0.3093 H       
 107 H107           4.8927    12.1843     4.3530 H       
 108 H108           6.4194    11.5087     4.1646 H       
 109 H109           2.6745    10.5253    -1.7098 H       
 110 H110           1.4893    13.2402    -2.1288 H       
 111 H111           4.0009    13.2487    -2.0938 H       
 112 H112           4.8829    11.7376    -1.7665 H       
 113 H113          -0.7365    12.1969    -3.9012 H       
 114 H114          -1.8787    10.2243    -2.6382 H       
 115 H115          -0.1991    14.1095    -2.4431 H       
 116 H116          -1.9604    13.8556    -2.4838 H       
 117 H117          -4.9577    10.9654    -2.3887 H       
 118 H118           4.5821    10.1246    -6.2499 H       
 119 H119           5.1263    10.0279    -3.7635 H       
 120 H120           2.2775    14.2652    -3.8207 H       
 121 H121           1.3372    15.0778    -5.9250 H       
 122 H122           1.7481    13.8656    -8.0241 H       
 123 H123           3.1095    11.8241    -8.0397 H       
 124 H124          -5.4205    12.1571    -0.3049 H       
 125 H125          -3.2682     9.1158    -2.3187 H       
 126 H126          -3.0648     9.4005    -0.5735 H       
 127 H127          -5.9330     9.0769    -2.9686 H       
 128 H128          -6.1833     6.5127     1.2304 H       
 129 H129          -4.2233     7.9279     0.7658 H       
 130 H130          -3.0414    10.9532     3.0648 H       
 131 H131          -5.9107    10.6840     2.3178 H       
 132 H132          -4.2262    13.2109     2.0128 H       
 133 H133          -5.8298    12.9698     1.2787 H       
 134 H134          -6.8090    12.6264     3.5308 H       
 135 H135          -5.2055    12.8674     4.2648 H       
 136 H136          -6.6036    14.8661     2.6099 H       
 137 H137          -6.5003    14.8953     4.2695 H       
 138 H138          -1.7580    12.5173    -0.3597 H       
 139 H139          -0.0328    12.9511    -0.2994 H       
 140 H140          -0.6388    15.3552    -0.2562 H       
 141 H141          -2.3641    14.9214    -0.3166 H       
 142 H142          -1.1850    13.5797     1.8712 H       
 143 H143          -1.4927    14.5007     4.0456 H       
 144 H144          -1.9059    16.1196     4.2214 H       
 145 H145          -2.1690    17.4298     2.3253 H       
@<TRIPOS>BOND
   1    1    2 1
   2    1    3 am
   3    1    4 2
   4    2   77 1
   5    2   78 1
   6    2   79 1
   7    3    5 1
   8    3   80 1
   9    5    6 1
  10    5    7 1
  11    5   81 1
  12    6    8 1
  13    6   82 1
  14    6   83 1
  15    7   14 2
  16    7   15 am
  17    8    9 1
  18    8   84 1
  19    8   85 1
  20    9   10 1
  21    9   86 1
  22    9   87 1
  23   10   11 1
  24   10   88 1
  25   11   12 1
  26   11   13 2
  27   12   89 1
  28   12   90 1
  29   13   91 1
  30   15   16 1
  31   15   92 1
  32   16   17 1
  33   16   60 1
  34   16   93 1
  35   17   18 1
  36   17   94 1
  37   17   95 1
  38   18   19 1
  39   18   96 1
  40   18   97 1
  41   19   20 2
  42   19   21 am
  43   21   22 1
  44   21   98 1
  45   22   23 1
  46   22   99 1
  47   22  100 1
  48   23   24 1
  49   23  101 1
  50   23  102 1
  51   24   25 1
  52   24  103 1
  53   24  104 1
  54   25   26 1
  55   25   27 1
  56   25  105 1
  57   26   30 am
  58   26  106 1
  59   27   28 am
  60   27   29 2
  61   28  107 1
  62   28  108 1
  63   30   31 2
  64   30   32 1
  65   32   33 1
  66   32   34 1
  67   32  109 1
  68   33   35 am
  69   33  110 1
  70   34   43 1
  71   34  111 1
  72   34  112 1
  73   35   36 2
  74   35   37 1
  75   37   38 1
  76   37   39 1
  77   37  113 1
  78   38   40 am
  79   38  114 1
  80   39   69 1
  81   39  115 1
  82   39  116 1
  83   40   41 2
  84   40   42 1
  85   42   52 1
  86   42   53 1
  87   42  117 1
  88   43   44 1
  89   43   47 2
  90   44   45 ar
  91   44   48 ar
  92   45   46 1
  93   45   51 ar
  94   46   47 1
  95   46  118 1
  96   47  119 1
  97   48   49 ar
  98   48  120 1
  99   49   50 ar
 100   49  121 1
 101   50   51 ar
 102   50  122 1
 103   51  123 1
 104   52   65 am
 105   52  124 1
 106   53   54 1
 107   53  125 1
 108   53  126 1
 109   54   55 ar
 110   54   59 ar
 111   55   56 ar
 112   55  127 1
 113   56   57 ar
 114   56   76 1
 115   57   58 ar
 116   57   75 1
 117   58   59 ar
 118   58  128 1
 119   59  129 1
 120   60   61 am
 121   60   62 2
 122   61   63 1
 123   61  130 1
 124   63   64 1
 125   63   65 1
 126   63  131 1
 127   64   66 1
 128   64  132 1
 129   64  133 1
 130   65   68 2
 131   66   67 1
 132   66  134 1
 133   66  135 1
 134   67  136 1
 135   67  137 1
 136   69   70 1
 137   69  138 1
 138   69  139 1
 139   70   71 1
 140   70  140 1
 141   70  141 1
 142   71   72 1
 143   71  142 1
 144   72   73 1
 145   72   74 2
 146   73  143 1
 147   73  144 1
 148   74  145 1

#	End of record

