#	Name: ASD01812369
#	Creating user name:	WinNT
#	Creation time:	15. 06. 2019 19:28

#	Modifying user name:	WinNT
#	Modification time:	15. 06. 2019 19:28

#	Program:	/corina/corina34_cracker 3.40 0067  02.08.2006

@<TRIPOS>MOLECULE
ASD01812369
  40   43    0    0    0
SMALL
NO_CHARGES


@<TRIPOS>ATOM
   1 C1            -0.1235     1.4303    -0.1135 C.ar    
   2 C2            -0.0657     0.0262    -0.1204 C.ar    
   3 N3            -1.2192    -0.7179     0.0122 N.pl3   
   4 C4            -2.4292    -0.1615     0.1514 C.2     
   5 C5            -2.6113     1.2066     0.1727 C.2     
   6 C6            -1.4367     2.0828     0.0325 C.2     
   7 C7             1.0461     2.1825    -0.2488 C.ar    
   8 C8             2.2586     1.5376    -0.3893 C.ar    
   9 C9             2.3170     0.1524    -0.3967 C.ar    
  10 C10            1.1697    -0.6027    -0.2630 C.ar    
  11 O11           -1.5448     3.2966     0.0454 O.2     
  12 C12           -3.9560     1.7788     0.3275 C.2     
  13 O13           -4.1211     3.1166     0.3467 O.3     
  14 O14           -4.9195     1.0458     0.4381 O.2     
  15 C15           -1.1165    -2.1792    -0.0004 C.3     
  16 C16           -0.9586    -2.6839     1.4108 C.ar    
  17 C17           -2.0739    -2.8682     2.2065 C.ar    
  18 C18            0.3005    -2.9669     1.9054 C.ar    
  19 C19            0.4493    -3.4314     3.1989 C.ar    
  20 C20           -0.6649    -3.6153     4.0035 C.ar    
  21 C21           -1.9315    -3.3324     3.5053 C.ar    
  22 F22            1.2440    -1.9517    -0.2718 F       
  23 F23            0.9908     3.5323    -0.2427 F       
  24 O24           -0.5036    -4.0809     5.2722 O.3     
  25 C25           -1.6040    -3.8978     6.1697 C.3     
  26 C26           -2.8904    -4.3161     5.4450 C.3     
  27 O27           -3.0379    -3.4986     4.2805 O.3     
  28 H28           -3.2912    -0.8045     0.2501 H       
  29 H29            3.1655     2.1146    -0.4943 H       
  30 H30            3.2712    -0.3412    -0.5076 H       
  31 H31           -5.0243     3.4460     0.4507 H       
  32 H32           -2.0199    -2.6032    -0.4389 H       
  33 H33           -0.2510    -2.4775    -0.5919 H       
  34 H34           -3.0570    -2.6501     1.8163 H       
  35 H35            1.1696    -2.8254     1.2801 H       
  36 H36            1.4344    -3.6516     3.5830 H       
  37 H37           -1.4629    -4.5174     7.0553 H       
  38 H38           -1.6704    -2.8495     6.4607 H       
  39 H39           -2.8217    -5.3629     5.1489 H       
  40 H40           -3.7464    -4.1757     6.1051 H       
@<TRIPOS>BOND
   1    1    2 ar
   2    1    7 ar
   3    1    6 1
   4    2    3 1
   5    2   10 ar
   6    3    4 1
   7    3   15 1
   8    4    5 2
   9    4   28 1
  10    5    6 1
  11    5   12 1
  12    6   11 2
  13    7    8 ar
  14    7   23 1
  15    8    9 ar
  16    8   29 1
  17    9   10 ar
  18    9   30 1
  19   10   22 1
  20   12   13 1
  21   12   14 2
  22   13   31 1
  23   15   16 1
  24   15   32 1
  25   15   33 1
  26   16   17 ar
  27   16   18 ar
  28   17   21 ar
  29   17   34 1
  30   18   19 ar
  31   18   35 1
  32   19   20 ar
  33   19   36 1
  34   20   21 ar
  35   20   24 1
  36   21   27 1
  37   24   25 1
  38   25   26 1
  39   25   37 1
  40   25   38 1
  41   26   27 1
  42   26   39 1
  43   26   40 1

#	End of record

