#	Name: ASD00602011
#	Creating user name:	WinNT
#	Creation time:	15. 06. 2019 18:36

#	Modifying user name:	WinNT
#	Modification time:	15. 06. 2019 18:36

#	Program:	/corina/corina34_cracker 3.40 0067  02.08.2006

@<TRIPOS>MOLECULE
ASD00602011
  83   88    0    0    0
SMALL
NO_CHARGES


@<TRIPOS>ATOM
   1 C1            -2.5615    -2.9658    -1.0572 C.3     
   2 N2            -1.8404    -4.2322    -0.8605 N.am    
   3 C3            -0.5250    -3.9854    -0.8042 C.2     
   4 N4            -0.2093    -2.6905    -0.9369 N.am    
   5 C5            -1.4423    -1.9078    -1.1096 C.3     
   6 C6            -2.4618    -5.5538    -0.7446 C.3     
   7 C7            -1.9462    -6.4598    -1.8645 C.3     
   8 C8            -2.5953    -7.8400    -1.7434 C.3     
   9 C9            -2.2406    -8.4532    -0.3872 C.3     
  10 C10           -2.7562    -7.5472     0.7326 C.3     
  11 C11           -2.1071    -6.1669     0.6116 C.3     
  12 O12            0.3070    -4.8579    -0.6466 O.2     
  13 C13            1.1486    -2.1411    -0.9136 C.3     
  14 C14            1.8094    -2.4668     0.4287 C.3     
  15 C15            3.2476    -1.9438     0.4239 C.3     
  16 N16            3.9941    -2.5706    -0.6744 N.3     
  17 C17            3.4058    -2.2330    -1.9769 C.3     
  18 C18            1.9723    -2.7647    -2.0438 C.3     
  19 C19            5.4142    -2.1979    -0.6258 C.3     
  20 C20            6.1889    -3.0420    -1.6048 C.ar    
  21 C21            6.3578    -2.6088    -2.9070 C.ar    
  22 C22            7.0675    -3.3806    -3.8064 C.ar    
  23 C23            7.6110    -4.5916    -3.4020 C.ar    
  24 C24            7.4401    -5.0239    -2.0946 C.ar    
  25 C25            6.7343    -4.2456    -1.1977 C.ar    
  26 O26            8.3092    -5.3529    -4.2849 O.3     
  27 C27           -1.6000    -0.9148     0.0129 C.ar    
  28 C28           -2.0682     0.3587    -0.2516 C.ar    
  29 C29           -2.2129     1.2696     0.7781 C.ar    
  30 C30           -1.8899     0.9069     2.0723 C.ar    
  31 C31           -1.4226    -0.3669     2.3369 C.ar    
  32 C32           -1.2820    -1.2792     1.3079 C.ar    
  33 C33            8.5431    -4.8427    -5.5202 C.ar    
  34 C34            9.6799    -4.0757    -5.7496 C.ar    
  35 C35            9.9212    -3.5567    -7.0017 C.ar    
  36 C36            9.0214    -3.8017    -8.0431 C.ar    
  37 C37            7.8796    -4.5734    -7.8082 C.ar    
  38 C38            7.6484    -5.0932    -6.5545 C.ar    
  39 C39            9.2756    -3.2473    -9.3857 C.2     
  40 O40           10.2683    -2.5764    -9.5880 O.2     
  41 O41            8.4071    -3.4846   -10.3882 O.3     
  42 C42            8.7213    -2.9075   -11.6831 C.3     
  43 H43           -3.1160    -2.9830    -1.9955 H       
  44 H44           -3.2314    -2.7729    -0.2193 H       
  45 H45           -1.4410    -1.3997    -2.0739 H       
  46 H46           -3.5442    -5.4548    -0.8266 H       
  47 H47           -2.1989    -6.0230    -2.8306 H       
  48 H48           -0.8638    -6.5588    -1.7824 H       
  49 H49           -3.6776    -7.7410    -1.8254 H       
  50 H50           -2.2279    -8.4855    -2.5412 H       
  51 H51           -2.7029    -9.4365    -0.3010 H       
  52 H52           -1.1582    -8.5522    -0.3052 H       
  53 H53           -3.8385    -7.4481     0.6506 H       
  54 H54           -2.5035    -7.9840     1.6988 H       
  55 H55           -1.0247    -6.2660     0.6936 H       
  56 H56           -2.4745    -5.5215     1.4094 H       
  57 H57            1.1065    -1.0600    -1.0461 H       
  58 H58            1.2514    -1.9897     1.2343 H       
  59 H59            1.8153    -3.5464     0.5789 H       
  60 H60            3.2404    -0.8624     0.2874 H       
  61 H61            3.7256    -2.1867     1.3729 H       
  62 H62            3.3978    -1.1503    -2.1021 H       
  63 H63            3.9986    -2.6860    -2.7715 H       
  64 H64            1.9807    -3.8490    -1.9324 H       
  65 H65            1.5306    -2.5004    -3.0046 H       
  66 H66            5.5229    -1.1455    -0.8879 H       
  67 H67            5.7990    -2.3633     0.3805 H       
  68 H68            5.9342    -1.6664    -3.2213 H       
  69 H69            7.1988    -3.0420    -4.8234 H       
  70 H70            7.8618    -5.9662    -1.7775 H       
  71 H71            6.6010    -4.5817    -0.1801 H       
  72 H72           -2.3206     0.6421    -1.2627 H       
  73 H73           -2.5780     2.2648     0.5713 H       
  74 H74           -2.0022     1.6188     2.8766 H       
  75 H75           -1.1699    -0.6502     3.3480 H       
  76 H76           -0.9169    -2.2744     1.5146 H       
  77 H77           10.3743    -3.8866    -4.9444 H       
  78 H78           10.8042    -2.9607    -7.1790 H       
  79 H79            7.1820    -4.7650    -8.6101 H       
  80 H80            6.7666    -5.6895    -6.3722 H       
  81 H81            8.7760    -1.8225   -11.5936 H       
  82 H82            9.6805    -3.2923   -12.0293 H       
  83 H83            7.9432    -3.1743   -12.3982 H       
@<TRIPOS>BOND
   1    1    2 1
   2    1    5 1
   3    1   43 1
   4    1   44 1
   5    2    3 am
   6    2    6 1
   7    3    4 am
   8    3   12 2
   9    4    5 1
  10    4   13 1
  11    5   27 1
  12    5   45 1
  13    6    7 1
  14    6   11 1
  15    6   46 1
  16    7    8 1
  17    7   47 1
  18    7   48 1
  19    8    9 1
  20    8   49 1
  21    8   50 1
  22    9   10 1
  23    9   51 1
  24    9   52 1
  25   10   11 1
  26   10   53 1
  27   10   54 1
  28   11   55 1
  29   11   56 1
  30   13   14 1
  31   13   18 1
  32   13   57 1
  33   14   15 1
  34   14   58 1
  35   14   59 1
  36   15   16 1
  37   15   60 1
  38   15   61 1
  39   16   17 1
  40   16   19 1
  41   17   18 1
  42   17   62 1
  43   17   63 1
  44   18   64 1
  45   18   65 1
  46   19   20 1
  47   19   66 1
  48   19   67 1
  49   20   21 ar
  50   20   25 ar
  51   21   22 ar
  52   21   68 1
  53   22   23 ar
  54   22   69 1
  55   23   24 ar
  56   23   26 1
  57   24   25 ar
  58   24   70 1
  59   25   71 1
  60   26   33 1
  61   27   28 ar
  62   27   32 ar
  63   28   29 ar
  64   28   72 1
  65   29   30 ar
  66   29   73 1
  67   30   31 ar
  68   30   74 1
  69   31   32 ar
  70   31   75 1
  71   32   76 1
  72   33   34 ar
  73   33   38 ar
  74   34   35 ar
  75   34   77 1
  76   35   36 ar
  77   35   78 1
  78   36   37 ar
  79   36   39 1
  80   37   38 ar
  81   37   79 1
  82   38   80 1
  83   39   40 2
  84   39   41 1
  85   41   42 1
  86   42   81 1
  87   42   82 1
  88   42   83 1

#	End of record

