#	Name: ASD01911905
#	Creating user name:	WinNT
#	Creation time:	15. 06. 2019 19:58

#	Modifying user name:	WinNT
#	Modification time:	15. 06. 2019 19:58

#	Program:	/corina/corina34_cracker 3.40 0067  02.08.2006

@<TRIPOS>MOLECULE
ASD01911905
  35   37    0    0    0
SMALL
NO_CHARGES


@<TRIPOS>ATOM
   1 C1            -1.0489    -0.4838    -2.0512 C.ar    
   2 C2            -1.0618     0.0600    -0.7708 C.ar    
   3 C3            -1.0261     1.4448    -0.6424 C.ar    
   4 N4            -0.9815     2.1898    -1.7345 N.ar    
   5 C5            -0.9707     1.6367    -2.9307 C.ar    
   6 N6            -1.0035     0.3293    -3.0936 N.ar    
   7 O7            -1.1086    -0.7408     0.3263 O.3     
   8 C8            -1.1452    -2.0854     0.1335 C.ar    
   9 C9             0.0138    -2.7700    -0.2047 C.ar    
  10 C10           -0.0224    -4.1393    -0.4018 C.ar    
  11 C11           -1.2141    -4.8289    -0.2622 C.ar    
  12 C12           -2.3757    -4.1472     0.0761 C.ar    
  13 C13           -2.3391    -2.7745     0.2800 C.ar    
  14 N14           -3.5802    -4.8437     0.2164 N.am    
  15 C15           -3.5762    -6.1117     0.6730 C.2     
  16 C16           -4.8359    -6.8836     0.7222 C.ar    
  17 O17           -2.5366    -6.6208     1.0443 O.2     
  18 C18           -4.8351    -8.1970     1.1945 C.ar    
  19 C19           -6.0143    -8.9122     1.2385 C.ar    
  20 C20           -7.1959    -8.3307     0.8154 C.ar    
  21 C21           -7.2042    -7.0281     0.3457 C.ar    
  22 C22           -6.0324    -6.3000     0.3020 C.ar    
  23 Br23          -8.8252    -6.2429    -0.2302 Br      
  24 F24            1.1069    -4.8036    -0.7313 F       
  25 H25           -1.0712    -1.5544    -2.1920 H       
  26 H26           -1.0351     1.9048     0.3347 H       
  27 H27           -0.9342     2.2731    -3.8025 H       
  28 H28            0.9447    -2.2335    -0.3145 H       
  29 H29           -1.2408    -5.8975    -0.4167 H       
  30 H30           -3.2415    -2.2427     0.5431 H       
  31 H31           -4.4186    -4.4141    -0.0148 H       
  32 H32           -3.9133    -8.6527     1.5245 H       
  33 H33           -6.0146    -9.9285     1.6037 H       
  34 H34           -8.1159    -8.8952     0.8513 H       
  35 H35           -6.0397    -5.2840    -0.0642 H       
@<TRIPOS>BOND
   1    1    2 ar
   2    1    6 ar
   3    1   25 1
   4    2    3 ar
   5    2    7 1
   6    3    4 ar
   7    3   26 1
   8    4    5 ar
   9    5    6 ar
  10    5   27 1
  11    7    8 1
  12    8    9 ar
  13    8   13 ar
  14    9   10 ar
  15    9   28 1
  16   10   11 ar
  17   10   24 1
  18   11   12 ar
  19   11   29 1
  20   12   13 ar
  21   12   14 1
  22   13   30 1
  23   14   15 am
  24   14   31 1
  25   15   16 1
  26   15   17 2
  27   16   18 ar
  28   16   22 ar
  29   18   19 ar
  30   18   32 1
  31   19   20 ar
  32   19   33 1
  33   20   21 ar
  34   20   34 1
  35   21   22 ar
  36   21   23 1
  37   22   35 1

#	End of record

