#	Name: ASD04640024
#	Creating user name:	WinNT
#	Creation time:	15. 06. 2019 20:52

#	Modifying user name:	WinNT
#	Modification time:	15. 06. 2019 20:52

#	Program:	/corina/corina34_cracker 3.40 0067  02.08.2006

@<TRIPOS>MOLECULE
ASD04640024
  59   63    0    0    0
SMALL
NO_CHARGES


@<TRIPOS>ATOM
   1 C1             0.0233     1.3213     0.0505 C.ar    
   2 C2             0.0410    -0.0581     0.0263 C.ar    
   3 C3             1.2594    -0.7403    -0.0074 C.ar    
   4 C4             2.4554    -0.0221    -0.0164 C.ar    
   5 C5             2.4263     1.3640     0.0082 C.ar    
   6 C6             1.2084     2.0330     0.0417 C.ar    
   7 N7             3.6210     2.0881    -0.0003 N.3     
   8 C8             3.3608     3.5341     0.0294 C.3     
   9 C9             4.6910     4.2878     0.0994 C.3     
  10 N10            5.5167     3.9279    -1.0618 N.3     
  11 C11            5.7769     2.4819    -1.0914 C.3     
  12 C12            4.4467     1.7282    -1.1615 C.3     
  13 C13            6.7730     4.6893    -1.0706 C.3     
  14 C14            7.7080     4.1179    -2.1384 C.3     
  15 C15            9.0283     4.8502    -2.3863 C.3     
  16 C16            9.0257     3.5003    -1.6663 C.3     
  17 C17            9.5585     4.8846    -3.8211 C.3     
  18 N18           10.7577     5.7241    -3.8786 N.am    
  19 C19           11.4006     5.9016    -5.0498 C.2     
  20 C20           12.6113     6.7492    -5.1079 C.ar    
  21 O21           10.9854     5.3652    -6.0583 O.2     
  22 C22           13.3724     6.8591    -6.2995 C.ar    
  23 C23           13.0374     7.4685    -3.9992 C.ar    
  24 C24           14.1821     8.2573    -4.0896 C.ar    
  25 N25           14.8768     8.3439    -5.1965 N.ar    
  26 C26           14.5238     7.6845    -6.3031 C.ar    
  27 C27           15.2805     7.7949    -7.4842 C.ar    
  28 C28           14.8980     7.1121    -8.5973 C.ar    
  29 C29           13.7644     6.3018    -8.5892 C.ar    
  30 C30           13.0080     6.1701    -7.4636 C.ar    
  31 C31            1.2808    -2.1719    -0.0321 C.1     
  32 N32            1.2978    -3.3076    -0.0517 N.1     
  33 H33           -0.9199     1.8470     0.0720 H       
  34 H34           -0.8871    -0.6103     0.0338 H       
  35 H35            3.4006    -0.5439    -0.0421 H       
  36 H36            1.1879     3.1127     0.0604 H       
  37 H37            2.8247     3.8257    -0.8738 H       
  38 H38            2.7585     3.7773     0.9047 H       
  39 H39            4.5015     5.3612     0.0923 H       
  40 H40            5.2147     4.0167     1.0161 H       
  41 H41            6.3793     2.2387    -1.9667 H       
  42 H42            6.3130     2.1903    -0.1883 H       
  43 H43            4.6362     0.6548    -1.1543 H       
  44 H44            3.9230     1.9993    -2.0781 H       
  45 H45            6.5624     5.7352    -1.2940 H       
  46 H46            7.2495     4.6153    -0.0931 H       
  47 H47            7.2169     3.6610    -2.9976 H       
  48 H48            9.2306     5.7392    -1.7890 H       
  49 H49            9.2265     3.5009    -0.5949 H       
  50 H50            9.4018     2.6366    -2.2147 H       
  51 H51            9.8077     3.8727    -4.1407 H       
  52 H52            8.7948     5.2963    -4.4809 H       
  53 H53           11.0891     6.1522    -3.0737 H       
  54 H54           12.4846     7.4171    -3.0727 H       
  55 H55           14.5058     8.8135    -3.2223 H       
  56 H56           16.1614     8.4193    -7.5073 H       
  57 H57           15.4820     7.2000    -9.5015 H       
  58 H58           13.4822     5.7707    -9.4864 H       
  59 H59           12.1319     5.5386    -7.4690 H       
@<TRIPOS>BOND
   1    1    2 ar
   2    1    6 ar
   3    1   33 1
   4    2    3 ar
   5    2   34 1
   6    3    4 ar
   7    3   31 1
   8    4    5 ar
   9    4   35 1
  10    5    6 ar
  11    5    7 1
  12    6   36 1
  13    7    8 1
  14    7   12 1
  15    8    9 1
  16    8   37 1
  17    8   38 1
  18    9   10 1
  19    9   39 1
  20    9   40 1
  21   10   11 1
  22   10   13 1
  23   11   12 1
  24   11   41 1
  25   11   42 1
  26   12   43 1
  27   12   44 1
  28   13   14 1
  29   13   45 1
  30   13   46 1
  31   14   15 1
  32   14   16 1
  33   14   47 1
  34   15   17 1
  35   15   16 1
  36   15   48 1
  37   16   49 1
  38   16   50 1
  39   17   18 1
  40   17   51 1
  41   17   52 1
  42   18   19 am
  43   18   53 1
  44   19   20 1
  45   19   21 2
  46   20   23 ar
  47   20   22 ar
  48   22   26 ar
  49   22   30 ar
  50   23   24 ar
  51   23   54 1
  52   24   25 ar
  53   24   55 1
  54   25   26 ar
  55   26   27 ar
  56   27   28 ar
  57   27   56 1
  58   28   29 ar
  59   28   57 1
  60   29   30 ar
  61   29   58 1
  62   30   59 1
  63   31   32 3

#	End of record

