#	Name: ASD02570011
#	Creating user name:	WinNT
#	Creation time:	15. 06. 2019 20:25

#	Modifying user name:	WinNT
#	Modification time:	15. 06. 2019 20:25

#	Program:	/corina/corina34_cracker 3.40 0067  02.08.2006

@<TRIPOS>MOLECULE
ASD02570011
  50   50    0    0    0
SMALL
NO_CHARGES


@<TRIPOS>ATOM
   1 C1            -1.1067    -1.3618     0.7785 C.ar    
   2 C2            -0.2074    -0.8499    -0.1496 C.ar    
   3 C3            -0.5961     0.1668    -1.0147 C.ar    
   4 C4            -1.8752     0.6718    -0.9568 C.ar    
   5 C5            -2.7860     0.1594    -0.0238 C.ar    
   6 C6            -2.3903    -0.8679     0.8419 C.ar    
   7 C7            -2.2949     1.7740    -1.8948 C.3     
   8 C8            -4.1517     0.6943     0.0431 C.2     
   9 C9            -4.9575     0.6345    -1.0460 C.2     
  10 C10           -6.3057     1.0254    -0.9462 C.2     
  11 C11           -7.1161     0.9653    -2.0415 C.2     
  12 C12           -6.8541     1.5104     0.3711 C.3     
  13 C13           -8.4600     1.3549    -1.9419 C.2     
  14 C14           -9.2715     1.2947    -3.0389 C.2     
  15 C15          -10.6150     1.6841    -2.9393 C.2     
  16 C16          -11.4256     1.6240    -4.0350 C.2     
  17 C17          -11.1634     2.1691    -1.6221 C.3     
  18 C18           -3.3644    -1.4243     1.8482 C.3     
  19 C19           -0.6778    -2.4637     1.7128 C.3     
  20 O20            1.0557    -1.3442    -0.2112 O.3     
  21 C21            1.9289    -0.7734    -1.1878 C.3     
  22 C22          -12.7300     2.1539    -3.9763 C.2     
  23 O23          -13.0961     2.7622    -2.9871 O.2     
  24 O24          -13.5741     1.9870    -5.0173 O.3     
  25 H25            0.1070     0.5613    -1.7333 H       
  26 H26           -2.7886     1.3420    -2.7653 H       
  27 H27           -2.9841     2.4448    -1.3819 H       
  28 H28           -1.4156     2.3325    -2.2158 H       
  29 H29           -4.5146     1.1354     0.9597 H       
  30 H30           -4.5645     0.2870    -1.9901 H       
  31 H31           -6.7231     0.6177    -2.9855 H       
  32 H32           -6.7253     2.5904     0.4427 H       
  33 H33           -7.9143     1.2658     0.4354 H       
  34 H34           -6.3192     1.0257     1.1879 H       
  35 H35           -8.8530     1.7024    -0.9979 H       
  36 H36           -8.8786     0.9471    -3.9829 H       
  37 H37          -11.0676     1.1702    -4.9473 H       
  38 H38          -11.1219     3.2579    -1.5900 H       
  39 H39          -12.1976     1.8416    -1.5163 H       
  40 H40          -10.5672     1.7587    -0.8071 H       
  41 H41           -3.9099    -2.2569     1.4040 H       
  42 H42           -2.8204    -1.7733     2.7259 H       
  43 H43           -4.0674    -0.6451     2.1426 H       
  44 H44           -0.2663    -2.0283     2.6234 H       
  45 H45           -1.5389    -3.0833     1.9633 H       
  46 H46            0.0818    -3.0764     1.2274 H       
  47 H47            1.5078    -0.9210    -2.1822 H       
  48 H48            2.0410     0.2936    -0.9954 H       
  49 H49            2.9039    -1.2574    -1.1305 H       
  50 H50          -14.4454     2.3850    -4.8849 H       
@<TRIPOS>BOND
   1    1    2 ar
   2    1   19 1
   3    1    6 ar
   4    2    3 ar
   5    2   20 1
   6    3    4 ar
   7    3   25 1
   8    4    5 ar
   9    4    7 1
  10    5    6 ar
  11    5    8 1
  12    6   18 1
  13    7   26 1
  14    7   27 1
  15    7   28 1
  16    8    9 2
  17    8   29 1
  18    9   10 1
  19    9   30 1
  20   10   11 2
  21   10   12 1
  22   11   13 1
  23   11   31 1
  24   12   32 1
  25   12   33 1
  26   12   34 1
  27   13   14 2
  28   13   35 1
  29   14   15 1
  30   14   36 1
  31   15   16 2
  32   15   17 1
  33   16   22 1
  34   16   37 1
  35   17   38 1
  36   17   39 1
  37   17   40 1
  38   18   41 1
  39   18   42 1
  40   18   43 1
  41   19   44 1
  42   19   45 1
  43   19   46 1
  44   20   21 1
  45   21   47 1
  46   21   48 1
  47   21   49 1
  48   22   23 2
  49   22   24 1
  50   24   50 1

#	End of record

