#	Name: ASD04590334
#	Creating user name:	WinNT
#	Creation time:	15. 06. 2019 20:50

#	Modifying user name:	WinNT
#	Modification time:	15. 06. 2019 20:50

#	Program:	/corina/corina34_cracker 3.40 0067  02.08.2006

@<TRIPOS>MOLECULE
ASD04590334
  44   47    0    0    0
SMALL
NO_CHARGES


@<TRIPOS>ATOM
   1 C1            -0.0167     1.3834     0.0096 C.ar    
   2 C2             0.0021    -0.0041     0.0020 C.ar    
   3 C3             1.1863    -0.6848    -0.0129 C.ar    
   4 C4             2.3948     0.0191    -0.0207 C.ar    
   5 C5             2.3756     1.4250    -0.0129 C.ar    
   6 C6             1.1624     2.0987     0.0022 C.ar    
   7 N7             3.6952    -0.3636    -0.0355 N.2     
   8 C8             4.4664     0.6967    -0.0375 C.2     
   9 N9             3.6970     1.8290    -0.0238 N.pl3   
  10 C10            5.9438     0.6731    -0.0517 C.2     
  11 C11            6.7565    -0.4839    -0.0659 C.2     
  12 C12            8.0503    -0.0800    -0.0760 C.2     
  13 N13            8.0626     1.2788    -0.0686 N.pl3   
  14 N14            6.7358     1.7272    -0.0591 N.2     
  15 N15            6.3041    -1.8139    -0.0690 N.am    
  16 C16            7.1920    -2.8277    -0.0832 C.2     
  17 C17            6.7066    -4.2544    -0.0865 C.3     
  18 O18            8.3818    -2.5918    -0.0932 O.2     
  19 C19            5.4385    -5.9817     1.1950 C.3     
  20 N20            6.6234    -6.8489     1.1786 N.3     
  21 C21            7.4104    -6.6496    -0.0451 C.3     
  22 C22            7.9080    -5.2036    -0.1033 C.3     
  23 C23            5.8773    -4.5157     1.1738 C.3     
  24 C24            6.2456    -8.2595     1.3376 C.3     
  25 H25           -0.9614     1.9069     0.0169 H       
  26 H26           -0.9290    -0.5513     0.0083 H       
  27 H27            1.1893    -1.7648    -0.0184 H       
  28 H28            1.1417     3.1785     0.0082 H       
  29 H29            4.0192     2.7439    -0.0227 H       
  30 H30            8.9173    -0.7238    -0.0874 H       
  31 H31            8.8532     1.8407    -0.0725 H       
  32 H32            5.3526    -2.0025    -0.0610 H       
  33 H33            6.0927    -4.4282    -0.9702 H       
  34 H34            4.8241    -6.1896     0.3189 H       
  35 H35            4.8598    -6.1745     2.0983 H       
  36 H36            8.2639    -7.3276    -0.0425 H       
  37 H37            6.7868    -6.8544    -0.9153 H       
  38 H38            8.4790    -5.0518    -1.0193 H       
  39 H39            8.5430    -5.0022     0.7595 H       
  40 H40            6.4803    -4.3035     2.0567 H       
  41 H41            4.9973    -3.8725     1.1702 H       
  42 H42            5.5861    -8.5533     0.5210 H       
  43 H43            7.1419    -8.8797     1.3220 H       
  44 H44            5.7285    -8.3923     2.2879 H       
@<TRIPOS>BOND
   1    1    2 ar
   2    1    6 ar
   3    1   25 1
   4    2    3 ar
   5    2   26 1
   6    3    4 ar
   7    3   27 1
   8    4    5 ar
   9    4    7 1
  10    5    6 ar
  11    5    9 1
  12    6   28 1
  13    7    8 2
  14    8    9 1
  15    8   10 1
  16    9   29 1
  17   10   11 1
  18   10   14 2
  19   11   12 2
  20   11   15 1
  21   12   13 1
  22   12   30 1
  23   13   14 1
  24   13   31 1
  25   15   16 am
  26   15   32 1
  27   16   17 1
  28   16   18 2
  29   17   22 1
  30   17   23 1
  31   17   33 1
  32   19   20 1
  33   19   23 1
  34   19   34 1
  35   19   35 1
  36   20   21 1
  37   20   24 1
  38   21   22 1
  39   21   36 1
  40   21   37 1
  41   22   38 1
  42   22   39 1
  43   23   40 1
  44   23   41 1
  45   24   42 1
  46   24   43 1
  47   24   44 1

#	End of record

