#	Name: ASD01208125
#	Creating user name:	WinNT
#	Creation time:	15. 06. 2019 19:09

#	Modifying user name:	WinNT
#	Modification time:	15. 06. 2019 19:09

#	Program:	/corina/corina34_cracker 3.40 0067  02.08.2006

@<TRIPOS>MOLECULE
ASD01208125
  63   66    0    0    0
SMALL
NO_CHARGES


@<TRIPOS>ATOM
   1 C1            -0.0839     1.4352     0.0241 C.ar    
   2 C2             0.0195     0.0524    -0.0166 C.ar    
   3 C3            -1.1232    -0.7344     0.0259 C.ar    
   4 C4            -2.3720    -0.1412     0.1088 C.ar    
   5 C5            -2.4802     1.2495     0.1500 C.ar    
   6 C6            -1.3287     2.0364     0.1128 C.ar    
   7 C7            -3.8110     1.8870     0.2380 C.2     
   8 C8            -4.0548     3.2410     0.2851 C.2     
   9 N9            -5.0102     1.2335     0.2806 N.pl3   
  10 C10           -6.0156     2.1680     0.3601 C.2     
  11 C11           -5.4370     3.4186     0.3639 C.2     
  12 O12            1.0381     2.2009    -0.0174 O.3     
  13 C13            0.8552     3.6159    -0.0971 C.3     
  14 C14            2.0879     4.2541    -0.7407 C.3     
  15 O15            3.2205     4.0666     0.1103 O.3     
  16 C16            0.6621     4.1853     1.3098 C.3     
  17 O17           -1.0165    -2.0885    -0.0143 O.3     
  18 C18           -1.4856    -2.7321    -1.1130 C.ar    
  19 C19           -1.5168    -4.1242    -1.1544 C.ar    
  20 C20           -1.9465    -2.0089    -2.2097 C.ar    
  21 C21           -2.4159    -2.7060    -3.3087 C.ar    
  22 C22           -2.4115    -4.1001    -3.2809 C.ar    
  23 N23           -1.9690    -4.7556    -2.2136 N.ar    
  24 C24           -7.4561     1.8829     0.4260 C.2     
  25 N25           -8.3629     2.8130     0.4998 N.2     
  26 C26           -9.6900     2.1681     0.5329 C.3     
  27 C27           -9.3606     0.7268     0.0740 C.3     
  28 O28           -7.9627     0.6311     0.4097 O.3     
  29 C29           -2.9113    -4.8570    -4.4495 C.2     
  30 N30           -2.9102    -6.2046    -4.4301 N.am    
  31 C31          -10.1870    -0.2994     0.8516 C.3     
  32 O32           -9.9442    -1.6050     0.3239 O.3     
  33 C33            4.4309     4.6284    -0.4009 C.3     
  34 O34           -3.3229    -4.2635    -5.4271 O.2     
  35 C35           -3.4051    -6.9542    -5.5874 C.3     
  36 H36            0.9917    -0.4132    -0.0820 H       
  37 H37           -3.2607    -0.7540     0.1411 H       
  38 H38           -1.4081     3.1130     0.1444 H       
  39 H39           -3.3113     4.0240     0.2653 H       
  40 H40           -5.1318     0.2714     0.2584 H       
  41 H41           -5.9576     4.3633     0.4182 H       
  42 H42           -0.0249     3.8351    -0.7017 H       
  43 H43            2.2774     3.7853    -1.7063 H       
  44 H44            1.9127     5.3205    -0.8827 H       
  45 H45            0.5225     5.2646     1.2491 H       
  46 H46           -0.2161     3.7306     1.7684 H       
  47 H47            1.5421     3.9661     1.9145 H       
  48 H48           -1.1645    -4.6911    -0.3054 H       
  49 H49           -1.9382    -0.9290    -2.2025 H       
  50 H50           -2.7814    -2.1773    -4.1766 H       
  51 H51          -10.0989     2.1709     1.5433 H       
  52 H52          -10.3749     2.6514    -0.1639 H       
  53 H53           -9.5102     0.6144    -0.9999 H       
  54 H54           -2.5817    -6.6782    -3.6499 H       
  55 H55           -9.9018    -0.2738     1.9033 H       
  56 H56          -11.2462    -0.0603     0.7565 H       
  57 H57          -10.4365    -2.3075     0.7702 H       
  58 H58            5.2426     4.4438     0.3027 H       
  59 H59            4.6690     4.1674    -1.3594 H       
  60 H60            4.3043     5.7026    -0.5358 H       
  61 H61           -3.3264    -8.0230    -5.3887 H       
  62 H62           -4.4479    -6.6943    -5.7697 H       
  63 H63           -2.8093    -6.7029    -6.4649 H       
@<TRIPOS>BOND
   1    1    2 ar
   2    1   12 1
   3    1    6 ar
   4    2    3 ar
   5    2   36 1
   6    3    4 ar
   7    3   17 1
   8    4    5 ar
   9    4   37 1
  10    5    6 ar
  11    5    7 1
  12    6   38 1
  13    7    8 2
  14    7    9 1
  15    8   11 1
  16    8   39 1
  17    9   10 1
  18    9   40 1
  19   10   11 2
  20   10   24 1
  21   11   41 1
  22   12   13 1
  23   13   14 1
  24   13   16 1
  25   13   42 1
  26   14   15 1
  27   14   43 1
  28   14   44 1
  29   15   33 1
  30   16   45 1
  31   16   46 1
  32   16   47 1
  33   17   18 1
  34   18   19 ar
  35   18   20 ar
  36   19   23 ar
  37   19   48 1
  38   20   21 ar
  39   20   49 1
  40   21   22 ar
  41   21   50 1
  42   22   23 ar
  43   22   29 1
  44   24   25 2
  45   24   28 1
  46   25   26 1
  47   26   27 1
  48   26   51 1
  49   26   52 1
  50   27   28 1
  51   27   31 1
  52   27   53 1
  53   29   30 am
  54   29   34 2
  55   30   35 1
  56   30   54 1
  57   31   32 1
  58   31   55 1
  59   31   56 1
  60   32   57 1
  61   33   58 1
  62   33   59 1
  63   33   60 1
  64   35   61 1
  65   35   62 1
  66   35   63 1

#	End of record

