#	Name: ASD01883431
#	Creating user name:	WinNT
#	Creation time:	15. 06. 2019 19:46

#	Modifying user name:	WinNT
#	Modification time:	15. 06. 2019 19:46

#	Program:	/corina/corina34_cracker 3.40 0067  02.08.2006

@<TRIPOS>MOLECULE
ASD01883431
  53   55    0    0    0
SMALL
NO_CHARGES


@<TRIPOS>ATOM
   1 N1            -0.0080     1.3271     0.0354 N.am    
   2 C2            -0.3623     0.6471    -1.0708 C.2     
   3 C3            -1.5938    -0.0487    -1.1070 C.2     
   4 C4            -2.4239    -0.0108     0.0261 C.2     
   5 C5            -1.9981     0.7175     1.1524 C.2     
   6 C6            -0.8092     1.3586     1.1319 C.2     
   7 O7             0.3768     0.6309    -2.0406 O.2     
   8 C8            -1.9868    -0.7769    -2.2757 C.1     
   9 N9            -2.2985    -1.3546    -3.2029 N.1     
  10 N10           -3.6309    -0.6732     0.0341 N.pl3   
  11 C11           -4.8919     0.0702     0.1608 C.3     
  12 C12           -5.6944    -0.5155     1.3268 C.3     
  13 C13           -5.8708    -2.0207     1.1144 C.3     
  14 C14           -4.4985    -2.6976     1.0843 C.3     
  15 C15           -3.6827    -2.1362    -0.0901 C.3     
  16 C16            1.2701     2.0427     0.0594 C.3     
  17 C17            1.0645     3.4711    -0.4488 C.3     
  18 C18            2.3993     4.2185    -0.4237 C.3     
  19 C19            2.1937     5.6469    -0.9319 C.3     
  20 O20           -6.6467    -2.5648     2.1840 O.3     
  21 C21           -7.4298    -3.7015     1.8142 C.3     
  22 C22           -8.2028    -4.1900     3.0120 C.ar    
  23 C23           -9.4668    -3.6986     3.2769 C.ar    
  24 N24          -10.1494    -4.1213     4.3232 N.ar    
  25 C25           -9.6601    -5.0221     5.1525 C.ar    
  26 C26           -8.4025    -5.5592     4.9512 C.ar    
  27 C27           -7.6570    -5.1427     3.8591 C.ar    
  28 H28           -2.6200     0.7608     2.0343 H       
  29 H29           -0.4930     1.9144     2.0022 H       
  30 H30           -4.6785     1.1212     0.3555 H       
  31 H31           -5.4656    -0.0236    -0.7613 H       
  32 H32           -5.1602    -0.3399     2.2606 H       
  33 H33           -6.6729    -0.0373     1.3715 H       
  34 H34           -6.3831    -2.1964     0.1685 H       
  35 H35           -3.9756    -2.5016     2.0204 H       
  36 H36           -4.6258    -3.7726     0.9564 H       
  37 H37           -4.1593    -2.4118    -1.0309 H       
  38 H38           -2.6709    -2.5405    -0.0585 H       
  39 H39            1.6512     2.0716     1.0802 H       
  40 H40            1.9865     1.5287    -0.5814 H       
  41 H41            0.6835     3.4422    -1.4696 H       
  42 H42            0.3482     3.9852     0.1920 H       
  43 H43            2.7804     4.2474     0.5972 H       
  44 H44            3.1157     3.7044    -1.0645 H       
  45 H45            1.4774     6.1610    -0.2911 H       
  46 H46            3.1447     6.1793    -0.9140 H       
  47 H47            1.8127     5.6180    -1.9527 H       
  48 H48           -8.1248    -3.4219     1.0226 H       
  49 H49           -6.7728    -4.4948     1.4575 H       
  50 H50           -9.9006    -2.9595     2.6197 H       
  51 H51          -10.2486    -5.3437     5.9990 H       
  52 H52           -8.0070    -6.2964     5.6342 H       
  53 H53           -6.6715    -5.5450     3.6767 H       
@<TRIPOS>BOND
   1    1    2 am
   2    1   16 1
   3    1    6 1
   4    2    3 1
   5    2    7 2
   6    3    4 2
   7    3    8 1
   8    4    5 1
   9    4   10 1
  10    5    6 2
  11    5   28 1
  12    6   29 1
  13    8    9 3
  14   10   11 1
  15   10   15 1
  16   11   12 1
  17   11   30 1
  18   11   31 1
  19   12   13 1
  20   12   32 1
  21   12   33 1
  22   13   14 1
  23   13   20 1
  24   13   34 1
  25   14   15 1
  26   14   35 1
  27   14   36 1
  28   15   37 1
  29   15   38 1
  30   16   17 1
  31   16   39 1
  32   16   40 1
  33   17   18 1
  34   17   41 1
  35   17   42 1
  36   18   19 1
  37   18   43 1
  38   18   44 1
  39   19   45 1
  40   19   46 1
  41   19   47 1
  42   20   21 1
  43   21   22 1
  44   21   48 1
  45   21   49 1
  46   22   23 ar
  47   22   27 ar
  48   23   24 ar
  49   23   50 1
  50   24   25 ar
  51   25   26 ar
  52   25   51 1
  53   26   27 ar
  54   26   52 1
  55   27   53 1

#	End of record

