#	Name: ASD08150091
#	Creating user name:	WinNT
#	Creation time:	15. 06. 2019 21:15

#	Modifying user name:	WinNT
#	Modification time:	15. 06. 2019 21:15

#	Program:	/corina/corina34_cracker 3.40 0067  02.08.2006

@<TRIPOS>MOLECULE
ASD08150091
  42   46    0    0    0
SMALL
NO_CHARGES


@<TRIPOS>ATOM
   1 N1             0.0766     1.3323    -0.4187 N.2     
   2 C2             0.0832     0.0364    -0.5002 C.2     
   3 N3             1.1431    -0.7306    -0.1268 N.am    
   4 C4             2.2692    -0.1591     0.3599 C.2     
   5 C5             2.2935     1.3071     0.4642 C.ar    
   6 C6             3.4042     1.9927     0.9526 C.ar    
   7 C7             3.3732     3.3677     1.0294 C.ar    
   8 C8             2.2468     4.0726     0.6254 C.ar    
   9 C9             1.1391     3.4144     0.1405 C.ar    
  10 C10            1.1461     2.0208     0.0525 C.ar    
  11 O11            3.2248    -0.8330     0.6985 O.2     
  12 C12           -1.1455    -0.6529    -1.0349 C.3     
  13 S13           -2.3951     0.5854    -1.4603 S.3     
  14 N14           -5.4020     1.3218    -2.6209 N.2     
  15 C15           -6.6074     1.2591    -3.1079 C.2     
  16 N16           -6.9544    -0.0411    -3.3259 N.pl3   
  17 C17           -5.8905    -0.8198    -2.9465 C.ar    
  18 N18           -5.6430    -2.1256    -2.9268 N.ar    
  19 C19           -4.4877    -2.5834    -2.4918 C.ar    
  20 N20           -3.5274    -1.7875    -2.0592 N.ar    
  21 C21           -3.6835    -0.4669    -2.0411 C.ar    
  22 C22           -4.9007     0.0697    -2.4958 C.ar    
  23 C23            1.0679    -2.1241    -0.2468 C.ar    
  24 C24            0.5827    -2.8879     0.8065 C.ar    
  25 C25            0.5094    -4.2617     0.6849 C.ar    
  26 C26            0.9185    -4.8767    -0.4841 C.ar    
  27 C27            1.4026    -4.1188    -1.5346 C.ar    
  28 C28            1.4731    -2.7441    -1.4214 C.ar    
  29 H29            4.2827     1.4498     1.2689 H       
  30 H30            4.2322     3.9023     1.4074 H       
  31 H31            2.2396     5.1505     0.6927 H       
  32 H32            0.2687     3.9733    -0.1700 H       
  33 H33           -0.8830    -1.2247    -1.9250 H       
  34 H34           -1.5443    -1.3255    -0.2755 H       
  35 H35           -7.2393     2.1114    -3.3097 H       
  36 H36           -7.7987    -0.3576    -3.6835 H       
  37 H37           -4.3193    -3.6502    -2.4888 H       
  38 H38            0.2633    -2.4082     1.7199 H       
  39 H39            0.1324    -4.8564     1.5039 H       
  40 H40            0.8602    -5.9511    -0.5767 H       
  41 H41            1.7220    -4.6021    -2.4461 H       
  42 H42            1.8470    -2.1524    -2.2438 H       
@<TRIPOS>BOND
   1    1    2 2
   2    1   10 1
   3    2    3 1
   4    2   12 1
   5    3    4 am
   6    3   23 1
   7    4    5 1
   8    4   11 2
   9    5    6 ar
  10    5   10 ar
  11    6    7 ar
  12    6   29 1
  13    7    8 ar
  14    7   30 1
  15    8    9 ar
  16    8   31 1
  17    9   10 ar
  18    9   32 1
  19   12   13 1
  20   12   33 1
  21   12   34 1
  22   13   21 1
  23   14   15 2
  24   14   22 1
  25   15   16 1
  26   15   35 1
  27   16   17 1
  28   16   36 1
  29   17   18 ar
  30   17   22 ar
  31   18   19 ar
  32   19   20 ar
  33   19   37 1
  34   20   21 ar
  35   21   22 ar
  36   23   24 ar
  37   23   28 ar
  38   24   25 ar
  39   24   38 1
  40   25   26 ar
  41   25   39 1
  42   26   27 ar
  43   26   40 1
  44   27   28 ar
  45   27   41 1
  46   28   42 1

#	End of record

