#	Name: ASD01900888
#	Creating user name:	WinNT
#	Creation time:	15. 06. 2019 19:52

#	Modifying user name:	WinNT
#	Modification time:	15. 06. 2019 19:52

#	Program:	/corina/corina34_cracker 3.40 0067  02.08.2006

@<TRIPOS>MOLECULE
ASD01900888
  44   47    0    0    0
SMALL
NO_CHARGES


@<TRIPOS>ATOM
   1 C1            -0.0167     1.3775     0.0096 C.ar    
   2 C2             0.0021    -0.0041     0.0020 C.ar    
   3 C3            -1.1855    -0.7122     0.0090 C.ar    
   4 C4            -2.3927    -0.0390     0.0237 C.ar    
   5 C5            -2.4139     1.3430     0.0318 C.ar    
   6 C6            -1.2254     2.0530     0.0305 C.ar    
   7 F7            -1.2449     3.4038     0.0389 F       
   8 C8             1.2779     2.1490     0.0014 C.3     
   9 S9             1.7810     2.4677    -1.7121 S.o2    
  10 C10            3.2902     3.3655    -1.5674 C.2     
  11 O11            2.1537     1.2570    -2.3557 O.2     
  12 O12            0.8874     3.3821    -2.3322 O.2     
  13 C13            4.5145     2.8370    -1.5133 C.2     
  14 N14            5.4891     3.7202    -1.4051 N.2     
  15 C15            5.1468     4.9701    -1.3651 C.2     
  16 S16            3.4472     5.1178    -1.4766 S.3     
  17 C17            4.7638     1.3519    -1.5711 C.3     
  18 N18            6.0322     6.0342    -1.2538 N.am    
  19 C19            5.5658     7.2983    -1.2212 C.2     
  20 O20            4.3705     7.5069    -1.2894 O.2     
  21 C21            6.5101     8.4332    -1.1025 C.ar    
  22 N22            7.8145     8.1990    -1.0284 N.ar    
  23 C23            8.6863     9.1781    -0.9227 C.ar    
  24 C24            8.2713    10.4995    -0.8844 C.ar    
  25 C25            6.9176    10.7892    -0.9589 C.ar    
  26 C26            6.0221     9.7380    -1.0752 C.ar    
  27 C27            5.6255     0.8244    -2.7202 C.3     
  28 C28            6.1878     0.8635    -1.2978 C.3     
  29 H29            0.9447    -0.5311    -0.0098 H       
  30 H30           -1.1699    -1.7920     0.0027 H       
  31 H31           -3.3197    -0.5931     0.0284 H       
  32 H32           -3.3572     1.8687     0.0428 H       
  33 H33            1.1393     3.0968     0.5217 H       
  34 H34            2.0504     1.5678     0.5048 H       
  35 H35            3.9415     0.7235    -1.2292 H       
  36 H36            6.9862     5.8677    -1.1994 H       
  37 H37            9.7401     8.9490    -0.8645 H       
  38 H38            8.9953    11.2961    -0.7970 H       
  39 H39            6.5691    11.8110    -0.9307 H       
  40 H40            4.9605     9.9271    -1.1356 H       
  41 H41            5.3702    -0.1512    -3.1339 H       
  42 H42            6.0120     1.5516    -3.4343 H       
  43 H43            6.9442     1.6163    -1.0761 H       
  44 H44            6.3025    -0.0865    -0.7757 H       
@<TRIPOS>BOND
   1    1    2 ar
   2    1    8 1
   3    1    6 ar
   4    2    3 ar
   5    2   29 1
   6    3    4 ar
   7    3   30 1
   8    4    5 ar
   9    4   31 1
  10    5    6 ar
  11    5   32 1
  12    6    7 1
  13    8    9 1
  14    8   33 1
  15    8   34 1
  16    9   10 1
  17    9   11 2
  18    9   12 2
  19   10   13 2
  20   10   16 1
  21   13   14 1
  22   13   17 1
  23   14   15 2
  24   15   16 1
  25   15   18 1
  26   17   27 1
  27   17   28 1
  28   17   35 1
  29   18   19 am
  30   18   36 1
  31   19   20 2
  32   19   21 1
  33   21   22 ar
  34   21   26 ar
  35   22   23 ar
  36   23   24 ar
  37   23   37 1
  38   24   25 ar
  39   24   38 1
  40   25   26 ar
  41   25   39 1
  42   26   40 1
  43   27   28 1
  44   27   41 1
  45   27   42 1
  46   28   43 1
  47   28   44 1

#	End of record

