#	Name: ASD02620006
#	Creating user name:	WinNT
#	Creation time:	15. 06. 2019 20:26

#	Modifying user name:	WinNT
#	Modification time:	15. 06. 2019 20:26

#	Program:	/corina/corina34_cracker 3.40 0067  02.08.2006

@<TRIPOS>MOLECULE
ASD02620006
  24   24    0    0    0
SMALL
NO_CHARGES


@<TRIPOS>ATOM
   1 C1            -0.0067     1.5233    -0.0025 C.2     
   2 C2             0.0344     0.0179    -0.0583 C.3     
   3 O3             1.0289     2.1591     0.0199 O.2     
   4 N4            -1.1775     2.1570     0.0167 N.2     
   5 C5             1.4684    -0.4452    -0.0770 C.ar    
   6 C6             2.1281    -0.7021     1.1114 C.ar    
   7 C7             3.4447    -1.1271     1.0936 C.ar    
   8 C8             4.1007    -1.2950    -0.1113 C.ar    
   9 C9             3.4422    -1.0381    -1.2991 C.ar    
  10 C10            2.1237    -0.6189    -1.2827 C.ar    
  11 Cl11           1.2944    -0.3036    -2.7749 Cl      
  12 Cl12           1.3044    -0.4907     2.6249 Cl      
  13 C13           -1.4718     2.9769     1.0177 C.2     
  14 N14           -0.6292     3.0811     2.0831 N.pl3   
  15 N15           -2.6166     3.7144     0.9800 N.pl3   
  16 H16           -0.4684    -0.3920     0.8177 H       
  17 H17           -0.4703    -0.3262    -0.9611 H       
  18 H18            3.9599    -1.3274     2.0214 H       
  19 H19            5.1284    -1.6268    -0.1247 H       
  20 H20            3.9556    -1.1688    -2.2402 H       
  21 H21            0.1456     2.5011     2.1471 H       
  22 H22           -0.8041     3.7352     2.7776 H       
  23 H23           -3.2166     3.6403     0.2214 H       
  24 H24           -2.8318     4.3138     1.7117 H       
@<TRIPOS>BOND
   1    1    2 1
   2    1    3 2
   3    1    4 1
   4    2    5 1
   5    2   16 1
   6    2   17 1
   7    4   13 2
   8    5    6 ar
   9    5   10 ar
  10    6    7 ar
  11    6   12 1
  12    7    8 ar
  13    7   18 1
  14    8    9 ar
  15    8   19 1
  16    9   10 ar
  17    9   20 1
  18   10   11 1
  19   13   14 1
  20   13   15 1
  21   14   21 1
  22   14   22 1
  23   15   23 1
  24   15   24 1

#	End of record

