#	Name: ASD01912682
#	Creating user name:	WinNT
#	Creation time:	15. 06. 2019 20:00

#	Modifying user name:	WinNT
#	Modification time:	15. 06. 2019 20:00

#	Program:	/corina/corina34_cracker 3.40 0067  02.08.2006

@<TRIPOS>MOLECULE
ASD01912682
  43   46    0    0    0
SMALL
NO_CHARGES


@<TRIPOS>ATOM
   1 C1            -0.0265     1.3419     0.2541 C.2     
   2 N2             0.0029    -0.0021    -0.0159 N.pl3   
   3 C3            -1.1911    -0.6642    -0.2593 C.2     
   4 C4            -2.3523    -0.0227    -0.2357 C.2     
   5 N5            -2.4358     1.3306     0.0307 N.am    
   6 C6            -1.3129     2.0395     0.2840 C.2     
   7 C7             1.2831     1.7373     0.4535 C.2     
   8 C8             2.0429     0.5806     0.2880 C.2     
   9 N9             1.2235    -0.4067     0.0132 N.2     
  10 O10           -1.3694     3.2329     0.5206 O.2     
  11 C11           -3.6838     1.9663     0.0447 C.ar    
  12 C12            3.5422     0.4814     0.4036 C.3     
  13 O13            4.0822     1.7678     0.7129 O.3     
  14 C14            5.4313     1.8533     0.8523 C.ar    
  15 C15            6.0230     3.0717     1.1526 C.ar    
  16 C16            7.3946     3.1560     1.2937 C.ar    
  17 C17            8.1776     2.0274     1.1360 C.ar    
  18 C18            7.5904     0.8120     0.8363 C.ar    
  19 C19            6.2187     0.7213     0.7002 C.ar    
  20 C20           -3.9981     2.9009    -0.9327 C.ar    
  21 C21           -5.2291     3.5277    -0.9194 C.ar    
  22 C22           -6.1516     3.2245     0.0699 C.ar    
  23 C23           -5.8388     2.2893     1.0491 C.ar    
  24 C24           -4.6097     1.6576     1.0332 C.ar    
  25 F25           -6.7378     1.9943     2.0135 F       
  26 O26           -7.3629     3.8429     0.0826 O.3     
  27 C27           -7.6169     4.7934    -0.9538 C.3     
  28 H28           -1.1753    -1.7228    -0.4726 H       
  29 H29           -3.2597    -0.5749    -0.4310 H       
  30 H30            1.6406     2.7293     0.6869 H       
  31 H31            3.7998    -0.2210     1.1963 H       
  32 H32            3.9570     0.1309    -0.5415 H       
  33 H33            5.4118     3.9536     1.2755 H       
  34 H34            7.8557     4.1043     1.5271 H       
  35 H35            9.2498     2.0954     1.2467 H       
  36 H36            8.2043    -0.0679     0.7128 H       
  37 H37            5.7605    -0.2283     0.4661 H       
  38 H38           -3.2797     3.1383    -1.7035 H       
  39 H39           -5.4728     4.2546    -1.6801 H       
  40 H40           -4.3661     0.9304     1.7937 H       
  41 H41           -7.5499     4.3003    -1.9235 H       
  42 H42           -8.6156     5.2112    -0.8268 H       
  43 H43           -6.8789     5.5939    -0.9015 H       
@<TRIPOS>BOND
   1    1    2 1
   2    1    7 2
   3    1    6 1
   4    2    3 1
   5    2    9 1
   6    3    4 2
   7    3   28 1
   8    4    5 1
   9    4   29 1
  10    5    6 am
  11    5   11 1
  12    6   10 2
  13    7    8 1
  14    7   30 1
  15    8    9 2
  16    8   12 1
  17   11   20 ar
  18   11   24 ar
  19   12   13 1
  20   12   31 1
  21   12   32 1
  22   13   14 1
  23   14   15 ar
  24   14   19 ar
  25   15   16 ar
  26   15   33 1
  27   16   17 ar
  28   16   34 1
  29   17   18 ar
  30   17   35 1
  31   18   19 ar
  32   18   36 1
  33   19   37 1
  34   20   21 ar
  35   20   38 1
  36   21   22 ar
  37   21   39 1
  38   22   23 ar
  39   22   26 1
  40   23   24 ar
  41   23   25 1
  42   24   40 1
  43   26   27 1
  44   27   41 1
  45   27   42 1
  46   27   43 1

#	End of record

