#	Name: ASD01916177
#	Creating user name:	WinNT
#	Creation time:	15. 06. 2019 20:06

#	Modifying user name:	WinNT
#	Modification time:	15. 06. 2019 20:06

#	Program:	/corina/corina34_cracker 3.40 0067  02.08.2006

@<TRIPOS>MOLECULE
ASD01916177
  46   49    0    0    0
SMALL
NO_CHARGES


@<TRIPOS>ATOM
   1 C1             0.0136     1.3789     0.0685 C.ar    
   2 C2             0.0270    -0.0023     0.0493 C.ar    
   3 C3             1.2357    -0.6831     0.0439 C.ar    
   4 C4             2.4284     0.0255     0.0579 C.ar    
   5 C5             2.4096     1.4066     0.0771 C.ar    
   6 C6             1.2036     2.0828     0.0824 C.ar    
   7 O7             1.2515    -2.0419     0.0255 O.3     
   8 C8             2.5322    -2.6758     0.0210 C.3     
   9 C9             2.3521    -4.1719     0.0001 C.2     
  10 C10            2.2577    -4.9718    -1.1505 C.2     
  11 N11            2.2627    -4.9479     1.0525 N.2     
  12 N12            2.1058    -6.2651     0.6146 N.pl3   
  13 C13            2.1014    -6.2507    -0.7487 C.2     
  14 C14            1.9765    -7.4701     1.4384 C.3     
  15 C15            1.3742    -8.5972     0.5922 C.3     
  16 N16            2.0595    -8.6485    -0.7079 N.am    
  17 C17            1.9394    -7.4843    -1.6045 C.3     
  18 C18            2.7810    -9.7278    -1.0697 C.2     
  19 C19            3.3514    -9.8131    -2.4297 C.ar    
  20 O20            2.9625   -10.6313    -0.2767 O.2     
  21 C21            4.5904   -10.4246    -2.6329 C.ar    
  22 C22            4.4206    -9.9734    -4.9798 C.ar    
  23 C23            3.1875    -9.3703    -4.7845 C.ar    
  24 C24            2.6509    -9.2876    -3.5175 C.ar    
  25 C25            5.1177   -10.5018    -3.9040 C.ar    
  26 F26            4.9422   -10.0514    -6.2236 F       
  27 N27            2.3156    -4.5207    -2.4830 N.pl3   
  28 H28           -0.9271     1.9095     0.0681 H       
  29 H29           -0.9028    -0.5517     0.0388 H       
  30 H30            3.3706    -0.5023     0.0542 H       
  31 H31            3.3378     1.9587     0.0883 H       
  32 H32            1.1911     3.1627     0.0974 H       
  33 H33            3.0887    -2.3645    -0.8630 H       
  34 H34            3.0829    -2.3887     0.9168 H       
  35 H35            2.9598    -7.7715     1.7995 H       
  36 H36            1.3240    -7.2631     2.2866 H       
  37 H37            1.5025    -9.5483     1.1089 H       
  38 H38            0.3122    -8.4075     0.4365 H       
  39 H39            0.9576    -7.4789    -2.0778 H       
  40 H40            2.7199    -7.5180    -2.3647 H       
  41 H41            5.1345   -10.8359    -1.7956 H       
  42 H42            2.6466    -8.9642    -5.6265 H       
  43 H43            1.6903    -8.8176    -3.3664 H       
  44 H44            6.0758   -10.9745    -4.0623 H       
  45 H45            2.4311    -3.5761    -2.6707 H       
  46 H46            2.2400    -5.1546    -3.2133 H       
@<TRIPOS>BOND
   1    1    2 ar
   2    1    6 ar
   3    1   28 1
   4    2    3 ar
   5    2   29 1
   6    3    4 ar
   7    3    7 1
   8    4    5 ar
   9    4   30 1
  10    5    6 ar
  11    5   31 1
  12    6   32 1
  13    7    8 1
  14    8    9 1
  15    8   33 1
  16    8   34 1
  17    9   10 1
  18    9   11 2
  19   10   27 1
  20   10   13 2
  21   11   12 1
  22   12   13 1
  23   12   14 1
  24   13   17 1
  25   14   15 1
  26   14   35 1
  27   14   36 1
  28   15   16 1
  29   15   37 1
  30   15   38 1
  31   16   17 1
  32   16   18 am
  33   17   39 1
  34   17   40 1
  35   18   19 1
  36   18   20 2
  37   19   21 ar
  38   19   24 ar
  39   21   25 ar
  40   21   41 1
  41   22   23 ar
  42   22   26 1
  43   22   25 ar
  44   23   24 ar
  45   23   42 1
  46   24   43 1
  47   25   44 1
  48   27   45 1
  49   27   46 1

#	End of record

