#	Name: ASD00960226
#	Creating user name:	WinNT
#	Creation time:	15. 06. 2019 18:53

#	Modifying user name:	WinNT
#	Modification time:	15. 06. 2019 18:53

#	Program:	/corina/corina34_cracker 3.40 0067  02.08.2006

@<TRIPOS>MOLECULE
ASD00960226
  46   49    0    0    0
SMALL
NO_CHARGES


@<TRIPOS>ATOM
   1 C1            -0.0337     1.3802    -0.2690 C.2     
   2 C2            -0.0568    -0.0029    -0.2756 C.2     
   3 N3             1.2676     1.7994    -0.3687 N.pl3   
   4 C4             2.0792     0.7054    -0.4392 C.2     
   5 C5             1.2697    -0.4435    -0.3826 C.2     
   6 N6             1.8563     3.0720    -0.4072 N.2     
   7 C7             3.1554     3.1902    -0.5086 C.2     
   8 N8             3.9551     2.1327    -0.5779 N.2     
   9 C9             3.4744     0.9015    -0.5469 C.2     
  10 N10            4.3277    -0.1827    -0.6207 N.pl3   
  11 C11            1.7271    -1.8388    -0.4263 C.2     
  12 O12            2.5684    -2.1781    -1.2373 O.2     
  13 N13            1.2148    -2.7431     0.4318 N.am    
  14 C14            1.5597    -4.0932     0.3131 C.ar    
  15 C15            1.6588    -4.8885     1.4474 C.ar    
  16 C16            1.9991    -6.2216     1.3268 C.ar    
  17 C17            2.2415    -6.7645     0.0783 C.ar    
  18 C18            2.1437    -5.9754    -1.0531 C.ar    
  19 C19            1.7982    -4.6431    -0.9398 C.ar    
  20 C20           -1.2057     2.2520    -0.1771 C.2     
  21 O21           -2.3189     1.7682    -0.0972 O.2     
  22 O22           -1.0514     3.5922    -0.1809 O.3     
  23 C23           -2.2385     4.3822    -0.0883 C.3     
  24 C24           -1.8720     5.8439    -0.1072 C.ar    
  25 C25           -1.7925     6.5210    -1.3097 C.ar    
  26 C26           -1.4563     7.8617    -1.3270 C.ar    
  27 C27           -1.2000     8.5254    -0.1418 C.ar    
  28 C28           -1.2804     7.8485     1.0608 C.ar    
  29 C29           -1.6209     6.5088     1.0784 C.ar    
  30 H30           -0.9350    -0.6282    -0.2104 H       
  31 H31            3.5905     4.1782    -0.5371 H       
  32 H32            5.2515    -0.0555    -0.8876 H       
  33 H33            4.0028    -1.0710    -0.4057 H       
  34 H34            0.6069    -2.4575     1.1317 H       
  35 H35            1.4703    -4.4649     2.4228 H       
  36 H36            2.0763    -6.8405     2.2084 H       
  37 H37            2.5082    -7.8071    -0.0133 H       
  38 H38            2.3336    -6.4025    -2.0267 H       
  39 H39            1.7216    -4.0274    -1.8238 H       
  40 H40           -2.8897     4.1600    -0.9337 H       
  41 H41           -2.7580     4.1499     0.8413 H       
  42 H42           -1.9927     6.0025    -2.2357 H       
  43 H43           -1.3934     8.3906    -2.2666 H       
  44 H44           -0.9366     9.5727    -0.1554 H       
  45 H45           -1.0799     8.3669     1.9867 H       
  46 H46           -1.6874     5.9809     2.0182 H       
@<TRIPOS>BOND
   1    1    2 2
   2    1    3 1
   3    1   20 1
   4    2    5 1
   5    2   30 1
   6    3    4 1
   7    3    6 1
   8    4    5 2
   9    4    9 1
  10    5   11 1
  11    6    7 2
  12    7    8 1
  13    7   31 1
  14    8    9 2
  15    9   10 1
  16   10   32 1
  17   10   33 1
  18   11   12 2
  19   11   13 am
  20   13   14 1
  21   13   34 1
  22   14   15 ar
  23   14   19 ar
  24   15   16 ar
  25   15   35 1
  26   16   17 ar
  27   16   36 1
  28   17   18 ar
  29   17   37 1
  30   18   19 ar
  31   18   38 1
  32   19   39 1
  33   20   21 2
  34   20   22 1
  35   22   23 1
  36   23   24 1
  37   23   40 1
  38   23   41 1
  39   24   25 ar
  40   24   29 ar
  41   25   26 ar
  42   25   42 1
  43   26   27 ar
  44   26   43 1
  45   27   28 ar
  46   27   44 1
  47   28   29 ar
  48   28   45 1
  49   29   46 1

#	End of record

