#	Name: ASD03092200
#	Creating user name:	WinNT
#	Creation time:	15. 06. 2019 20:32

#	Modifying user name:	WinNT
#	Modification time:	15. 06. 2019 20:32

#	Program:	/corina/corina34_cracker 3.40 0067  02.08.2006

@<TRIPOS>MOLECULE
ASD03092200
  50   52    0    0    0
SMALL
NO_CHARGES


@<TRIPOS>ATOM
   1 C1            -0.0834     1.2451    -0.8000 C.ar    
   2 N2            -0.0903    -0.0661    -0.6501 N.ar    
   3 C3             1.0157    -0.7478    -0.3924 C.ar    
   4 C4             2.2371    -0.0980    -0.2688 C.ar    
   5 C5             2.2827     1.2891    -0.4212 C.ar    
   6 C6             1.0868     1.9656    -0.6933 C.ar    
   7 N7             0.9533    -2.1288    -0.2435 N.pl3   
   8 C8             3.5609     2.0254    -0.2978 C.2     
   9 N9             4.7676     1.5064    -0.4037 N.2     
  10 C10            5.6841     2.4609    -0.2376 C.2     
  11 N11            5.0764     3.6054    -0.0229 N.2     
  12 N12            3.6962     3.3494    -0.0626 N.pl3   
  13 C13            2.6172     4.3229     0.1223 C.3     
  14 C14            2.2840     4.9762    -1.2205 C.3     
  15 C15            1.0760     5.9000    -1.0524 C.3     
  16 O16            3.4064     5.7371    -1.6715 O.3     
  17 C17            0.6657     6.4564    -2.4173 C.3     
  18 N18            7.0670     2.2736    -0.2837 N.pl3   
  19 C19            7.5928     0.9911    -0.4611 C.ar    
  20 C20            8.8229     0.6607     0.0924 C.ar    
  21 C21            9.3398    -0.6091    -0.0847 C.ar    
  22 C22            8.6326    -1.5498    -0.8127 C.ar    
  23 C23            7.4077    -1.2228    -1.3652 C.ar    
  24 C24            6.8834     0.0421    -1.1870 C.ar    
  25 Cl25          10.8775    -1.0238     0.6061 Cl      
  26 C26            2.1718    -2.8906     0.0417 C.3     
  27 C27            1.8286    -4.3771     0.1573 C.3     
  28 H28           -1.0079     1.7609    -1.0139 H       
  29 H29            3.1369    -0.6566    -0.0579 H       
  30 H30            1.0817     3.0384    -0.8180 H       
  31 H31            0.1031    -2.5879    -0.3284 H       
  32 H32            1.7330     3.8162     0.5091 H       
  33 H33            2.9358     5.0885     0.8298 H       
  34 H34            2.0512     4.2032    -1.9528 H       
  35 H35            0.2457     5.3382    -0.6245 H       
  36 H36            1.3380     6.7236    -0.3881 H       
  37 H37            3.6702     6.4447    -1.0675 H       
  38 H38           -0.1949     7.1146    -2.2976 H       
  39 H39            1.4960     7.0183    -2.8451 H       
  40 H40            0.4037     5.6329    -3.0815 H       
  41 H41            7.6627     3.0336    -0.1926 H       
  42 H42            9.3751     1.3949     0.6603 H       
  43 H43            9.0382    -2.5413    -0.9499 H       
  44 H44            6.8586    -1.9591    -1.9334 H       
  45 H45            5.9267     0.2964    -1.6189 H       
  46 H46            2.8888    -2.7449    -0.7663 H       
  47 H47            2.6059    -2.5439     0.9795 H       
  48 H48            1.1116    -4.5227     0.9652 H       
  49 H49            1.3946    -4.7237    -0.7806 H       
  50 H50            2.7352    -4.9438     0.3694 H       
@<TRIPOS>BOND
   1    1    2 ar
   2    1    6 ar
   3    1   28 1
   4    2    3 ar
   5    3    4 ar
   6    3    7 1
   7    4    5 ar
   8    4   29 1
   9    5    6 ar
  10    5    8 1
  11    6   30 1
  12    7   26 1
  13    7   31 1
  14    8    9 2
  15    8   12 1
  16    9   10 1
  17   10   11 2
  18   10   18 1
  19   11   12 1
  20   12   13 1
  21   13   14 1
  22   13   32 1
  23   13   33 1
  24   14   15 1
  25   14   16 1
  26   14   34 1
  27   15   17 1
  28   15   35 1
  29   15   36 1
  30   16   37 1
  31   17   38 1
  32   17   39 1
  33   17   40 1
  34   18   19 1
  35   18   41 1
  36   19   20 ar
  37   19   24 ar
  38   20   21 ar
  39   20   42 1
  40   21   22 ar
  41   21   25 1
  42   22   23 ar
  43   22   43 1
  44   23   24 ar
  45   23   44 1
  46   24   45 1
  47   26   27 1
  48   26   46 1
  49   26   47 1
  50   27   48 1
  51   27   49 1
  52   27   50 1

#	End of record

