#	Name: ASD01880292
#	Creating user name:	WinNT
#	Creation time:	15. 06. 2019 19:40

#	Modifying user name:	WinNT
#	Modification time:	15. 06. 2019 19:40

#	Program:	/corina/corina34_cracker 3.40 0067  02.08.2006

@<TRIPOS>MOLECULE
ASD01880292
  45   47    0    0    0
SMALL
NO_CHARGES


@<TRIPOS>ATOM
   1 C1            -0.0164     1.3607     0.0095 C.2     
   2 C2             0.0021    -0.0041     0.0020 C.2     
   3 N3            -1.1561    -0.7091     0.0098 N.am    
   4 C4            -2.3467    -0.0815     0.0250 C.2     
   5 C5            -2.4078     1.3233     0.0331 C.2     
   6 C6            -1.2520     2.0433     0.0309 C.2     
   7 O7            -3.3777    -0.7346     0.0313 O.2     
   8 C8            -1.1109    -2.1733     0.0010 C.3     
   9 C9            -1.0810    -2.6835     1.4187 C.ar    
  10 C10           -2.2640    -2.9544     2.0806 C.ar    
  11 C11           -2.2372    -3.4223     3.3808 C.ar    
  12 C12           -1.0261    -3.6196     4.0199 C.ar    
  13 C13            0.1575    -3.3483     3.3570 C.ar    
  14 C14            0.1296    -2.8858     2.0548 C.ar    
  15 Cl15          -0.9917    -4.2068     5.6532 Cl      
  16 C16            1.2564     2.1234     0.0015 C.ar    
  17 C17            1.5841     2.9256    -1.0898 C.ar    
  18 C18            2.7690     3.6332    -1.0918 C.ar    
  19 C19            3.6310     3.5467    -0.0134 C.ar    
  20 C20            3.3110     2.7515     1.0723 C.ar    
  21 C21            2.1258     2.0445     1.0876 C.ar    
  22 C22            4.9236     4.3213    -0.0215 C.3     
  23 C23            5.3102     4.6836     1.4138 C.3     
  24 C24            6.0272     3.4653    -0.6463 C.3     
  25 O25            4.7577     5.5169    -0.7863 O.3     
  26 H26            0.9471    -0.5267    -0.0105 H       
  27 H27           -3.3631     1.8269     0.0450 H       
  28 H28           -1.2802     3.1229     0.0371 H       
  29 H29           -1.9944    -2.5611    -0.5061 H       
  30 H30           -0.2154    -2.5061    -0.5239 H       
  31 H31           -3.2094    -2.8000     1.5817 H       
  32 H32           -3.1615    -3.6336     3.8980 H       
  33 H33            1.1032    -3.5021     3.8553 H       
  34 H34            1.0535    -2.6740     1.5371 H       
  35 H35            0.9121     2.9932    -1.9326 H       
  36 H36            3.0240     4.2552    -1.9370 H       
  37 H37            3.9879     2.6871     1.9114 H       
  38 H38            1.8767     1.4242     1.9359 H       
  39 H39            5.4368     3.7716     1.9972 H       
  40 H40            6.2452     5.2438     1.4079 H       
  41 H41            4.5240     5.2934     1.8589 H       
  42 H42            5.7518     3.2072    -1.6689 H       
  43 H43            6.9621     4.0255    -0.6522 H       
  44 H44            6.1538     2.5533    -0.0629 H       
  45 H45            5.5520     6.0663    -0.8348 H       
@<TRIPOS>BOND
   1    1    2 2
   2    1   16 1
   3    1    6 1
   4    2    3 1
   5    2   26 1
   6    3    4 am
   7    3    8 1
   8    4    5 1
   9    4    7 2
  10    5    6 2
  11    5   27 1
  12    6   28 1
  13    8    9 1
  14    8   29 1
  15    8   30 1
  16    9   10 ar
  17    9   14 ar
  18   10   11 ar
  19   10   31 1
  20   11   12 ar
  21   11   32 1
  22   12   13 ar
  23   12   15 1
  24   13   14 ar
  25   13   33 1
  26   14   34 1
  27   16   17 ar
  28   16   21 ar
  29   17   18 ar
  30   17   35 1
  31   18   19 ar
  32   18   36 1
  33   19   20 ar
  34   19   22 1
  35   20   21 ar
  36   20   37 1
  37   21   38 1
  38   22   23 1
  39   22   24 1
  40   22   25 1
  41   23   39 1
  42   23   40 1
  43   23   41 1
  44   24   42 1
  45   24   43 1
  46   24   44 1
  47   25   45 1

#	End of record

