#	Name: ASD08070050
#	Creating user name:	WinNT
#	Creation time:	15. 06. 2019 21:14

#	Modifying user name:	WinNT
#	Modification time:	15. 06. 2019 21:14

#	Program:	/corina/corina34_cracker 3.40 0067  02.08.2006

@<TRIPOS>MOLECULE
ASD08070050
  39   42    0    0    0
SMALL
NO_CHARGES


@<TRIPOS>ATOM
   1 C1            -0.0167     1.3839     0.0097 C.ar    
   2 C2             0.0021    -0.0041     0.0020 C.ar    
   3 C3             1.2196    -0.6866    -0.0134 C.ar    
   4 C4             2.4063     0.0193    -0.0210 C.ar    
   5 C5             2.3860     1.4167    -0.0133 C.ar    
   6 C6             1.1645     2.0937     0.0022 C.ar    
   7 C7             3.6522     2.1752    -0.0206 C.2     
   8 O8             4.7148     1.5843    -0.0332 O.2     
   9 N9             3.6306     3.5227    -0.0132 N.am    
  10 O10           -1.0090    -0.9190     0.0073 O.3     
  11 C11           -0.4107    -2.1573    -0.4184 C.3     
  12 O12            0.9663    -2.0283    -0.0182 O.3     
  13 C13            4.8874     4.2755    -0.0203 C.3     
  14 C14            4.6426     5.6587    -0.6202 C.3     
  15 C15            5.4037     4.3938     1.3898 C.ar    
  16 C16            5.9411     5.5597     1.8868 C.ar    
  17 C17            6.0481     6.8179     1.0657 C.3     
  18 C18            5.9077     6.5021    -0.4220 C.3     
  19 C19            5.3253     3.2707     2.2035 C.ar    
  20 C20            5.7844     3.3135     3.5035 C.ar    
  21 C21            6.3282     4.4832     4.0013 C.ar    
  22 C22            6.4059     5.5998     3.1953 C.ar    
  23 H23           -0.9603     1.9094     0.0170 H       
  24 H24            3.3489    -0.5078    -0.0325 H       
  25 H25            1.1456     3.1735     0.0077 H       
  26 H26            2.7829     3.9942    -0.0031 H       
  27 H27           -0.8787    -3.0022     0.0868 H       
  28 H28           -0.4863    -2.2670    -1.5002 H       
  29 H29            5.6202     3.7447    -0.6281 H       
  30 H30            4.4271     5.5644    -1.6845 H       
  31 H31            3.8016     6.1342    -0.1155 H       
  32 H32            5.2592     7.5090     1.3624 H       
  33 H33            7.0179     7.2823     1.2445 H       
  34 H34            6.7790     5.9425    -0.7623 H       
  35 H35            5.8227     7.4298    -0.9878 H       
  36 H36            4.9012     2.3565     1.8151 H       
  37 H37            5.7190     2.4365     4.1304 H       
  38 H38            6.6912     4.5223     5.0177 H       
  39 H39            6.8313     6.5128     3.5848 H       
@<TRIPOS>BOND
   1    1    2 ar
   2    1    6 ar
   3    1   23 1
   4    2    3 ar
   5    2   10 1
   6    3    4 ar
   7    3   12 1
   8    4    5 ar
   9    4   24 1
  10    5    6 ar
  11    5    7 1
  12    6   25 1
  13    7    8 2
  14    7    9 am
  15    9   13 1
  16    9   26 1
  17   10   11 1
  18   11   12 1
  19   11   27 1
  20   11   28 1
  21   13   14 1
  22   13   15 1
  23   13   29 1
  24   14   18 1
  25   14   30 1
  26   14   31 1
  27   15   16 ar
  28   15   19 ar
  29   16   17 1
  30   16   22 ar
  31   17   18 1
  32   17   32 1
  33   17   33 1
  34   18   34 1
  35   18   35 1
  36   19   20 ar
  37   19   36 1
  38   20   21 ar
  39   20   37 1
  40   21   22 ar
  41   21   38 1
  42   22   39 1

#	End of record

