#	Name: ASD08150493
#	Creating user name:	WinNT
#	Creation time:	15. 06. 2019 21:16

#	Modifying user name:	WinNT
#	Modification time:	15. 06. 2019 21:16

#	Program:	/corina/corina34_cracker 3.40 0067  02.08.2006

@<TRIPOS>MOLECULE
ASD08150493
  49   53    0    0    0
SMALL
NO_CHARGES


@<TRIPOS>ATOM
   1 N1             0.4509     2.0775     1.7538 N.am    
   2 C2             0.7098     1.1131     2.6581 C.2     
   3 C3             1.9238     0.3972     2.6251 C.2     
   4 C4             2.8533     0.6721     1.6750 C.2     
   5 C5             2.5841     1.6859     0.7216 C.ar    
   6 C6             3.5139     2.0100    -0.2848 C.ar    
   7 N7             3.2628     2.9453    -1.1632 N.ar    
   8 C8             2.1179     3.6447    -1.1593 C.ar    
   9 C9             1.1249     3.3857    -0.1825 C.ar    
  10 C10            1.3660     2.3801     0.7827 C.ar    
  11 C11           -0.2590     5.0981    -1.1493 C.ar    
  12 C12            0.7279     5.3483    -2.1130 C.ar    
  13 C13            1.8898     4.6416    -2.1220 C.ar    
  14 O14           -0.1166     0.8563     3.5168 O.2     
  15 C15           -0.7643     2.7704     1.8046 C.ar    
  16 C16           -1.8854     2.2567     1.1661 C.ar    
  17 C17           -3.0832     2.9426     1.2184 C.ar    
  18 C18           -3.1667     4.1395     1.9057 C.ar    
  19 C19           -2.0520     4.6538     2.5427 C.ar    
  20 C20           -0.8529     3.9704     2.4985 C.ar    
  21 C21           -4.4750     4.8854     1.9603 C.3     
  22 C22           -0.0644     4.1210    -0.1866 C.ar    
  23 C23           -1.5176     5.8830    -1.1606 C.ar    
  24 C24           -2.7285     5.2804    -0.8311 C.ar    
  25 N25           -3.8490     5.9746    -0.8395 N.ar    
  26 C26           -3.8707     7.2584    -1.1576 C.ar    
  27 C27           -2.7018     7.9295    -1.4981 C.ar    
  28 C28           -1.5040     7.2413    -1.4970 C.ar    
  29 O29           -5.0499     7.9292    -1.1520 O.3     
  30 C30           -4.3002     2.3861     0.5254 C.3     
  31 F31           -3.9706     1.1770    -0.0965 F       
  32 F32           -5.3125     2.1661     1.4656 F       
  33 F33           -4.7472     3.2985    -0.4363 F       
  34 H34            2.1150    -0.3723     3.3584 H       
  35 H35            3.7849     0.1265     1.6460 H       
  36 H36            4.4517     1.4766    -0.3318 H       
  37 H37            0.5631     6.1122    -2.8585 H       
  38 H38            2.6395     4.8478    -2.8715 H       
  39 H39           -1.8207     1.3220     0.6288 H       
  40 H40           -2.1203     5.5891     3.0783 H       
  41 H41            0.0172     4.3726     2.9961 H       
  42 H42           -5.0449     4.5562     2.8292 H       
  43 H43           -4.2804     5.9551     2.0375 H       
  44 H44           -5.0459     4.6844     1.0538 H       
  45 H45           -0.8257     3.9285     0.5548 H       
  46 H46           -2.7501     4.2336    -0.5663 H       
  47 H47           -2.7293     8.9778    -1.7564 H       
  48 H48           -0.5807     7.7375    -1.7573 H       
  49 H49           -5.2669     8.3360    -0.3020 H       
@<TRIPOS>BOND
   1    1    2 am
   2    1   10 1
   3    1   15 1
   4    2    3 1
   5    2   14 2
   6    3    4 2
   7    3   34 1
   8    4    5 1
   9    4   35 1
  10    5    6 ar
  11    5   10 ar
  12    6    7 ar
  13    6   36 1
  14    7    8 ar
  15    8    9 ar
  16    8   13 ar
  17    9   10 ar
  18    9   22 ar
  19   11   12 ar
  20   11   23 1
  21   11   22 ar
  22   12   13 ar
  23   12   37 1
  24   13   38 1
  25   15   16 ar
  26   15   20 ar
  27   16   17 ar
  28   16   39 1
  29   17   18 ar
  30   17   30 1
  31   18   19 ar
  32   18   21 1
  33   19   20 ar
  34   19   40 1
  35   20   41 1
  36   21   42 1
  37   21   43 1
  38   21   44 1
  39   22   45 1
  40   23   24 ar
  41   23   28 ar
  42   24   25 ar
  43   24   46 1
  44   25   26 ar
  45   26   27 ar
  46   26   29 1
  47   27   28 ar
  48   27   47 1
  49   28   48 1
  50   29   49 1
  51   30   31 1
  52   30   32 1
  53   30   33 1

#	End of record

