#	Name: ASD03930148
#	Creating user name:	WinNT
#	Creation time:	15. 06. 2019 20:47

#	Modifying user name:	WinNT
#	Modification time:	15. 06. 2019 20:47

#	Program:	/corina/corina34_cracker 3.40 0067  02.08.2006

@<TRIPOS>MOLECULE
ASD03930148
  37   39    0    0    0
SMALL
NO_CHARGES


@<TRIPOS>ATOM
   1 C1            -0.0162     1.3436     0.0094 C.2     
   2 N2             0.0021    -0.0041     0.0020 N.am    
   3 O3             1.0277     1.9654     0.0028 O.2     
   4 O4            -1.1912     2.0008     0.0186 O.3     
   5 C5             1.1269    -2.1314     0.5896 C.3     
   6 C6             1.2806    -0.7192    -0.0140 C.3     
   7 C7             1.7207    -1.0239    -1.4617 C.3     
   8 C8             2.4032    -2.3732    -1.3926 C.ar    
   9 C9             3.2549    -2.9949    -2.2903 C.ar    
  10 C10            3.7644    -4.2488    -2.0111 C.ar    
  11 C11            3.4227    -4.8853    -0.8314 C.ar    
  12 C12            2.5734    -4.2663     0.0644 C.ar    
  13 C13            2.0620    -3.0096    -0.2139 C.ar    
  14 Br14           4.9266    -5.0936    -3.2405 Br      
  15 C15           -1.1349     3.4517     0.0262 C.3     
  16 C16           -2.5351     4.0087     0.0359 C.ar    
  17 C17           -3.1717     4.2577     1.2374 C.ar    
  18 C18           -4.4561     4.7686     1.2463 C.ar    
  19 C19           -5.1038     5.0309     0.0536 C.ar    
  20 C20           -4.4670     4.7828    -1.1480 C.ar    
  21 C21           -3.1809     4.2760    -1.1568 C.ar    
  22 H22           -0.8313    -0.5005     0.0073 H       
  23 H23            1.4200    -2.1279     1.6394 H       
  24 H24            0.0988    -2.4779     0.4843 H       
  25 H25            2.0487    -0.1538     0.5136 H       
  26 H26            0.8523    -1.0725    -2.1187 H       
  27 H27            2.4192    -0.2642    -1.8124 H       
  28 H28            3.5216    -2.4983    -3.2115 H       
  29 H29            3.8193    -5.8655    -0.6114 H       
  30 H30            2.3071    -4.7639     0.9852 H       
  31 H31           -0.6031     3.7900     0.9155 H       
  32 H32           -0.6116     3.7997    -0.8644 H       
  33 H33           -2.6656     4.0527     2.1692 H       
  34 H34           -4.9537     4.9624     2.1850 H       
  35 H35           -6.1076     5.4294     0.0605 H       
  36 H36           -4.9732     4.9875    -2.0798 H       
  37 H37           -2.6820     4.0856    -2.0955 H       
@<TRIPOS>BOND
   1    1    2 am
   2    1    3 2
   3    1    4 1
   4    2    6 1
   5    2   22 1
   6    4   15 1
   7    5    6 1
   8    5   13 1
   9    5   23 1
  10    5   24 1
  11    6    7 1
  12    6   25 1
  13    7    8 1
  14    7   26 1
  15    7   27 1
  16    8    9 ar
  17    8   13 ar
  18    9   10 ar
  19    9   28 1
  20   10   11 ar
  21   10   14 1
  22   11   12 ar
  23   11   29 1
  24   12   13 ar
  25   12   30 1
  26   15   16 1
  27   15   31 1
  28   15   32 1
  29   16   17 ar
  30   16   21 ar
  31   17   18 ar
  32   17   33 1
  33   18   19 ar
  34   18   34 1
  35   19   20 ar
  36   19   35 1
  37   20   21 ar
  38   20   36 1
  39   21   37 1

#	End of record

