#	Name: ASD00731060
#	Creating user name:	WinNT
#	Creation time:	15. 06. 2019 18:37

#	Modifying user name:	WinNT
#	Modification time:	15. 06. 2019 18:37

#	Program:	/corina/corina34_cracker 3.40 0067  02.08.2006

@<TRIPOS>MOLECULE
ASD00731060
 298  298    0    0    0
SMALL
NO_CHARGES


@<TRIPOS>ATOM
   1 C1             2.3635    -3.2594     0.2966 C.2     
   2 O2             2.5047    -4.3891     0.7145 O.2     
   3 N3             4.7847    -3.2296     0.1348 N.am    
   4 C4             3.5698    -2.4417    -0.0873 C.3     
   5 C5             3.4752    -2.0559    -1.5648 C.3     
   6 C6            -1.2481    -3.0387    -0.2234 C.2     
   7 O7            -1.1364    -2.1110    -0.9966 O.2     
   8 N8             1.1274    -2.7373     0.1701 N.am    
   9 C9            -0.0455    -3.5343     0.5376 C.3     
  10 C10           -0.3023    -3.4012     2.0400 C.3     
  11 O11           -0.6527    -2.0499     2.3455 O.3     
  12 C12           -4.8705    -3.4872    -0.0215 C.2     
  13 O13           -4.8172    -4.2464     0.9227 O.2     
  14 N14           -2.4478    -3.6264    -0.0448 N.am    
  15 C15           -3.6169    -3.1445    -0.7846 C.3     
  16 C16           -3.6596    -3.8110    -2.1611 C.3     
  17 C17           -2.3967    -3.4458    -2.9439 C.3     
  18 O18           -3.7277    -5.2294    -2.0017 O.3     
  19 C19           -8.4617    -3.1269    -0.6015 C.2     
  20 O20           -8.3077    -2.6020    -1.6840 O.2     
  21 N21           -6.0508    -2.9499    -0.3884 N.am    
  22 C22           -7.2797    -3.3353     0.3098 C.3     
  23 C23           -7.4448    -2.4750     1.5642 C.3     
  24 C24           -6.2321    -2.6664     2.4771 C.3     
  25 O25           -7.5461    -1.0999     1.1887 O.3     
  26 C26          -12.0936    -3.1909    -0.1917 C.2     
  27 O27          -12.0114    -3.3992     1.0003 O.2     
  28 N28           -9.6899    -3.5237    -0.2136 N.am    
  29 C29          -10.8549    -3.2227    -1.0493 C.3     
  30 C30          -11.0053    -4.3026    -2.1227 C.3     
  31 O31          -11.2998    -5.5549    -1.5005 O.3     
  32 C32          -15.7039    -3.2054    -0.7647 C.2     
  33 O33          -15.5713    -3.4270    -1.9497 O.2     
  34 N34          -13.2928    -2.9311    -0.7492 N.am    
  35 C35          -14.4970    -2.9002     0.0845 C.3     
  36 C36          -14.6502    -1.5114     0.7080 C.3     
  37 C37          -13.4869    -1.2520     1.6674 C.3     
  38 C38          -13.6377     0.1159     2.2815 C.2     
  39 O39          -14.5791     0.8119     1.9825 O.2     
  40 O40          -12.7263     0.5611     3.1606 O.3     
  41 C41          -19.3303    -2.9245    -0.3990 C.2     
  42 O42          -19.2759    -2.4876     0.7311 O.2     
  43 N43          -16.9308    -3.2323    -0.2074 N.am    
  44 C44          -18.1041    -3.5290    -1.0329 C.3     
  45 C45          -18.2809    -5.0449    -1.1418 C.3     
  46 C46          -17.0382    -5.6580    -1.7904 C.3     
  47 O47          -18.4593    -5.5985     0.1635 O.3     
  48 C48          -22.9129    -2.7956    -1.0619 C.2     
  49 O49          -22.8713    -3.4839    -2.0596 O.2     
  50 N50          -20.4874    -2.8692    -1.0878 N.am    
  51 C51          -21.6487    -2.1839    -0.5152 C.3     
  52 C52          -21.5988    -0.7001    -0.8850 C.3     
  53 C53          -22.7698     0.0298    -0.2241 C.3     
  54 C54          -22.5657     0.0537     1.2920 C.3     
  55 C55          -21.6961    -0.5496    -2.4044 C.3     
  56 C56          -26.5107    -2.4328    -0.5258 C.2     
  57 O57          -26.3708    -1.3991     0.0928 O.2     
  58 N58          -24.0897    -2.5776    -0.4422 N.am    
  59 C59          -25.3036    -3.2445    -0.9197 C.3     
  60 C60          -25.3997    -4.6376    -0.2945 C.3     
  61 C61          -24.2400    -5.5018    -0.7938 C.3     
  62 C62          -24.3347    -6.8740    -0.1780 C.2     
  63 O63          -25.2405    -7.1351     0.5851 O.2     
  64 N64          -23.4127    -7.8111    -0.4753 N.am    
  65 C65          -30.1246    -2.9672    -0.3947 C.2     
  66 O66          -30.0143    -4.1515    -0.6316 O.2     
  67 N67          -27.7457    -2.8557    -0.8611 N.am    
  68 C68          -28.9192    -2.0666    -0.4782 C.3     
  69 C69          -29.1665    -0.9793    -1.5258 C.3     
  70 C70          -28.0145    -0.0077    -1.5230 C.ar    
  71 C71          -26.9243    -0.2274    -2.3446 C.ar    
  72 C72          -25.8669     0.6615    -2.3435 C.ar    
  73 C73          -25.8997     1.7757    -1.5176 C.ar    
  74 O74          -24.8608     2.6519    -1.5151 O.3     
  75 C75          -26.9949     1.9942    -0.6946 C.ar    
  76 C76          -28.0521     1.1050    -0.7031 C.ar    
  77 C77          -33.7471    -2.5195    -0.1951 C.2     
  78 O78          -33.6671    -1.3267    -0.3994 O.2     
  79 N79          -31.3252    -2.4564    -0.0566 N.am    
  80 C80          -32.4970    -3.3319     0.0246 C.3     
  81 C81          -32.5501    -3.9860     1.4067 C.3     
  82 C82          -31.3424    -4.9090     1.5809 C.3     
  83 C83          -31.3955    -5.5631     2.9630 C.3     
  84 N84          -30.2392    -6.4469     3.1298 N.pl3   
  85 C85          -30.0727    -7.1476     4.3009 C.2     
  86 N86          -29.0438    -7.9339     4.4493 N.2     
  87 N87          -30.9914    -7.0187     5.3156 N.pl3   
  88 C88          -37.3374    -3.0161     0.2811 C.2     
  89 O89          -37.1710    -4.0625     0.8713 O.2     
  90 N90          -34.9541    -3.1185    -0.1645 N.am    
  91 C91          -36.1694    -2.3288    -0.3781 C.3     
  92 C92          -36.4355    -2.1981    -1.8791 C.3     
  93 C93          -35.3092    -1.3913    -2.5283 C.3     
  94 C94          -35.5752    -1.2606    -4.0293 C.3     
  95 C95          -34.4490    -0.4538    -4.6786 C.3     
  96 N96          -34.7044    -0.3283    -6.1197 N.3     
  97 C97          -40.9796    -2.7242     0.1702 C.2     
  98 O98          -40.9449    -1.9490    -0.7619 O.2     
  99 N99          -38.5668    -2.4678     0.2149 N.am    
 100 C100         -39.7022    -3.1359     0.8558 C.3     
 101 C101         -39.7632    -2.7353     2.3312 C.3     
 102 C102         -44.5566    -2.9665     0.8836 C.2     
 103 O103         -44.4016    -3.5526     1.9340 O.2     
 104 N104         -42.1605    -3.2174     0.5930 N.am    
 105 C105         -43.4022    -2.8172    -0.0735 C.3     
 106 C106         -43.6347    -3.7074    -1.2959 C.3     
 107 C107         -42.4985    -3.5023    -2.2997 C.3     
 108 C108         -43.6715    -5.1734    -0.8596 C.3     
 109 C109         -48.1833    -2.5536     0.6837 C.2     
 110 O110         -48.1484    -2.3313    -0.5080 O.2     
 111 N111         -45.7614    -2.4487     0.5723 N.am    
 112 C112         -46.9012    -2.6548     1.4692 C.3     
 113 C113         -46.8883    -1.5862     2.5642 C.3     
 114 C114         -45.6466    -1.7677     3.4394 C.3     
 115 C115         -45.6337    -0.6991     4.5343 C.3     
 116 C116         -44.3919    -0.8806     5.4095 C.3     
 117 N117         -44.3795     0.1454     6.4607 N.3     
 118 C118         -51.7383    -2.2109     1.4630 C.2     
 119 O119         -51.5201    -2.0262     2.6370 O.2     
 120 N120         -49.3687    -2.7103     1.3055 N.am    
 121 C121         -50.6151    -2.6120     0.5419 C.3     
 122 C122         -50.9339    -3.9681    -0.0908 C.3     
 123 O123         -52.9812    -2.0589     0.9794 O.3     
 124 C124           5.9601    -2.6081     0.3552 C.2     
 125 O125           6.0120    -1.3965     0.3696 O.2     
 126 C126          24.3861    -2.5864     3.7714 C.3     
 127 C127          23.1173    -1.7635     3.5393 C.3     
 128 C128          21.9323    -2.7053     3.3160 C.3     
 129 C129          20.6635    -1.8824     3.0840 C.3     
 130 C130          19.4786    -2.8242     2.8606 C.3     
 131 C131          18.2098    -2.0013     2.6286 C.3     
 132 C132          17.0248    -2.9431     2.4052 C.3     
 133 C133          15.7560    -2.1202     2.1732 C.3     
 134 C134          14.5711    -3.0620     1.9499 C.3     
 135 C135          13.3023    -2.2391     1.7178 C.3     
 136 C136          12.1173    -3.1808     1.4945 C.3     
 137 C137          10.8485    -2.3579     1.2625 C.3     
 138 C138           9.6636    -3.2997     1.0391 C.3     
 139 C139           8.3948    -2.4768     0.8071 C.3     
 140 C140           7.2098    -3.4186     0.5837 C.3     
 141 H141           4.7431    -4.1987     0.1234 H       
 142 H142           3.6057    -1.5389     0.5224 H       
 143 H143           3.4393    -2.9587    -2.1745 H       
 144 H144           2.5712    -1.4696    -1.7301 H       
 145 H145           4.3477    -1.4644    -1.8425 H       
 146 H146           1.0145    -1.8337    -0.1642 H       
 147 H147           0.1345    -4.5807     0.2911 H       
 148 H148          -1.1191    -4.0626     2.3290 H       
 149 H149           0.5989    -3.6757     2.5883 H       
 150 H150          -0.8298    -1.8918     3.2829 H       
 151 H151          -2.5372    -4.3683     0.5736 H       
 152 H152          -3.5497    -2.0634    -0.9062 H       
 153 H153          -4.5377    -3.4640    -2.7057 H       
 154 H154          -1.5271    -3.8875    -2.4573 H       
 155 H155          -2.4768    -3.8281    -3.9616 H       
 156 H156          -2.2866    -2.3617    -2.9706 H       
 157 H157          -4.5049    -5.5335    -1.5133 H       
 158 H158          -6.0866    -2.3080    -1.1148 H       
 159 H159          -7.2214    -4.3858     0.5948 H       
 160 H160          -8.3492    -2.7746     2.0938 H       
 161 H161          -5.3437    -2.2638     1.9904 H       
 162 H162          -6.3996    -2.1426     3.4183 H       
 163 H163          -6.0890    -3.7290     2.6732 H       
 164 H164          -8.2945    -0.9048     0.6083 H       
 165 H165          -9.8025    -4.0086     0.6189 H       
 166 H166         -10.7186    -2.2524    -1.5268 H       
 167 H167         -11.8169    -4.0328    -2.7983 H       
 168 H168         -10.0761    -4.3866    -2.6863 H       
 169 H169         -11.4086    -6.2872    -2.1226 H       
 170 H170         -13.3585    -2.7645    -1.7026 H       
 171 H171         -14.4109    -3.6458     0.8749 H       
 172 H172         -14.6471    -0.7574    -0.0791 H       
 173 H173         -15.5911    -1.4609     1.2559 H       
 174 H174         -13.4900    -2.0060     2.4545 H       
 175 H175         -12.5459    -1.3025     1.1195 H       
 176 H176         -12.8656     1.4448     3.5278 H       
 177 H177         -17.0369    -3.0551     0.7404 H       
 178 H178         -17.9641    -3.1071    -2.0282 H       
 179 H179         -19.1561    -5.2656    -1.7528 H       
 180 H180         -16.1633    -5.4392    -1.1782 H       
 181 H181         -17.1651    -6.7377    -1.8700 H       
 182 H182         -16.9009    -5.2340    -2.7851 H       
 183 H183         -19.2304    -5.2544     0.6347 H       
 184 H184         -20.5512    -3.2833    -1.9627 H       
 185 H185         -21.6341    -2.2888     0.5696 H       
 186 H186         -20.6596    -0.2703    -0.5367 H       
 187 H187         -22.8197     1.0517    -0.6001 H       
 188 H188         -23.6996    -0.4890    -0.4574 H       
 189 H189         -21.6621     0.6156     1.5282 H       
 190 H190         -23.4238     0.5294     1.7668 H       
 191 H191         -22.4657    -0.9670     1.6613 H       
 192 H192         -22.5997    -1.0438    -2.7614 H       
 193 H193         -21.7345     0.5086    -2.6630 H       
 194 H194         -20.8235    -1.0063    -2.8714 H       
 195 H195         -24.1329    -1.9793     0.3200 H       
 196 H196         -25.2652    -3.3353    -2.0052 H       
 197 H197         -25.3486    -4.5531     0.7910 H       
 198 H198         -26.3453    -5.0991    -0.5789 H       
 199 H199         -24.2911    -5.5864    -1.8793 H       
 200 H200         -23.2943    -5.0404    -0.5094 H       
 201 H201         -22.6883    -7.6023    -1.0856 H       
 202 H202         -23.4737    -8.6943    -0.0789 H       
 203 H203         -27.8576    -3.6824    -1.3559 H       
 204 H204         -28.7441    -1.6028     0.4925 H       
 205 H205         -29.2533    -1.4371    -2.5112 H       
 206 H206         -30.0892    -0.4496    -1.2888 H       
 207 H207         -26.8993    -1.0950    -2.9873 H       
 208 H208         -25.0152     0.4890    -2.9849 H       
 209 H209         -24.9504     3.3699    -2.1565 H       
 210 H210         -27.0226     2.8606    -0.0504 H       
 211 H211         -28.9070     1.2770    -0.0659 H       
 212 H212         -31.4133    -1.5092     0.1329 H       
 213 H213         -32.4268    -4.1049    -0.7407 H       
 214 H214         -32.5307    -3.2133     2.1753 H       
 215 H215         -33.4678    -4.5670     1.4987 H       
 216 H216         -31.3618    -5.6817     0.8123 H       
 217 H217         -30.4248    -4.3280     1.4889 H       
 218 H218         -31.3761    -4.7904     3.7316 H       
 219 H219         -32.3132    -6.1441     3.0550 H       
 220 H220         -29.5910    -6.5378     2.4139 H       
 221 H221         -28.9264    -8.4282     5.2756 H       
 222 H222         -31.7571    -6.4335     5.2051 H       
 223 H223         -30.8739    -7.5131     6.1418 H       
 224 H224         -35.0181    -4.0725    -0.0011 H       
 225 H225         -36.0393    -1.3373     0.0556 H       
 226 H226         -36.4773    -3.1903    -2.3284 H       
 227 H227         -37.3855    -1.6875    -2.0366 H       
 228 H228         -35.2673    -0.3991    -2.0790 H       
 229 H229         -34.3591    -1.9019    -2.3708 H       
 230 H230         -35.6171    -2.2528    -4.4787 H       
 231 H231         -36.5253    -0.7500    -4.1868 H       
 232 H232         -34.4071     0.5384    -4.2292 H       
 233 H233         -33.4989    -0.9644    -4.5211 H       
 234 H234         -35.6091     0.0839    -6.2920 H       
 235 H235         -33.9739     0.2010    -6.5717 H       
 236 H236         -38.6999    -1.6309    -0.2570 H       
 237 H237         -39.5797    -4.2162     0.7774 H       
 238 H238         -38.8394    -3.0331     2.8270 H       
 239 H239         -39.8858    -1.6551     2.4096 H       
 240 H240         -40.6080    -3.2324     2.8080 H       
 241 H241         -42.1882    -3.8374     1.3385 H       
 242 H242         -43.3254    -1.7772    -0.3907 H       
 243 H243         -44.5838    -3.4433    -1.7624 H       
 244 H244         -41.5493    -3.7656    -1.8329 H       
 245 H245         -42.6637    -4.1372    -3.1702 H       
 246 H246         -42.4729    -2.4581    -2.6112 H       
 247 H247         -44.4810    -5.3195    -0.1445 H       
 248 H248         -43.8371    -5.8076    -1.7305 H       
 249 H249         -42.7224    -5.4375    -0.3931 H       
 250 H250         -45.8737    -1.9395    -0.2457 H       
 251 H251         -46.8311    -3.6425     1.9247 H       
 252 H252         -46.8688    -0.5971     2.1064 H       
 253 H253         -47.7833    -1.6846     3.1785 H       
 254 H254         -45.6661    -2.7567     3.8971 H       
 255 H255         -44.7515    -1.6693     2.8251 H       
 256 H256         -45.6141     0.2899     4.0765 H       
 257 H257         -46.5287    -0.7975     5.1486 H       
 258 H258         -44.4114    -1.8696     5.8672 H       
 259 H259         -43.4969    -0.7822     4.7952 H       
 260 H260         -45.2293     0.1167     7.0040 H       
 261 H261         -43.5684     0.0468     7.0527 H       
 262 H262         -49.3967    -2.8881     2.2587 H       
 263 H263         -50.5029    -1.8628    -0.2419 H       
 264 H264         -51.0461    -4.7172     0.6929 H       
 265 H265         -51.8612    -3.8949    -0.6590 H       
 266 H266         -50.1215    -4.2581    -0.7571 H       
 267 H267         -53.6686    -1.8008     1.6086 H       
 268 H268          25.2303    -1.9155     3.9305 H       
 269 H269          24.2537    -3.2185     4.6495 H       
 270 H270          24.5782    -3.2116     2.8994 H       
 271 H271          22.9252    -1.1384     4.4113 H       
 272 H272          23.2496    -1.1315     2.6612 H       
 273 H273          22.1245    -3.3305     2.4440 H       
 274 H274          21.8000    -3.3373     4.1941 H       
 275 H275          20.4714    -1.2573     3.9560 H       
 276 H276          20.7959    -1.2504     2.2058 H       
 277 H277          19.6707    -3.4494     1.9886 H       
 278 H278          19.3462    -3.4562     3.7388 H       
 279 H279          18.0177    -1.3761     3.5006 H       
 280 H280          18.3421    -1.3693     1.7505 H       
 281 H281          17.2170    -3.5683     1.5332 H       
 282 H282          16.8925    -3.5751     3.2834 H       
 283 H283          15.5639    -1.4950     3.0452 H       
 284 H284          15.8884    -1.4882     1.2951 H       
 285 H285          14.7632    -3.6871     1.0779 H       
 286 H286          14.4387    -3.6940     2.8280 H       
 287 H287          13.1102    -1.6139     2.5898 H       
 288 H288          13.4346    -1.6070     0.8397 H       
 289 H289          12.3095    -3.8060     0.6225 H       
 290 H290          11.9850    -3.8129     2.3726 H       
 291 H291          10.6564    -1.7328     2.1344 H       
 292 H292          10.9809    -1.7259     0.3843 H       
 293 H293           9.8557    -3.9249     0.1671 H       
 294 H294           9.5312    -3.9317     1.9172 H       
 295 H295           8.2026    -1.8517     1.6791 H       
 296 H296           8.5271    -1.8448    -0.0711 H       
 297 H297           7.0775    -4.0506     1.4619 H       
 298 H298           7.4019    -4.0438    -0.2883 H       
@<TRIPOS>BOND
   1    1    2 2
   2    1    4 1
   3    1    8 am
   4    3  124 am
   5    3    4 1
   6    3  141 1
   7    4    5 1
   8    4  142 1
   9    5  143 1
  10    5  144 1
  11    5  145 1
  12    6    7 2
  13    6    9 1
  14    6   14 am
  15    8    9 1
  16    8  146 1
  17    9   10 1
  18    9  147 1
  19   10   11 1
  20   10  148 1
  21   10  149 1
  22   11  150 1
  23   12   13 2
  24   12   15 1
  25   12   21 am
  26   14   15 1
  27   14  151 1
  28   15   16 1
  29   15  152 1
  30   16   17 1
  31   16   18 1
  32   16  153 1
  33   17  154 1
  34   17  155 1
  35   17  156 1
  36   18  157 1
  37   19   20 2
  38   19   22 1
  39   19   28 am
  40   21   22 1
  41   21  158 1
  42   22   23 1
  43   22  159 1
  44   23   24 1
  45   23   25 1
  46   23  160 1
  47   24  161 1
  48   24  162 1
  49   24  163 1
  50   25  164 1
  51   26   27 2
  52   26   29 1
  53   26   34 am
  54   28   29 1
  55   28  165 1
  56   29   30 1
  57   29  166 1
  58   30   31 1
  59   30  167 1
  60   30  168 1
  61   31  169 1
  62   32   33 2
  63   32   35 1
  64   32   43 am
  65   34   35 1
  66   34  170 1
  67   35   36 1
  68   35  171 1
  69   36   37 1
  70   36  172 1
  71   36  173 1
  72   37   38 1
  73   37  174 1
  74   37  175 1
  75   38   39 2
  76   38   40 1
  77   40  176 1
  78   41   42 2
  79   41   44 1
  80   41   50 am
  81   43   44 1
  82   43  177 1
  83   44   45 1
  84   44  178 1
  85   45   46 1
  86   45   47 1
  87   45  179 1
  88   46  180 1
  89   46  181 1
  90   46  182 1
  91   47  183 1
  92   48   49 2
  93   48   51 1
  94   48   58 am
  95   50   51 1
  96   50  184 1
  97   51   52 1
  98   51  185 1
  99   52   53 1
 100   52   55 1
 101   52  186 1
 102   53   54 1
 103   53  187 1
 104   53  188 1
 105   54  189 1
 106   54  190 1
 107   54  191 1
 108   55  192 1
 109   55  193 1
 110   55  194 1
 111   56   57 2
 112   56   59 1
 113   56   67 am
 114   58   59 1
 115   58  195 1
 116   59   60 1
 117   59  196 1
 118   60   61 1
 119   60  197 1
 120   60  198 1
 121   61   62 1
 122   61  199 1
 123   61  200 1
 124   62   63 2
 125   62   64 am
 126   64  201 1
 127   64  202 1
 128   65   66 2
 129   65   68 1
 130   65   79 am
 131   67   68 1
 132   67  203 1
 133   68   69 1
 134   68  204 1
 135   69   70 1
 136   69  205 1
 137   69  206 1
 138   70   71 ar
 139   70   76 ar
 140   71   72 ar
 141   71  207 1
 142   72   73 ar
 143   72  208 1
 144   73   74 1
 145   73   75 ar
 146   74  209 1
 147   75   76 ar
 148   75  210 1
 149   76  211 1
 150   77   78 2
 151   77   80 1
 152   77   90 am
 153   79   80 1
 154   79  212 1
 155   80   81 1
 156   80  213 1
 157   81   82 1
 158   81  214 1
 159   81  215 1
 160   82   83 1
 161   82  216 1
 162   82  217 1
 163   83   84 1
 164   83  218 1
 165   83  219 1
 166   84   85 1
 167   84  220 1
 168   85   86 2
 169   85   87 1
 170   86  221 1
 171   87  222 1
 172   87  223 1
 173   88   89 2
 174   88   91 1
 175   88   99 am
 176   90   91 1
 177   90  224 1
 178   91   92 1
 179   91  225 1
 180   92   93 1
 181   92  226 1
 182   92  227 1
 183   93   94 1
 184   93  228 1
 185   93  229 1
 186   94   95 1
 187   94  230 1
 188   94  231 1
 189   95   96 1
 190   95  232 1
 191   95  233 1
 192   96  234 1
 193   96  235 1
 194   97   98 2
 195   97  100 1
 196   97  104 am
 197   99  100 1
 198   99  236 1
 199  100  101 1
 200  100  237 1
 201  101  238 1
 202  101  239 1
 203  101  240 1
 204  102  103 2
 205  102  105 1
 206  102  111 am
 207  104  105 1
 208  104  241 1
 209  105  106 1
 210  105  242 1
 211  106  107 1
 212  106  108 1
 213  106  243 1
 214  107  244 1
 215  107  245 1
 216  107  246 1
 217  108  247 1
 218  108  248 1
 219  108  249 1
 220  109  110 2
 221  109  112 1
 222  109  120 am
 223  111  112 1
 224  111  250 1
 225  112  113 1
 226  112  251 1
 227  113  114 1
 228  113  252 1
 229  113  253 1
 230  114  115 1
 231  114  254 1
 232  114  255 1
 233  115  116 1
 234  115  256 1
 235  115  257 1
 236  116  117 1
 237  116  258 1
 238  116  259 1
 239  117  260 1
 240  117  261 1
 241  118  119 2
 242  118  121 1
 243  118  123 1
 244  120  121 1
 245  120  262 1
 246  121  122 1
 247  121  263 1
 248  122  264 1
 249  122  265 1
 250  122  266 1
 251  123  267 1
 252  124  125 2
 253  124  140 1
 254  126  127 1
 255  126  268 1
 256  126  269 1
 257  126  270 1
 258  127  128 1
 259  127  271 1
 260  127  272 1
 261  128  129 1
 262  128  273 1
 263  128  274 1
 264  129  130 1
 265  129  275 1
 266  129  276 1
 267  130  131 1
 268  130  277 1
 269  130  278 1
 270  131  132 1
 271  131  279 1
 272  131  280 1
 273  132  133 1
 274  132  281 1
 275  132  282 1
 276  133  134 1
 277  133  283 1
 278  133  284 1
 279  134  135 1
 280  134  285 1
 281  134  286 1
 282  135  136 1
 283  135  287 1
 284  135  288 1
 285  136  137 1
 286  136  289 1
 287  136  290 1
 288  137  138 1
 289  137  291 1
 290  137  292 1
 291  138  139 1
 292  138  293 1
 293  138  294 1
 294  139  140 1
 295  139  295 1
 296  139  296 1
 297  140  297 1
 298  140  298 1

#	End of record

