#	Name: ASD07100011
#	Creating user name:	WinNT
#	Creation time:	15. 06. 2019 21:08

#	Modifying user name:	WinNT
#	Modification time:	15. 06. 2019 21:08

#	Program:	/corina/corina34_cracker 3.40 0067  02.08.2006

@<TRIPOS>MOLECULE
ASD07100011
  32   31    0    0    0
SMALL
NO_CHARGES


@<TRIPOS>ATOM
   1 C1            -0.0187     1.5258     0.0104 C.3     
   2 C2             0.0021    -0.0041     0.0020 C.3     
   3 C3             1.4167     2.0553    -0.0004 C.3     
   4 O4            -1.3386    -0.4987     0.0122 O.3     
   5 C5             1.3991     3.5794     0.1337 C.3     
   6 C6             2.1811     1.4584     1.1530 C.2     
   7 O7             2.0490     1.6926    -1.2295 O.3     
   8 P8            -1.6939    -2.0690     0.0071 P.3     
   9 O9            -3.2884    -2.2580    -0.1110 O.3     
  10 O10           -1.0041    -2.7492    -1.1964 O.co2   
  11 O11           -1.1946    -2.7142     1.3191 O.co2   
  12 P12           -4.2436    -3.5043    -0.4666 P.3     
  13 O13           -4.5130    -4.3422     0.8295 O.co2   
  14 O14           -5.6027    -2.9743    -1.0377 O.co2   
  15 O15           -3.5445    -4.4092    -1.5375 O.co2   
  16 C16            3.2492     0.7346     0.9263 C.2     
  17 C17            1.7168     1.6941     2.5672 C.3     
  18 C18            2.8129     4.1010     0.1230 C.2     
  19 O19            3.7479     3.3257     0.0178 O.co2   
  20 O20            3.0216     5.2983     0.2194 O.co2   
  21 H21           -0.5459     1.8868    -0.8726 H       
  22 H22           -0.5289     1.8773     0.9072 H       
  23 H23            0.5123    -0.3556    -0.8948 H       
  24 H24            0.5293    -0.3651     0.8851 H       
  25 H25            0.8462     4.0111    -0.7006 H       
  26 H26            0.9168     3.8561     1.0712 H       
  27 H27            1.6095     2.0432    -2.0163 H       
  28 H28            3.5820     0.5657    -0.0871 H       
  29 H29            3.7970     0.3068     1.7529 H       
  30 H30            1.0217     0.9063     2.8574 H       
  31 H31            2.5760     1.6858     3.2378 H       
  32 H32            1.2168     2.6607     2.6291 H       
@<TRIPOS>BOND
   1    1    2 1
   2    1    3 1
   3    1   21 1
   4    1   22 1
   5    2    4 1
   6    2   23 1
   7    2   24 1
   8    3    5 1
   9    3    6 1
  10    3    7 1
  11    4    8 1
  12    5   18 1
  13    5   25 1
  14    5   26 1
  15    6   16 2
  16    6   17 1
  17    7   27 1
  18    8    9 1
  19    8   10 ar
  20    8   11 ar
  21    9   12 1
  22   12   13 ar
  23   12   14 ar
  24   12   15 ar
  25   16   28 1
  26   16   29 1
  27   17   30 1
  28   17   31 1
  29   17   32 1
  30   18   19 ar
  31   18   20 ar

#	End of record

