#	Name: ASD01910130
#	Creating user name:	WinNT
#	Creation time:	15. 06. 2019 19:55

#	Modifying user name:	WinNT
#	Modification time:	15. 06. 2019 19:55

#	Program:	/corina/corina34_cracker 3.40 0067  02.08.2006

@<TRIPOS>MOLECULE
ASD01910130
  46   48    0    0    0
SMALL
NO_CHARGES


@<TRIPOS>ATOM
   1 C1            -0.0166     1.3755     0.0096 C.ar    
   2 C2             0.0021    -0.0041     0.0020 C.ar    
   3 C3             1.2215    -0.6822    -0.0133 C.ar    
   4 C4             2.4150     0.0408    -0.0209 C.ar    
   5 C5             2.3825     1.4201    -0.0132 C.ar    
   6 C6             1.1702     2.0864     0.0021 C.ar    
   7 C7             1.2481    -2.1139    -0.0208 C.1     
   8 C8             1.2698    -3.2877    -0.0269 C.1     
   9 C9             1.2971    -4.7594    -0.0346 C.3     
  10 O10            2.6497    -5.2203    -0.0501 O.3     
  11 C11            0.5738    -5.3024     1.2082 C.3     
  12 C12           -0.8918    -4.8790     1.2315 C.3     
  13 C13           -1.6142    -5.2888    -0.0627 C.3     
  14 C14           -0.8645    -4.6584    -1.2174 C.3     
  15 C15            0.5583    -5.2838    -1.2541 C.3     
  16 N16           -1.3812    -4.8755    -2.5589 N.am    
  17 C17           -0.2210    -4.8594    -3.4812 C.3     
  18 C18            1.0567    -4.7473    -2.6051 C.3     
  19 C19           -2.6724    -5.0572    -2.8998 C.2     
  20 O20           -3.5340    -5.0485    -2.0430 O.2     
  21 O21           -3.0076    -5.2483    -4.1897 O.3     
  22 C22           -4.4170    -5.4372    -4.4834 C.3     
  23 C23           -4.6017    -5.6377    -5.9890 C.3     
  24 H24           -0.9598     1.9016     0.0169 H       
  25 H25           -0.9251    -0.5579     0.0083 H       
  26 H26            3.3620    -0.4782    -0.0324 H       
  27 H27            3.3055     1.9809    -0.0186 H       
  28 H28            1.1501     3.1662     0.0081 H       
  29 H29            3.1719    -4.9329     0.7113 H       
  30 H30            0.6302    -6.3909     1.2059 H       
  31 H31            1.0685    -4.9231     2.1023 H       
  32 H32           -1.3860    -5.3512     2.0806 H       
  33 H33           -0.9486    -3.7963     1.3441 H       
  34 H34           -1.6062    -6.3740    -0.1640 H       
  35 H35           -2.6415    -4.9248    -0.0450 H       
  36 H36           -0.7781    -3.5854    -1.0463 H       
  37 H37            0.5124    -6.3728    -1.2451 H       
  38 H38           -0.1943    -5.7823    -4.0605 H       
  39 H39           -0.2892    -4.0005    -4.1488 H       
  40 H40            1.3803    -3.7100    -2.5182 H       
  41 H41            1.8572    -5.3722    -3.0011 H       
  42 H42           -4.7843    -6.3152    -3.9522 H       
  43 H43           -4.9760    -4.5581    -4.1627 H       
  44 H44           -4.2344    -4.7597    -6.5202 H       
  45 H45           -4.0427    -6.5167    -6.3097 H       
  46 H46           -5.6597    -5.7795    -6.2095 H       
@<TRIPOS>BOND
   1    1    2 ar
   2    1    6 ar
   3    1   24 1
   4    2    3 ar
   5    2   25 1
   6    3    4 ar
   7    3    7 1
   8    4    5 ar
   9    4   26 1
  10    5    6 ar
  11    5   27 1
  12    6   28 1
  13    7    8 3
  14    8    9 1
  15    9   10 1
  16    9   11 1
  17    9   15 1
  18   10   29 1
  19   11   12 1
  20   11   30 1
  21   11   31 1
  22   12   13 1
  23   12   32 1
  24   12   33 1
  25   13   14 1
  26   13   34 1
  27   13   35 1
  28   14   15 1
  29   14   16 1
  30   14   36 1
  31   15   18 1
  32   15   37 1
  33   16   17 1
  34   16   19 am
  35   17   18 1
  36   17   38 1
  37   17   39 1
  38   18   40 1
  39   18   41 1
  40   19   20 2
  41   19   21 1
  42   21   22 1
  43   22   23 1
  44   22   42 1
  45   22   43 1
  46   23   44 1
  47   23   45 1
  48   23   46 1

#	End of record

