#	Name: ASD01915570
#	Creating user name:	WinNT
#	Creation time:	15. 06. 2019 20:05

#	Modifying user name:	WinNT
#	Modification time:	15. 06. 2019 20:05

#	Program:	/corina/corina34_cracker 3.40 0067  02.08.2006

@<TRIPOS>MOLECULE
ASD01915570
  44   47    0    0    0
SMALL
NO_CHARGES


@<TRIPOS>ATOM
   1 C1            -0.0043     1.4630     0.2177 C.2     
   2 N2             0.0615     0.1098    -0.0288 N.pl3   
   3 C3            -1.1511    -0.6743    -0.2924 C.3     
   4 C4            -2.3299    -0.0463     0.4494 C.3     
   5 N5            -2.4044     1.3988     0.2637 N.am    
   6 C6            -1.2917     2.1721     0.2679 C.2     
   7 C7             1.2784     1.9001     0.3939 C.2     
   8 C8             2.0745     0.7555     0.2524 C.2     
   9 N9             1.2812    -0.2617     0.0091 N.2     
  10 C10            3.5767     0.7021     0.3594 C.3     
  11 O11            4.0818     2.0110     0.6311 O.3     
  12 C12            5.4288     2.1384     0.7582 C.ar    
  13 O13           -1.3542     3.3861     0.3107 O.2     
  14 C14            5.9874     3.3806     1.0222 C.ar    
  15 C15            6.2472     1.0256     0.6298 C.ar    
  16 C16            7.6162     1.1577     0.7595 C.ar    
  17 C17            8.1709     2.3978     1.0169 C.ar    
  18 C18            7.3570     3.5075     1.1509 C.ar    
  19 C19           -3.6500     1.9984     0.0776 C.ar    
  20 C20           -4.8075     1.2635     0.3055 C.ar    
  21 C21           -6.0379     1.8683     0.1183 C.ar    
  22 C22           -6.0676     3.1977    -0.2936 C.ar    
  23 C23           -4.8726     3.8680    -0.5014 C.ar    
  24 N24           -3.7167     3.2625    -0.3087 N.ar    
  25 O25           -7.2549     3.8308    -0.4900 O.3     
  26 C26           -7.2007     5.1948    -0.9126 C.3     
  27 H27           -1.3557    -0.6790    -1.3630 H       
  28 H28           -1.0057    -1.6971     0.0553 H       
  29 H29           -3.2541    -0.4960     0.0867 H       
  30 H30           -2.2305    -0.2600     1.5136 H       
  31 H31            1.6071     2.9085     0.5980 H       
  32 H32            3.8596     0.0284     1.1682 H       
  33 H33            3.9952     0.3388    -0.5792 H       
  34 H34            5.3521     4.2477     1.1266 H       
  35 H35            5.8144     0.0567     0.4291 H       
  36 H36            8.2537     0.2917     0.6600 H       
  37 H37            9.2414     2.4991     1.1179 H       
  38 H38            7.7927     4.4751     1.3517 H       
  39 H39           -4.7474     0.2334     0.6242 H       
  40 H40           -6.9538     1.3215     0.2874 H       
  41 H41           -4.8880     4.8996    -0.8210 H       
  42 H42           -6.6737     5.7864    -0.1640 H       
  43 H43           -6.6732     5.2597    -1.8643 H       
  44 H44           -8.2138     5.5788    -1.0318 H       
@<TRIPOS>BOND
   1    1    2 1
   2    1    7 2
   3    1    6 1
   4    2    3 1
   5    2    9 1
   6    3    4 1
   7    3   27 1
   8    3   28 1
   9    4    5 1
  10    4   29 1
  11    4   30 1
  12    5    6 am
  13    5   19 1
  14    6   13 2
  15    7    8 1
  16    7   31 1
  17    8    9 2
  18    8   10 1
  19   10   11 1
  20   10   32 1
  21   10   33 1
  22   11   12 1
  23   12   14 ar
  24   12   15 ar
  25   14   18 ar
  26   14   34 1
  27   15   16 ar
  28   15   35 1
  29   16   17 ar
  30   16   36 1
  31   17   18 ar
  32   17   37 1
  33   18   38 1
  34   19   20 ar
  35   19   24 ar
  36   20   21 ar
  37   20   39 1
  38   21   22 ar
  39   21   40 1
  40   22   23 ar
  41   22   25 1
  42   23   24 ar
  43   23   41 1
  44   25   26 1
  45   26   42 1
  46   26   43 1
  47   26   44 1

#	End of record

