#	Name: ASD03091143
#	Creating user name:	WinNT
#	Creation time:	15. 06. 2019 20:30

#	Modifying user name:	WinNT
#	Modification time:	15. 06. 2019 20:30

#	Program:	/corina/corina34_cracker 3.40 0067  02.08.2006

@<TRIPOS>MOLECULE
ASD03091143
  22   22    0    0    0
SMALL
NO_CHARGES


@<TRIPOS>ATOM
   1 C1            -0.0098     1.4729     0.0873 C.2     
   2 C2             0.0060    -0.0047     0.0394 C.ar    
   3 C3             1.2131    -0.6880    -0.1184 C.ar    
   4 C4             1.2215    -2.0667    -0.1619 C.ar    
   5 C5             0.0370    -2.7729    -0.0499 C.ar    
   6 C6            -1.1636    -2.1020     0.1064 C.ar    
   7 C7            -1.1849    -0.7224     0.1577 C.ar    
   8 O8             1.0362     2.0920     0.0953 O.2     
   9 N9            -1.1842     2.1337     0.1164 N.am    
  10 C10            2.5043     0.0792    -0.2417 C.3     
  11 C11           -1.1999     3.5978     0.1638 C.3     
  12 Br12          -2.7769    -3.0769     0.2573 Br      
  13 H13            2.1549    -2.5961    -0.2840 H       
  14 H14            0.0492    -3.8523    -0.0849 H       
  15 H15           -2.1215    -0.1998     0.2845 H       
  16 H16           -2.0189     1.6398     0.1059 H       
  17 H17            2.8696     0.3376     0.7522 H       
  18 H18            3.2451    -0.5360    -0.7524 H       
  19 H19            2.3322     0.9907    -0.8139 H       
  20 H20           -0.6841     3.9378     1.0618 H       
  21 H21           -0.6958     3.9953    -0.7172 H       
  22 H22           -2.2313     3.9497     0.1819 H       
@<TRIPOS>BOND
   1    1    2 1
   2    1    8 2
   3    1    9 am
   4    2    3 ar
   5    2    7 ar
   6    3    4 ar
   7    3   10 1
   8    4    5 ar
   9    4   13 1
  10    5    6 ar
  11    5   14 1
  12    6    7 ar
  13    6   12 1
  14    7   15 1
  15    9   11 1
  16    9   16 1
  17   10   17 1
  18   10   18 1
  19   10   19 1
  20   11   20 1
  21   11   21 1
  22   11   22 1

#	End of record

