#	Name: ASD01908018
#	Creating user name:	WinNT
#	Creation time:	15. 06. 2019 19:54

#	Modifying user name:	WinNT
#	Modification time:	15. 06. 2019 19:54

#	Program:	/corina/corina34_cracker 3.40 0067  02.08.2006

@<TRIPOS>MOLECULE
ASD01908018
  18   19    0    0    0
SMALL
NO_CHARGES


@<TRIPOS>ATOM
   1 C1            -0.0168     1.3851     0.0097 C.ar    
   2 C2             0.0021    -0.0041     0.0020 C.ar    
   3 C3             1.2200    -0.6608    -0.0131 C.ar    
   4 C4             2.3819     0.0991    -0.0201 C.ar    
   5 C5             2.2883     1.4765    -0.0118 C.ar    
   6 N6             1.1121     2.0744     0.0026 N.ar    
   7 O7            -1.2045     2.0409     0.0188 O.3     
   8 S8            -2.5689     4.3974     0.0380 S.3     
   9 C9            -1.1830     3.3963     0.0261 C.2     
  10 N10           -0.1095     4.1212     0.0254 N.2     
  11 C11           -0.2726     5.4317     0.0337 C.2     
  12 C12           -1.5459     5.8317     0.0417 C.2     
  13 Br13           1.1796     6.6428     0.0341 Br      
  14 H14           -0.9215    -0.5639     0.0082 H       
  15 H15            1.2657    -1.7398    -0.0190 H       
  16 H16            3.3487    -0.3822    -0.0315 H       
  17 H17            3.1891     2.0722    -0.0172 H       
  18 H18           -1.8892     6.8557     0.0488 H       
@<TRIPOS>BOND
   1    1    2 ar
   2    1    6 ar
   3    1    7 1
   4    2    3 ar
   5    2   14 1
   6    3    4 ar
   7    3   15 1
   8    4    5 ar
   9    4   16 1
  10    5    6 ar
  11    5   17 1
  12    7    9 1
  13    8    9 1
  14    8   12 1
  15    9   10 2
  16   10   11 1
  17   11   12 2
  18   11   13 1
  19   12   18 1

#	End of record

