#	Name: ASD01870130
#	Creating user name:	WinNT
#	Creation time:	15. 06. 2019 19:38

#	Modifying user name:	WinNT
#	Modification time:	15. 06. 2019 19:38

#	Program:	/corina/corina34_cracker 3.40 0067  02.08.2006

@<TRIPOS>MOLECULE
ASD01870130
  42   44    0    0    0
SMALL
NO_CHARGES


@<TRIPOS>ATOM
   1 C1             1.6482     1.5338     1.3890 C.3     
   2 C2             1.6906     0.0274     1.3813 C.2     
   3 N3             0.6044    -0.6754     1.0035 N.am    
   4 O4             2.7022    -0.5525     1.7151 O.2     
   5 C5             0.6733    -2.0703     0.9027 C.ar    
   6 C6             1.4496    -2.7936     1.7983 C.ar    
   7 C7            -0.0395    -2.7309    -0.0897 C.ar    
   8 C8             0.0282    -4.1060    -0.1894 C.ar    
   9 C9             0.8083    -4.8295     0.7023 C.ar    
  10 C10            1.5174    -4.1699     1.6984 C.ar    
  11 Cl11           2.4930    -5.0744     2.8136 Cl      
  12 N12            0.8765    -6.2277     0.6008 N.am    
  13 C13            1.7926    -6.8559    -0.1465 C.2     
  14 C14            0.0344    -7.0429     1.2476 C.2     
  15 C15            0.3823    -8.4789     0.9209 C.3     
  16 C16            1.5866    -8.3508    -0.0340 C.3     
  17 O17           -0.8642    -6.6872     1.9795 O.2     
  18 O18            2.6509    -6.3132    -0.8087 O.2     
  19 C19            1.7564    -9.0115     1.3321 C.3     
  20 C20            2.5231    -8.2317     2.4021 C.3     
  21 C21            1.9434   -10.5297     1.3628 C.3     
  22 C22            0.5506     2.0083     2.3435 C.3     
  23 C23            2.9997     2.0797     1.8542 C.3     
  24 H24            1.4367     1.8965     0.3831 H       
  25 H25           -0.2251    -0.2149     0.8015 H       
  26 H26            2.0007    -2.2805     2.5725 H       
  27 H27           -0.6471    -2.1686    -0.7832 H       
  28 H28           -0.5262    -4.6192    -0.9612 H       
  29 H29           -0.4392    -9.1709     0.7352 H       
  30 H30            1.6746    -8.9455    -0.9432 H       
  31 H31            2.0137    -7.2883     2.5991 H       
  32 H32            2.5665    -8.8195     3.3190 H       
  33 H33            3.5353    -8.0316     2.0506 H       
  34 H34            2.8376   -10.7971     0.7998 H       
  35 H35            2.0513   -10.8616     2.3954 H       
  36 H36            1.0744   -11.0119     0.9151 H       
  37 H37            0.5200     3.0978     2.3490 H       
  38 H38           -0.4122     1.6194     2.0121 H       
  39 H39            0.7622     1.6456     3.3494 H       
  40 H40            3.7816     1.7417     1.1742 H       
  41 H41            2.9690     3.1692     1.8598 H       
  42 H42            3.2112     1.7170     2.8601 H       
@<TRIPOS>BOND
   1    1    2 1
   2    1   22 1
   3    1   23 1
   4    1   24 1
   5    2    3 am
   6    2    4 2
   7    3    5 1
   8    3   25 1
   9    5    6 ar
  10    5    7 ar
  11    6   10 ar
  12    6   26 1
  13    7    8 ar
  14    7   27 1
  15    8    9 ar
  16    8   28 1
  17    9   10 ar
  18    9   12 1
  19   10   11 1
  20   12   13 am
  21   12   14 am
  22   13   18 2
  23   13   16 1
  24   14   17 2
  25   14   15 1
  26   15   16 1
  27   15   19 1
  28   15   29 1
  29   16   19 1
  30   16   30 1
  31   19   20 1
  32   19   21 1
  33   20   31 1
  34   20   32 1
  35   20   33 1
  36   21   34 1
  37   21   35 1
  38   21   36 1
  39   22   37 1
  40   22   38 1
  41   22   39 1
  42   23   40 1
  43   23   41 1
  44   23   42 1

#	End of record

