#	Name: ASD04882458
#	Creating user name:	WinNT
#	Creation time:	15. 06. 2019 20:54

#	Modifying user name:	WinNT
#	Modification time:	15. 06. 2019 20:54

#	Program:	/corina/corina34_cracker 3.40 0067  02.08.2006

@<TRIPOS>MOLECULE
ASD04882458
  67   71    0    0    0
SMALL
NO_CHARGES


@<TRIPOS>ATOM
   1 C1            -0.0215     1.4012    -0.0092 C.ar    
   2 C2            -0.0115     0.0036    -0.0053 C.ar    
   3 C3            -1.2093    -0.7019    -0.0165 C.ar    
   4 C4            -2.4096    -0.0269    -0.0320 C.ar    
   5 C5            -2.4267     1.3707    -0.0364 C.ar    
   6 C6            -1.2239     2.0825    -0.0185 C.ar    
   7 N7             1.1998    -0.6830     0.0094 N.3     
   8 C8             1.3071    -1.5363     1.2011 C.3     
   9 C9             1.3723    -1.4731    -1.2176 C.3     
  10 C10            2.7461    -2.1473    -1.1982 C.3     
  11 N11            2.8534    -3.0005    -0.0065 N.3     
  12 C12            2.6809    -2.2105     1.2206 C.3     
  13 C13           -3.7126     2.0937    -0.0540 C.2     
  14 O14           -3.7265     3.3095    -0.0578 O.2     
  15 N15           -4.8719     1.4064    -0.0657 N.am    
  16 N16            1.1866     2.1110     0.0021 N.am    
  17 C17            4.0684    -3.6893     0.0082 C.ar    
  18 C18            5.2666    -2.9869     0.0190 C.ar    
  19 C19            6.4663    -3.6711     0.0341 C.ar    
  20 C20            6.4754    -5.0537     0.0380 C.ar    
  21 C21            5.2841    -5.7563     0.0273 C.ar    
  22 C22            4.0811    -5.0785     0.0180 C.ar    
  23 C23           -6.1489     2.1243    -0.0830 C.3     
  24 C24           -7.3003     1.1168    -0.0937 C.3     
  25 C25           -8.5833     1.8381    -0.1111 C.1     
  26 C26            1.2296     3.3600     0.5068 C.2     
  27 O27            0.2069     3.8985     0.8853 O.2     
  28 C28            2.5162     4.0733     0.5999 C.2     
  29 N29            3.7329     3.5991     0.2178 N.2     
  30 C30            4.6245     4.5142     0.4546 C.2     
  31 O31            4.0246     5.5882     0.9871 O.3     
  32 C32            2.7098     5.3324     1.0790 C.2     
  33 C33            6.1000     4.3876     0.1756 C.3     
  34 C34            6.7251     5.3953    -0.7913 C.3     
  35 C35            7.0167     5.4910     0.7076 C.3     
  36 C36            2.7836    -5.8449     0.0069 C.3     
  37 N37           -9.5735     2.3948    -0.1246 N.1     
  38 H38           -1.1986    -1.7819    -0.0134 H       
  39 H39           -3.3385    -0.5778    -0.0410 H       
  40 H40           -1.2340     3.1624    -0.0215 H       
  41 H41            1.1885    -0.9265     2.0968 H       
  42 H42            0.5283    -2.2984     1.1740 H       
  43 H43            0.5942    -2.2345    -1.2722 H       
  44 H44            1.3013    -0.8173    -2.0854 H       
  45 H45            2.8647    -2.7571    -2.0939 H       
  46 H46            3.5249    -1.3851    -1.1711 H       
  47 H47            3.4590    -1.4490     1.2752 H       
  48 H48            2.7519    -2.8663     2.0883 H       
  49 H49           -4.8608     0.4365    -0.0626 H       
  50 H50            1.9919     1.7035    -0.3534 H       
  51 H51            5.2602    -1.9069     0.0153 H       
  52 H52            7.3984    -3.1256     0.0425 H       
  53 H53            7.4149    -5.5863     0.0491 H       
  54 H54            5.2948    -6.8362     0.0300 H       
  55 H55           -6.2244     2.7530     0.8042 H       
  56 H56           -6.2032     2.7476    -0.9756 H       
  57 H57           -7.2248     0.4881    -0.9809 H       
  58 H58           -7.2460     0.4936     0.7989 H       
  59 H59            1.9512     5.9967     1.4659 H       
  60 H60            6.4908     3.3702     0.1643 H       
  61 H61            7.5274     5.0408    -1.4384 H       
  62 H62            6.0691     6.1497    -1.2255 H       
  63 H63            6.5526     6.3085     1.2595 H       
  64 H64            8.0109     5.1996     1.0466 H       
  65 H65            2.4624    -6.0304     1.0318 H       
  66 H66            2.0224    -5.2629    -0.5128 H       
  67 H67            2.9275    -6.7956    -0.5065 H       
@<TRIPOS>BOND
   1    1    2 ar
   2    1   16 1
   3    1    6 ar
   4    2    3 ar
   5    2    7 1
   6    3    4 ar
   7    3   38 1
   8    4    5 ar
   9    4   39 1
  10    5    6 ar
  11    5   13 1
  12    6   40 1
  13    7    8 1
  14    7    9 1
  15    8   12 1
  16    8   41 1
  17    8   42 1
  18    9   10 1
  19    9   43 1
  20    9   44 1
  21   10   11 1
  22   10   45 1
  23   10   46 1
  24   11   12 1
  25   11   17 1
  26   12   47 1
  27   12   48 1
  28   13   14 2
  29   13   15 am
  30   15   23 1
  31   15   49 1
  32   16   26 am
  33   16   50 1
  34   17   18 ar
  35   17   22 ar
  36   18   19 ar
  37   18   51 1
  38   19   20 ar
  39   19   52 1
  40   20   21 ar
  41   20   53 1
  42   21   22 ar
  43   21   54 1
  44   22   36 1
  45   23   24 1
  46   23   55 1
  47   23   56 1
  48   24   25 1
  49   24   57 1
  50   24   58 1
  51   25   37 3
  52   26   28 1
  53   26   27 2
  54   28   29 1
  55   28   32 2
  56   29   30 2
  57   30   31 1
  58   30   33 1
  59   31   32 1
  60   32   59 1
  61   33   34 1
  62   33   35 1
  63   33   60 1
  64   34   35 1
  65   34   61 1
  66   34   62 1
  67   35   63 1
  68   35   64 1
  69   36   65 1
  70   36   66 1
  71   36   67 1

#	End of record

