#	Name: ASD01813958
#	Creating user name:	WinNT
#	Creation time:	15. 06. 2019 19:31

#	Modifying user name:	WinNT
#	Modification time:	15. 06. 2019 19:31

#	Program:	/corina/corina34_cracker 3.40 0067  02.08.2006

@<TRIPOS>MOLECULE
ASD01813958
  47   51    0    0    0
SMALL
NO_CHARGES


@<TRIPOS>ATOM
   1 C1             0.1043     1.4767     0.3881 C.ar    
   2 C2             0.0852     0.0904     0.3798 C.ar    
   3 C3             1.2535    -0.6304     0.2386 C.ar    
   4 C4             2.4705     0.0349     0.1023 C.ar    
   5 C5             2.4884     1.4401     0.1108 C.ar    
   6 C6             1.2979     2.1572     0.2545 C.ar    
   7 N7             3.6447    -0.6745    -0.0390 N.pl3   
   8 C8             4.8381    -0.0823    -0.1727 C.2     
   9 C9             4.9813     1.2905    -0.1790 C.2     
  10 C10            3.7817     2.1314    -0.0342 C.2     
  11 F11            1.3147     3.5081     0.2624 F       
  12 F12            1.2176    -1.9809     0.2330 F       
  13 O13            3.8551     3.3478    -0.0339 O.2     
  14 C14            6.3091     1.9025    -0.3281 C.2     
  15 O15            6.4360     3.2445    -0.3327 O.3     
  16 O16            7.2929     1.1984    -0.4474 O.2     
  17 C17            3.5836    -2.1382    -0.0425 C.3     
  18 C18            3.4393    -2.6316    -1.4591 C.ar    
  19 C19            4.5594    -2.7756    -2.2571 C.ar    
  20 C20            4.4304    -3.2276    -3.5558 C.ar    
  21 C21            3.1744    -3.5375    -4.0599 C.ar    
  22 C22            2.0516    -3.3918    -3.2562 C.ar    
  23 C23            2.1877    -2.9448    -1.9565 C.ar    
  24 N24            3.0401    -3.9958    -5.3772 N.pl3   
  25 C25            3.5727    -3.4200    -6.4916 C.2     
  26 N26            3.2498    -4.1083    -7.5475 N.2     
  27 C27            2.4884    -5.1728    -7.1850 C.ar    
  28 C28            2.3477    -5.1196    -5.7878 C.ar    
  29 C29            1.8848    -6.2124    -7.8973 C.ar    
  30 C30            1.1608    -7.1619    -7.2335 C.ar    
  31 C31            1.0168    -7.1064    -5.8544 C.ar    
  32 C32            1.6094    -6.0937    -5.1303 C.ar    
  33 H33           -0.8191     2.0265     0.4950 H       
  34 H34           -0.8546    -0.4313     0.4854 H       
  35 H35            5.7181    -0.6995    -0.2789 H       
  36 H36            7.3294     3.6007    -0.4335 H       
  37 H37            4.4990    -2.5410     0.3911 H       
  38 H38            2.7273    -2.4675     0.5460 H       
  39 H39            5.5361    -2.5340    -1.8645 H       
  40 H40            5.3055    -3.3395    -4.1787 H       
  41 H41            1.0732    -3.6321    -3.6456 H       
  42 H42            1.3147    -2.8313    -1.3308 H       
  43 H43            4.1747    -2.5233    -6.4974 H       
  44 H44            1.9902    -6.2650    -8.9709 H       
  45 H45            0.6956    -7.9636    -7.7877 H       
  46 H46            0.4410    -7.8645    -5.3444 H       
  47 H47            1.4942    -6.0551    -4.0571 H       
@<TRIPOS>BOND
   1    1    2 ar
   2    1    6 ar
   3    1   33 1
   4    2    3 ar
   5    2   34 1
   6    3    4 ar
   7    3   12 1
   8    4    5 ar
   9    4    7 1
  10    5    6 ar
  11    5   10 1
  12    6   11 1
  13    7    8 1
  14    7   17 1
  15    8    9 2
  16    8   35 1
  17    9   10 1
  18    9   14 1
  19   10   13 2
  20   14   15 1
  21   14   16 2
  22   15   36 1
  23   17   18 1
  24   17   37 1
  25   17   38 1
  26   18   19 ar
  27   18   23 ar
  28   19   20 ar
  29   19   39 1
  30   20   21 ar
  31   20   40 1
  32   21   22 ar
  33   21   24 1
  34   22   23 ar
  35   22   41 1
  36   23   42 1
  37   24   25 1
  38   24   28 1
  39   25   26 2
  40   25   43 1
  41   26   27 1
  42   27   28 ar
  43   27   29 ar
  44   28   32 ar
  45   29   30 ar
  46   29   44 1
  47   30   31 ar
  48   30   45 1
  49   31   32 ar
  50   31   46 1
  51   32   47 1

#	End of record

