#	Name: ASD03330144
#	Creating user name:	WinNT
#	Creation time:	15. 06. 2019 20:36

#	Modifying user name:	WinNT
#	Modification time:	15. 06. 2019 20:36

#	Program:	/corina/corina34_cracker 3.40 0067  02.08.2006

@<TRIPOS>MOLECULE
ASD03330144
  32   33    0    0    0
SMALL
NO_CHARGES


@<TRIPOS>ATOM
   1 C1             0.0433     1.3341     0.5518 C.2     
   2 C2             0.0188    -0.0248     0.1532 C.2     
   3 C3            -1.1763    -0.7098     0.1135 C.2     
   4 O4             1.0797     1.9644     0.4968 O.2     
   5 C5             1.2784    -0.7100    -0.2212 C.ar    
   6 C6             1.9911    -0.2966    -1.3465 C.ar    
   7 C7             3.1628    -0.9364    -1.6920 C.ar    
   8 C8             3.6329    -1.9913    -0.9214 C.ar    
   9 C9             2.9257    -2.4056     0.1991 C.ar    
  10 C10            1.7567    -1.7659     0.5542 C.ar    
  11 O11            4.7877    -2.6199    -1.2650 O.3     
  12 C12            5.2136    -3.6972    -0.4284 C.3     
  13 C13           -2.4377     0.0013     0.3502 C.ar    
  14 C14           -3.2928    -0.4057     1.3843 C.ar    
  15 C15           -4.4761     0.2683     1.6004 C.ar    
  16 C16           -4.8205     1.3456     0.7980 C.ar    
  17 C17           -3.9790     1.7535    -0.2269 C.ar    
  18 C18           -2.7911     1.0938    -0.4519 C.ar    
  19 F19           -5.9817     2.0011     1.0151 F       
  20 Cl20          -2.8631    -1.7545     2.3892 Cl      
  21 Cl21          -1.1894    -2.4141    -0.2166 Cl      
  22 H22           -0.8609     1.8110     0.9003 H       
  23 H23            1.6256     0.5235    -1.9468 H       
  24 H24            3.7152    -0.6168    -2.5633 H       
  25 H25            3.2938    -3.2270     0.7959 H       
  26 H26            1.2096    -2.0856     1.4287 H       
  27 H27            6.1459    -4.1099    -0.8138 H       
  28 H28            5.3708    -3.3295     0.5856 H       
  29 H29            4.4490    -4.4740    -0.4187 H       
  30 H30           -5.1363    -0.0437     2.3961 H       
  31 H31           -4.2542     2.5935    -0.8475 H       
  32 H32           -2.1354     1.4158    -1.2473 H       
@<TRIPOS>BOND
   1    1    2 1
   2    1    4 2
   3    1   22 1
   4    2    3 2
   5    2    5 1
   6    3   13 1
   7    3   21 1
   8    5    6 ar
   9    5   10 ar
  10    6    7 ar
  11    6   23 1
  12    7    8 ar
  13    7   24 1
  14    8    9 ar
  15    8   11 1
  16    9   10 ar
  17    9   25 1
  18   10   26 1
  19   11   12 1
  20   12   27 1
  21   12   28 1
  22   12   29 1
  23   13   14 ar
  24   13   18 ar
  25   14   15 ar
  26   14   20 1
  27   15   16 ar
  28   15   30 1
  29   16   17 ar
  30   16   19 1
  31   17   18 ar
  32   17   31 1
  33   18   32 1

#	End of record

