#	Name: ASD01208720
#	Creating user name:	WinNT
#	Creation time:	15. 06. 2019 19:10

#	Modifying user name:	WinNT
#	Modification time:	15. 06. 2019 19:10

#	Program:	/corina/corina34_cracker 3.40 0067  02.08.2006

@<TRIPOS>MOLECULE
ASD01208720
  55   58    0    0    0
SMALL
NO_CHARGES


@<TRIPOS>ATOM
   1 C1             0.1633     1.3075    -0.1907 C.2     
   2 C2             0.1927    -0.1078     0.2149 C.ar    
   3 C3             1.3808    -0.8475     0.1064 C.ar    
   4 C4             1.3995    -2.1774     0.4899 C.ar    
   5 C5             0.2471    -2.7751     0.9790 C.ar    
   6 C6            -0.9314    -2.0433     1.0867 C.ar    
   7 C7            -0.9612    -0.7189     0.7151 C.ar    
   8 O8             1.1698     1.8380    -0.6209 O.2     
   9 N9            -0.9803     2.0136    -0.0906 N.am    
  10 O10            2.5063    -0.2614    -0.3730 O.3     
  11 C11            3.6179    -1.0301    -0.5072 C.ar    
  12 C12            3.7268    -1.9100    -1.5766 C.ar    
  13 C13            4.8531    -2.6917    -1.7163 C.ar    
  14 C14            5.8860    -2.5980    -0.7814 C.ar    
  15 C15            5.7731    -1.7120     0.2919 C.ar    
  16 C16            4.6457    -0.9302     0.4220 C.ar    
  17 O17            8.1629    -3.4473    -0.1042 O.3     
  18 C18            7.0952    -3.4347    -0.9272 C.2     
  19 N19            7.3299    -4.3045    -1.8820 N.2     
  20 N20            8.4802    -4.8472    -1.6881 N.2     
  21 C21            9.0210    -4.3497    -0.6114 C.2     
  22 C22           10.3654    -4.7187    -0.0390 C.3     
  23 O23            0.2692    -4.0794     1.3537 O.3     
  24 C24           -0.9159    -6.1793     1.5165 C.3     
  25 C25           -0.9768    -4.6662     1.7346 C.3     
  26 C26           -1.2474    -4.3744     3.2120 C.3     
  27 O27            0.0550    -6.7488     2.3969 O.3     
  28 C28            0.1915    -8.1658     2.2732 C.3     
  29 S29           -2.3848     4.3594    -0.3996 S.3     
  30 C30           -1.0081     3.3485    -0.4731 C.2     
  31 N31            0.0068     4.0092    -0.9376 N.2     
  32 C32           -0.1979     5.2751    -1.2523 C.2     
  33 C33           -1.4458     5.7038    -1.0433 C.2     
  34 F34            0.7754     6.0718    -1.7453 F       
  35 H35            2.3115    -2.7500     0.4080 H       
  36 H36           -1.8248    -2.5153     1.4681 H       
  37 H37           -1.8767    -0.1530     0.8048 H       
  38 H38           -1.7840     1.5895     0.2487 H       
  39 H39            2.9274    -1.9819    -2.2994 H       
  40 H40            4.9367    -3.3760    -2.5476 H       
  41 H41            6.5699    -1.6368     1.0171 H       
  42 H42            4.5594    -0.2417     1.2496 H       
  43 H43           10.2473    -5.5448     0.6623 H       
  44 H44           11.0335    -5.0198    -0.8459 H       
  45 H45           10.7876    -3.8585     0.4805 H       
  46 H46           -1.8932    -6.6157     1.7223 H       
  47 H47           -0.6356    -6.3865     0.4837 H       
  48 H48           -1.7779    -4.2436     1.1281 H       
  49 H49           -1.2908    -3.2964     3.3674 H       
  50 H50           -2.1978    -4.8219     3.5026 H       
  51 H51           -0.4463    -4.7969     3.8184 H       
  52 H52            0.4947    -8.4142     1.2561 H       
  53 H53            0.9468    -8.5207     2.9744 H       
  54 H54           -0.7629    -8.6435     2.4947 H       
  55 H55           -1.8145     6.7006    -1.2355 H       
@<TRIPOS>BOND
   1    1    2 1
   2    1    8 2
   3    1    9 am
   4    2    3 ar
   5    2    7 ar
   6    3    4 ar
   7    3   10 1
   8    4    5 ar
   9    4   35 1
  10    5    6 ar
  11    5   23 1
  12    6    7 ar
  13    6   36 1
  14    7   37 1
  15    9   30 1
  16    9   38 1
  17   10   11 1
  18   11   12 ar
  19   11   16 ar
  20   12   13 ar
  21   12   39 1
  22   13   14 ar
  23   13   40 1
  24   14   15 ar
  25   14   18 1
  26   15   16 ar
  27   15   41 1
  28   16   42 1
  29   17   18 1
  30   17   21 1
  31   18   19 2
  32   19   20 1
  33   20   21 2
  34   21   22 1
  35   22   43 1
  36   22   44 1
  37   22   45 1
  38   23   25 1
  39   24   25 1
  40   24   27 1
  41   24   46 1
  42   24   47 1
  43   25   26 1
  44   25   48 1
  45   26   49 1
  46   26   50 1
  47   26   51 1
  48   27   28 1
  49   28   52 1
  50   28   53 1
  51   28   54 1
  52   29   30 1
  53   29   33 1
  54   30   31 2
  55   31   32 1
  56   32   33 2
  57   32   34 1
  58   33   55 1

#	End of record

