#	Name: ASD07300997
#	Creating user name:	WinNT
#	Creation time:	15. 06. 2019 21:10

#	Modifying user name:	WinNT
#	Modification time:	15. 06. 2019 21:10

#	Program:	/corina/corina34_cracker 3.40 0067  02.08.2006

@<TRIPOS>MOLECULE
ASD07300997
  35   36    0    0    0
SMALL
NO_CHARGES


@<TRIPOS>ATOM
   1 C1            -0.0034     1.4413    -0.2628 C.2     
   2 C2             0.0017    -0.0034     0.0065 C.2     
   3 C3             1.2619    -0.6116     0.2670 C.2     
   4 C4             2.3637     0.1829     0.2480 C.2     
   5 N5             2.2570     1.5104    -0.0109 N.pl3   
   6 N6             1.1411     2.0935    -0.2503 N.2     
   7 C7            -1.2679     2.1481    -0.5484 C.2     
   8 O8            -2.3174     1.5346    -0.5622 O.2     
   9 N9            -1.2586     3.4733    -0.7937 N.am    
  10 C10            5.8045     2.4768     0.0628 C.ar    
  11 C11            4.6773     1.6804     0.0725 C.ar    
  12 C12            3.4229     2.2810    -0.0170 C.ar    
  13 C13            3.3613     3.6700    -0.1132 C.ar    
  14 C14            4.5359     4.3948    -0.1163 C.ar    
  15 N15            5.7046     3.7890    -0.0298 N.ar    
  16 O16           -1.0317    -0.6545     0.0072 O.2     
  17 C17           -2.5133     4.1745    -1.0770 C.3     
  18 O18            1.3597    -1.9426     0.5264 O.3     
  19 C19            2.6679    -2.4607     0.7757 C.3     
  20 O20           -0.0362     4.1878    -0.7776 O.3     
  21 C21            0.6208     4.2441    -2.0454 C.3     
  22 H22            3.3354    -0.2469     0.4416 H       
  23 H23            6.7805     2.0203     0.1362 H       
  24 H24            4.7661     0.6067     0.1481 H       
  25 H25            2.4078     4.1721    -0.1847 H       
  26 H26            4.4977     5.4716    -0.1908 H       
  27 H27           -2.9467     4.5350    -0.1441 H       
  28 H28           -2.3163     5.0197    -1.7366 H       
  29 H29           -3.2105     3.4906    -1.5612 H       
  30 H30            3.3003    -2.2847    -0.0945 H       
  31 H31            3.0973    -1.9607     1.6439 H       
  32 H32            2.6041    -3.5317     0.9678 H       
  33 H33            0.8441     3.2324    -2.3841 H       
  34 H34           -0.0290     4.7348    -2.7699 H       
  35 H35            1.5486     4.8080    -1.9490 H       
@<TRIPOS>BOND
   1    1    2 1
   2    1    6 2
   3    1    7 1
   4    2    3 1
   5    2   16 2
   6    3    4 2
   7    3   18 1
   8    4    5 1
   9    4   22 1
  10    5    6 1
  11    5   12 1
  12    7    8 2
  13    7    9 am
  14    9   17 1
  15    9   20 1
  16   10   11 ar
  17   10   15 ar
  18   10   23 1
  19   11   12 ar
  20   11   24 1
  21   12   13 ar
  22   13   14 ar
  23   13   25 1
  24   14   15 ar
  25   14   26 1
  26   17   27 1
  27   17   28 1
  28   17   29 1
  29   18   19 1
  30   19   30 1
  31   19   31 1
  32   19   32 1
  33   20   21 1
  34   21   33 1
  35   21   34 1
  36   21   35 1

#	End of record

