#	Name: ASD08150455
#	Creating user name:	WinNT
#	Creation time:	15. 06. 2019 21:16

#	Modifying user name:	WinNT
#	Modification time:	15. 06. 2019 21:16

#	Program:	/corina/corina34_cracker 3.40 0067  02.08.2006

@<TRIPOS>MOLECULE
ASD08150455
  44   48    0    0    0
SMALL
NO_CHARGES


@<TRIPOS>ATOM
   1 N1             0.4544     2.0920     1.6983 N.am    
   2 C2             0.7205     1.1424     2.6161 C.2     
   3 C3             1.9341     0.4259     2.5852 C.2     
   4 C4             2.8563     0.6855     1.6236 C.2     
   5 C5             2.5795     1.6835     0.6560 C.ar    
   6 C6             3.5013     1.9915    -0.3628 C.ar    
   7 N7             3.2433     2.9126    -1.2540 N.ar    
   8 C8             2.0982     3.6118    -1.2526 C.ar    
   9 C9             1.1128     3.3682    -0.2644 C.ar    
  10 C10            1.3617     2.3784     0.7152 C.ar    
  11 C11           -0.0771     4.1027    -0.2714 C.ar    
  12 C12           -0.2796     5.0639    -1.2483 C.ar    
  13 C13            0.6999     5.2991    -2.2233 C.ar    
  14 C14            1.8624     4.5933    -2.2293 C.ar    
  15 O15           -0.0992     0.8998     3.4855 O.2     
  16 C16           -1.5389     5.8475    -1.2631 C.ar    
  17 C17           -0.7609     2.7860     1.7473 C.ar    
  18 C18           -1.8803     2.2737     1.1053 C.ar    
  19 C19           -3.0794     2.9610     1.1551 C.ar    
  20 C20           -3.1628     4.1607     1.8459 C.ar    
  21 C21           -2.0467     4.6716     2.4862 C.ar    
  22 C22           -0.8493     3.9848     2.4431 C.ar    
  23 F23           -4.3344     4.8317     1.8937 F       
  24 C24           -1.5297     7.1985    -1.6300 C.ar    
  25 C25           -2.7468     5.2483    -0.9178 C.ar    
  26 N26           -3.8686     5.9404    -0.9297 N.ar    
  27 C27           -3.8939     7.2210    -1.2665 C.ar    
  28 C28           -2.7262     7.8873    -1.6289 C.ar    
  29 N29           -5.1020     7.9068    -1.2641 N.pl3   
  30 F30           -4.1693     2.4640     0.5305 F       
  31 H31            2.1310    -0.3317     3.3292 H       
  32 H32            3.7878     0.1396     1.5963 H       
  33 H33            4.4388     1.4573    -0.4086 H       
  34 H34           -0.8326     3.9217     0.4788 H       
  35 H35            0.5293     6.0511    -2.9794 H       
  36 H36            2.6063     4.7877    -2.9877 H       
  37 H37           -1.8146     1.3396     0.5672 H       
  38 H38           -2.1137     5.6060     3.0236 H       
  39 H39            0.0207     4.3845     2.9430 H       
  40 H40           -0.6089     7.6901    -1.9070 H       
  41 H41           -2.7652     4.2055    -0.6375 H       
  42 H42           -2.7555     8.9318    -1.9020 H       
  43 H43           -5.9199     7.4476    -1.0167 H       
  44 H44           -5.1277     8.8448    -1.5097 H       
@<TRIPOS>BOND
   1    1    2 am
   2    1   10 1
   3    1   17 1
   4    2    3 1
   5    2   15 2
   6    3    4 2
   7    3   31 1
   8    4    5 1
   9    4   32 1
  10    5    6 ar
  11    5   10 ar
  12    6    7 ar
  13    6   33 1
  14    7    8 ar
  15    8    9 ar
  16    8   14 ar
  17    9   10 ar
  18    9   11 ar
  19   11   12 ar
  20   11   34 1
  21   12   13 ar
  22   12   16 1
  23   13   14 ar
  24   13   35 1
  25   14   36 1
  26   16   24 ar
  27   16   25 ar
  28   17   18 ar
  29   17   22 ar
  30   18   19 ar
  31   18   37 1
  32   19   20 ar
  33   19   30 1
  34   20   21 ar
  35   20   23 1
  36   21   22 ar
  37   21   38 1
  38   22   39 1
  39   24   28 ar
  40   24   40 1
  41   25   26 ar
  42   25   41 1
  43   26   27 ar
  44   27   28 ar
  45   27   29 1
  46   28   42 1
  47   29   43 1
  48   29   44 1

#	End of record

