#	Name: ASD05740094
#	Creating user name:	WinNT
#	Creation time:	15. 06. 2019 21:02

#	Modifying user name:	WinNT
#	Modification time:	15. 06. 2019 21:02

#	Program:	/corina/corina34_cracker 3.40 0067  02.08.2006

@<TRIPOS>MOLECULE
ASD05740094
  54   57    0    0    0
SMALL
NO_CHARGES


@<TRIPOS>ATOM
   1 C1            -0.1823     1.5027     0.0166 C.3     
   2 C2             1.9454     1.4092    -2.6614 C.ar    
   3 C3            -0.0397    -0.7270     1.2131 C.2     
   4 C4             0.0352    -2.1172     1.1862 C.2     
   5 C5            -0.1005    -0.0021     0.0056 C.2     
   6 C6            -0.0842    -0.6884    -1.1727 C.2     
   7 C7            -0.0080    -2.0906    -1.1552 C.2     
   8 O8             0.0492    -2.7646     0.0050 O.3     
   9 C9            -0.1482     0.0522    -2.4836 C.3     
  10 C10            1.2483     0.2684    -3.0071 C.ar    
  11 C11            1.8302    -0.6757    -3.8335 C.ar    
  12 O12            0.0062    -2.7050    -2.2086 O.2     
  13 C13            3.2328     1.6077    -3.1444 C.ar    
  14 C14            3.8145     0.6572    -3.9734 C.ar    
  15 C15            3.1114    -0.4814    -4.3156 C.ar    
  16 N16            3.9408     2.7605    -2.7968 N.am    
  17 S17            4.7713     3.6032    -3.9555 S.o2    
  18 O18            5.3473     4.7249    -3.3003 O.2     
  19 O19            5.5362     2.6468    -4.6763 O.2     
  20 C20            0.0481    -1.4852     3.3378 C.2     
  21 C21           -0.0297    -0.3394     2.6270 C.2     
  22 N22            0.0833    -1.5705     4.7299 N.pl3   
  23 C23            0.1831    -0.4183     5.4919 C.ar    
  24 N24            0.1007    -0.5064     6.8115 N.ar    
  25 N25            0.3640     0.7454     4.8844 N.ar    
  26 C26            0.4637     1.8643     5.5826 C.ar    
  27 C27            0.3767     1.8087     6.9650 C.ar    
  28 C28            0.1924     0.5744     7.5683 C.ar    
  29 N29            0.0817    -2.5523     2.4764 N.pl3   
  30 C30            0.1643    -3.9568     2.8848 C.3     
  31 N31            3.6538     4.2056    -5.0188 N.am    
  32 C32            2.6790     5.2029    -4.5701 C.3     
  33 H33            0.8239     1.9214     0.0012 H       
  34 H34           -0.7310     1.8431    -0.8615 H       
  35 H35           -0.6991     1.8318     0.9181 H       
  36 H36            1.4887     2.1483    -2.0199 H       
  37 H37           -0.7197    -0.5331    -3.2041 H       
  38 H38           -0.6331     1.0167    -2.3328 H       
  39 H39            1.2826    -1.5668    -4.1026 H       
  40 H40            4.8154     0.8082    -4.3500 H       
  41 H41            3.5631    -1.2210    -4.9601 H       
  42 H42            3.9460     3.0674    -1.8766 H       
  43 H43           -0.0718     0.6648     3.0222 H       
  44 H44            0.0380    -2.4367     5.1640 H       
  45 H45            0.6115     2.8097     5.0818 H       
  46 H46            0.4548     2.7072     7.5592 H       
  47 H47            0.1202     0.4968     8.6431 H       
  48 H48            1.2108    -4.2501     2.9676 H       
  49 H49           -0.3262    -4.0840     3.8498 H       
  50 H50           -0.3303    -4.5812     2.1407 H       
  51 H51            3.6447     3.8982    -5.9387 H       
  52 H52            2.0313     5.4781    -5.4025 H       
  53 H53            2.0765     4.7849    -3.7637 H       
  54 H54            3.2039     6.0879    -4.2102 H       
@<TRIPOS>BOND
   1    1    5 1
   2    1   33 1
   3    1   34 1
   4    1   35 1
   5    2   10 ar
   6    2   13 ar
   7    2   36 1
   8    3    4 2
   9    3    5 1
  10    3   21 1
  11    4   29 1
  12    4    8 1
  13    5    6 2
  14    6    7 1
  15    6    9 1
  16    7    8 1
  17    7   12 2
  18    9   10 1
  19    9   37 1
  20    9   38 1
  21   10   11 ar
  22   11   15 ar
  23   11   39 1
  24   13   14 ar
  25   13   16 1
  26   14   15 ar
  27   14   40 1
  28   15   41 1
  29   16   17 am
  30   16   42 1
  31   17   18 2
  32   17   19 2
  33   17   31 am
  34   20   21 2
  35   20   22 1
  36   20   29 1
  37   21   43 1
  38   22   23 1
  39   22   44 1
  40   23   24 ar
  41   23   25 ar
  42   24   28 ar
  43   25   26 ar
  44   26   27 ar
  45   26   45 1
  46   27   28 ar
  47   27   46 1
  48   28   47 1
  49   29   30 1
  50   30   48 1
  51   30   49 1
  52   30   50 1
  53   31   32 1
  54   31   51 1
  55   32   52 1
  56   32   53 1
  57   32   54 1

#	End of record

