#	Name: ASD02198762
#	Creating user name:	WinNT
#	Creation time:	15. 06. 2019 20:20

#	Modifying user name:	WinNT
#	Modification time:	15. 06. 2019 20:20

#	Program:	/corina/corina34_cracker 3.40 0067  02.08.2006

@<TRIPOS>MOLECULE
ASD02198762
  50   54    0    0    0
SMALL
NO_CHARGES


@<TRIPOS>ATOM
   1 C1            -0.0433     1.5017    -0.1150 C.2     
   2 C2            -0.0730     0.1619     0.0975 C.2     
   3 N3             1.0712    -0.5396     0.2599 N.pl3   
   4 N4             2.2357    -0.0048     0.2258 N.2     
   5 C5             2.4071     1.2849     0.0276 C.2     
   6 C6             1.2214     2.1358    -0.1604 C.2     
   7 C7             0.9797    -1.9188     0.4764 C.ar    
   8 C8             1.5816    -2.4907     1.5966 C.ar    
   9 C9             1.4888    -3.8561     1.8083 C.ar    
  10 C10            0.7972    -4.6520     0.9054 C.ar    
  11 C11            0.1985    -4.0799    -0.2107 C.ar    
  12 C12            0.2845    -2.7187    -0.4211 C.ar    
  13 C13            3.7640     1.8673    -0.0051 C.2     
  14 N14            4.3057     2.6075    -1.0181 N.pl3   
  15 N15            5.6076     2.9593    -0.6404 N.2     
  16 C16            5.8516     2.4597     0.5449 C.2     
  17 C17            4.7198     1.7718     0.9825 C.2     
  18 C18            3.6726     2.9521    -2.2191 C.ar    
  19 C19            3.8061     4.2354    -2.7328 C.ar    
  20 C20            3.1810     4.5719    -3.9174 C.ar    
  21 C21            2.4227     3.6326    -4.5919 C.ar    
  22 C22            2.2874     2.3541    -4.0828 C.ar    
  23 C23            2.9147     2.0096    -2.9015 C.ar    
  24 O24            1.3242     3.3391    -0.3479 O.2     
  25 N25            0.7032    -6.0316     1.1189 N.am    
  26 C26            0.0758    -7.1432     0.4028 C.3     
  27 C27            0.5731    -8.1267     1.4624 C.3     
  28 C28            1.1582    -6.8761     2.0632 C.2     
  29 O29            1.8159    -6.6910     3.0653 O.2     
  30 O30            2.2585    -1.7096     2.4790 O.3     
  31 C31            2.8497    -2.3635     3.6037 C.3     
  32 H32           -0.9547     2.0653    -0.2495 H       
  33 H33           -1.0228    -0.3505     0.1378 H       
  34 H34            1.9545    -4.3014     2.6751 H       
  35 H35           -0.3388    -4.7009    -0.9121 H       
  36 H36           -0.1819    -2.2763    -1.2890 H       
  37 H37            6.7752     2.5656     1.0945 H       
  38 H38            4.6140     1.2524     1.9235 H       
  39 H39            4.3979     4.9695    -2.2063 H       
  40 H40            3.2842     5.5699    -4.3172 H       
  41 H41            1.9348     3.8982    -5.5181 H       
  42 H42            1.6942     1.6228    -4.6117 H       
  43 H43            2.8090     1.0108    -2.5046 H       
  44 H44           -1.0110    -7.0683     0.3666 H       
  45 H45            0.5126    -7.3182    -0.5804 H       
  46 H46           -0.2173    -8.5873     2.0550 H       
  47 H47            1.3156    -8.8387     1.1022 H       
  48 H48            3.3579    -1.6272     4.2263 H       
  49 H49            2.0724    -2.8578     4.1865 H       
  50 H50            3.5697    -3.1044     3.2561 H       
@<TRIPOS>BOND
   1    1    2 2
   2    1    6 1
   3    1   32 1
   4    2    3 1
   5    2   33 1
   6    3    4 1
   7    3    7 1
   8    4    5 2
   9    5    6 1
  10    5   13 1
  11    6   24 2
  12    7    8 ar
  13    7   12 ar
  14    8    9 ar
  15    8   30 1
  16    9   10 ar
  17    9   34 1
  18   10   11 ar
  19   10   25 1
  20   11   12 ar
  21   11   35 1
  22   12   36 1
  23   13   14 1
  24   13   17 2
  25   14   15 1
  26   14   18 1
  27   15   16 2
  28   16   17 1
  29   16   37 1
  30   17   38 1
  31   18   19 ar
  32   18   23 ar
  33   19   20 ar
  34   19   39 1
  35   20   21 ar
  36   20   40 1
  37   21   22 ar
  38   21   41 1
  39   22   23 ar
  40   22   42 1
  41   23   43 1
  42   25   26 1
  43   25   28 am
  44   26   27 1
  45   26   44 1
  46   26   45 1
  47   27   28 1
  48   27   46 1
  49   27   47 1
  50   28   29 2
  51   30   31 1
  52   31   48 1
  53   31   49 1
  54   31   50 1

#	End of record

