#	Name: ASD03430627
#	Creating user name:	WinNT
#	Creation time:	15. 06. 2019 20:41

#	Modifying user name:	WinNT
#	Modification time:	15. 06. 2019 20:41

#	Program:	/corina/corina34_cracker 3.40 0067  02.08.2006

@<TRIPOS>MOLECULE
ASD03430627
  54   59    0    0    0
SMALL
NO_CHARGES


@<TRIPOS>ATOM
   1 N1            -0.0161     1.3396     0.0094 N.am    
   2 C2             0.0021    -0.0041     0.0020 C.2     
   3 C3             1.4556    -0.4274    -0.0141 C.3     
   4 C4             2.2175     0.8778    -0.0144 C.ar    
   5 C5             3.5735     1.1767    -0.0261 C.ar    
   6 C6             3.9990     2.5108    -0.0235 C.ar    
   7 C7             3.0210     3.5258    -0.0091 C.ar    
   8 C8             1.6973     3.2171     0.0019 C.ar    
   9 C9             1.2698     1.8850     0.0001 C.ar    
  10 S10            5.0047     0.1507    -0.0454 S.3     
  11 C11            6.0193     1.5226    -0.0483 C.2     
  12 N12            5.3422     2.6076    -0.0361 N.2     
  13 O13           -0.9631    -0.7386     0.0073 O.2     
  14 C14           -1.2431     2.1401     0.0197 C.3     
  15 C15           -1.6565     2.4073     1.4441 C.ar    
  16 C16           -1.1912     3.5332     2.0981 C.ar    
  17 C17           -1.5687     3.7804     3.4038 C.ar    
  18 C18           -2.4155     2.8980     4.0587 C.ar    
  19 C19           -2.8810     1.7691     3.4003 C.ar    
  20 C20           -2.5050     1.5293     2.0928 C.ar    
  21 O21           -2.7879     3.1387     5.3433 O.3     
  22 C22           -3.6617     2.1874     5.9546 C.3     
  23 O23            2.6926    -3.4194     4.6060 O.3     
  24 C24            2.8247    -4.8368     4.4533 C.3     
  25 C25            3.6958    -5.1079     3.2192 C.3     
  26 O26            3.0498    -4.5305     2.0793 O.3     
  27 C27            2.5751    -3.2618     2.2221 C.ar    
  28 C28            2.3950    -2.7081     3.4843 C.ar    
  29 C29            2.2704    -2.5193     1.0916 C.ar    
  30 C30            1.7853    -1.2312     1.2172 C.ar    
  31 C31            1.6023    -0.6777     2.4753 C.ar    
  32 C32            1.9072    -1.4162     3.6085 C.ar    
  33 O33            1.1243     0.5894     2.5977 O.3     
  34 O34            1.7458    -1.1769    -1.1956 O.3     
  35 H35            3.3271     4.5615    -0.0064 H       
  36 H36            0.9654     4.0112     0.0132 H       
  37 H37            7.0984     1.4801    -0.0584 H       
  38 H38           -1.0637     3.0866    -0.4902 H       
  39 H39           -2.0363     1.5958    -0.4928 H       
  40 H40           -0.5318     4.2196     1.5879 H       
  41 H41           -1.2047     4.6597     3.9143 H       
  42 H42           -3.5402     1.0806     3.9080 H       
  43 H43           -2.8709     0.6531     1.5781 H       
  44 H44           -3.8798     2.4985     6.9763 H       
  45 H45           -4.5901     2.1293     5.3865 H       
  46 H46           -3.1816     1.2089     5.9674 H       
  47 H47            3.2999    -5.2592     5.3386 H       
  48 H48            1.8408    -5.2848     4.3144 H       
  49 H49            4.6772    -4.6535     3.3549 H       
  50 H50            3.8045    -6.1828     3.0749 H       
  51 H51            2.4119    -2.9486     0.1107 H       
  52 H52            1.7643    -0.9851     4.5883 H       
  53 H53            0.1603     0.6427     2.6508 H       
  54 H54            1.2382    -1.9960    -1.2764 H       
@<TRIPOS>BOND
   1    1    2 am
   2    1    9 1
   3    1   14 1
   4    2    3 1
   5    2   13 2
   6    3    4 1
   7    3   30 1
   8    3   34 1
   9    4    5 ar
  10    4    9 ar
  11    5    6 ar
  12    5   10 1
  13    6    7 ar
  14    6   12 1
  15    7    8 ar
  16    7   35 1
  17    8    9 ar
  18    8   36 1
  19   10   11 1
  20   11   12 2
  21   11   37 1
  22   14   15 1
  23   14   38 1
  24   14   39 1
  25   15   16 ar
  26   15   20 ar
  27   16   17 ar
  28   16   40 1
  29   17   18 ar
  30   17   41 1
  31   18   19 ar
  32   18   21 1
  33   19   20 ar
  34   19   42 1
  35   20   43 1
  36   21   22 1
  37   22   44 1
  38   22   45 1
  39   22   46 1
  40   23   24 1
  41   23   28 1
  42   24   25 1
  43   24   47 1
  44   24   48 1
  45   25   26 1
  46   25   49 1
  47   25   50 1
  48   26   27 1
  49   27   28 ar
  50   27   29 ar
  51   28   32 ar
  52   29   30 ar
  53   29   51 1
  54   30   31 ar
  55   31   32 ar
  56   31   33 1
  57   32   52 1
  58   33   53 1
  59   34   54 1

#	End of record

