#	Name: ASD03731263
#	Creating user name:	WinNT
#	Creation time:	15. 06. 2019 20:45

#	Modifying user name:	WinNT
#	Modification time:	15. 06. 2019 20:45

#	Program:	/corina/corina34_cracker 3.40 0067  02.08.2006

@<TRIPOS>MOLECULE
ASD03731263
  54   59    0    0    0
SMALL
NO_CHARGES


@<TRIPOS>ATOM
   1 N1            -0.0162     1.3436     0.0094 N.am    
   2 C2             0.0563     0.0126     0.2089 C.2     
   3 O3             1.1403    -0.5293     0.3068 O.2     
   4 N4            -1.0729    -0.7176     0.2999 N.am    
   5 C5            -0.9941    -2.1643     0.5168 C.3     
   6 C6            -2.4070    -2.7480     0.5814 C.3     
   7 O7             2.5560    -7.0754     3.4682 O.3     
   8 C8             3.0273    -8.3614     3.9122 C.3     
   9 O9             1.8639    -8.9654     4.5078 O.3     
  10 C10            0.7939    -8.3998     3.8754 C.ar    
  11 C11            1.2199    -7.2372     3.2372 C.ar    
  12 C12           -0.5306    -8.7899     3.7904 C.ar    
  13 C13           -1.4456    -8.0268     3.0714 C.ar    
  14 C14           -1.0100    -6.8630     2.4451 C.ar    
  15 C15            0.3112    -6.4746     2.5228 C.ar    
  16 O16           -2.7748    -8.2387     2.8507 O.3     
  17 C17           -2.2174    -6.2540     1.7840 C.3     
  18 C18           -3.3892    -7.0052     2.4305 C.3     
  19 N19           -2.3282    -4.1947     0.7983 N.am    
  20 C20           -2.3057    -4.7730     2.0157 C.2     
  21 C21           -2.1984    -6.4230     0.2937 C.ar    
  22 C22           -2.1307    -7.5177    -0.5389 C.ar    
  23 C23           -2.1331    -7.3455    -1.9116 C.ar    
  24 C24           -2.2030    -6.0714    -2.4454 C.ar    
  25 C25           -2.2700    -4.9717    -1.6156 C.ar    
  26 C26           -2.2685    -5.1356    -0.2325 C.ar    
  27 O27           -2.3487    -4.2079     3.0880 O.2     
  28 C28            1.1511     2.1164     0.0123 C.ar    
  29 C29            2.3299     1.5976    -0.5068 C.ar    
  30 C30            3.4802     2.3620    -0.5027 C.ar    
  31 C31            3.4588     3.6438     0.0184 C.ar    
  32 C32            2.2853     4.1631     0.5363 C.ar    
  33 C33            1.1308     3.4050     0.5290 C.ar    
  34 Cl34           4.9066     4.6016     0.0231 Cl      
  35 H35           -0.8768     1.7654    -0.1401 H       
  36 H36           -1.9377    -0.2853     0.2218 H       
  37 H37           -0.4477    -2.6258    -0.3058 H       
  38 H38           -0.4755    -2.3635     1.4545 H       
  39 H39           -2.9534    -2.2865     1.4040 H       
  40 H40           -2.9256    -2.5489    -0.3563 H       
  41 H41            3.3762    -8.9542     3.0667 H       
  42 H42            3.8193    -8.2445     4.6520 H       
  43 H43           -0.8567    -9.6927     4.2855 H       
  44 H44            0.6378    -5.5733     2.0255 H       
  45 H45           -4.1773    -7.1940     1.7016 H       
  46 H46           -3.7767    -6.4542     3.2874 H       
  47 H47           -2.0760    -8.5116    -0.1199 H       
  48 H48           -2.0809    -8.2039    -2.5649 H       
  49 H49           -2.2048    -5.9370    -3.5170 H       
  50 H50           -2.3238    -3.9800    -2.0398 H       
  51 H51            2.3474     0.5970    -0.9130 H       
  52 H52            4.3973     1.9590    -0.9063 H       
  53 H53            2.2712     5.1636     0.9428 H       
  54 H54            0.2141     3.8126     0.9289 H       
@<TRIPOS>BOND
   1    1    2 am
   2    1   28 1
   3    1   35 1
   4    2    3 2
   5    2    4 am
   6    4    5 1
   7    4   36 1
   8    5    6 1
   9    5   37 1
  10    5   38 1
  11    6   19 1
  12    6   39 1
  13    6   40 1
  14    7    8 1
  15    7   11 1
  16    8    9 1
  17    8   41 1
  18    8   42 1
  19    9   10 1
  20   10   11 ar
  21   10   12 ar
  22   11   15 ar
  23   12   13 ar
  24   12   43 1
  25   13   14 ar
  26   13   16 1
  27   14   15 ar
  28   14   17 1
  29   15   44 1
  30   16   18 1
  31   17   18 1
  32   17   20 1
  33   17   21 1
  34   18   45 1
  35   18   46 1
  36   19   20 am
  37   19   26 1
  38   20   27 2
  39   21   22 ar
  40   21   26 ar
  41   22   23 ar
  42   22   47 1
  43   23   24 ar
  44   23   48 1
  45   24   25 ar
  46   24   49 1
  47   25   26 ar
  48   25   50 1
  49   28   29 ar
  50   28   33 ar
  51   29   30 ar
  52   29   51 1
  53   30   31 ar
  54   30   52 1
  55   31   32 ar
  56   31   34 1
  57   32   33 ar
  58   32   53 1
  59   33   54 1

#	End of record

