#	Name: ASD05390011
#	Creating user name:	WinNT
#	Creation time:	15. 06. 2019 20:59

#	Modifying user name:	WinNT
#	Modification time:	15. 06. 2019 20:59

#	Program:	/corina/corina34_cracker 3.40 0067  02.08.2006

@<TRIPOS>MOLECULE
ASD05390011
  19   19    0    0    0
SMALL
NO_CHARGES


@<TRIPOS>ATOM
   1 C1            -0.0168     1.3859     0.0097 C.ar    
   2 C2            -1.2378     3.3443     0.0257 C.ar    
   3 C3            -0.0872     4.1074     0.0240 C.ar    
   4 C4            -2.5820     4.0255     0.0353 C.3     
   5 C5             1.1819     2.0915     0.0020 C.ar    
   6 C6             1.1485     3.4745     0.0093 C.ar    
   7 C7             2.4246     4.2760     0.0009 C.3     
   8 N8            -1.1758     2.0264     0.0187 N.ar    
   9 N9             0.0021    -0.0041     0.0020 N.pl3   
  10 H10           -0.1477     5.1857     0.0298 H       
  11 H11           -2.9014     4.1845     1.0652 H       
  12 H12           -2.5061     4.9863    -0.4740 H       
  13 H13           -3.3108     3.3986    -0.4784 H       
  14 H14            2.1258     1.5668    -0.0091 H       
  15 H15            2.7421     4.4645     1.0265 H       
  16 H16            3.2007     3.7181    -0.5230 H       
  17 H17            2.2540     5.2253    -0.5069 H       
  18 H18            0.8486    -0.4776    -0.0086 H       
  19 H19           -0.8313    -0.5005     0.0073 H       
@<TRIPOS>BOND
   1    1    9 1
   2    1    5 ar
   3    1    8 ar
   4    2    8 ar
   5    2    3 ar
   6    2    4 1
   7    3    6 ar
   8    3   10 1
   9    4   11 1
  10    4   12 1
  11    4   13 1
  12    5   14 1
  13    5    6 ar
  14    6    7 1
  15    7   15 1
  16    7   16 1
  17    7   17 1
  18    9   18 1
  19    9   19 1

#	End of record

