#	Name: ASD00310349
#	Creating user name:	WinNT
#	Creation time:	15. 06. 2019 18:34

#	Modifying user name:	WinNT
#	Modification time:	15. 06. 2019 18:34

#	Program:	/corina/corina34_cracker 3.40 0067  02.08.2006

@<TRIPOS>MOLECULE
ASD00310349
  46   49    0    0    0
SMALL
NO_CHARGES


@<TRIPOS>ATOM
   1 N1            -0.0153     1.2794     0.0091 N.pl3   
   2 N2             0.0021    -0.0041     0.0020 N.2     
   3 C3             1.2292    -0.4800    -0.0123 C.2     
   4 C4             2.1243     0.6858    -0.0145 C.ar    
   5 C5             3.5012     0.8765    -0.0267 C.ar    
   6 C6             4.0085     2.1688    -0.0246 C.ar    
   7 C7             3.1373     3.2656    -0.0099 C.ar    
   8 C8             1.7845     3.0822     0.0020 C.ar    
   9 C9             1.2548     1.7947    -0.0003 C.ar    
  10 C10            1.6260    -1.8977    -0.0229 C.2     
  11 O11            2.8034    -2.1991    -0.0354 O.2     
  12 O12            0.6837    -2.8615    -0.0188 O.3     
  13 C13            5.4758     2.3885    -0.0374 C.ar    
  14 C14            6.0439     3.2632    -0.9615 C.ar    
  15 C15            7.4093     3.4641    -0.9686 C.ar    
  16 C16            8.2136     2.7991    -0.0607 C.ar    
  17 C17            7.6551     1.9297     0.8588 C.ar    
  18 C18            6.2903     1.7252     0.8784 C.ar    
  19 N19           12.3077     2.4469     1.0343 N.3     
  20 C20           11.6710     3.7465     1.2827 C.3     
  21 C21           10.1497     3.5794     1.2810 C.3     
  22 C22            9.7039     3.0223    -0.0737 C.3     
  23 C23           10.4182     1.6923    -0.3299 C.3     
  24 C24           11.9317     1.9142    -0.2815 C.3     
  25 C25           13.7677     2.5422     1.1660 C.3     
  26 Cl26           3.7851     4.8762    -0.0063 Cl      
  27 H27           -0.8235     1.8157     0.0159 H       
  28 H28            4.1694     0.0281    -0.0372 H       
  29 H29            1.1244     3.9369     0.0137 H       
  30 H30            0.9927    -3.7777    -0.0262 H       
  31 H31            5.4169     3.7826    -1.6711 H       
  32 H32            7.8507     4.1415    -1.6846 H       
  33 H33            8.2877     1.4131     1.5654 H       
  34 H34            5.8548     1.0493     1.5994 H       
  35 H35           11.9931     4.1296     2.2510 H       
  36 H36           11.9601     4.4481     0.5003 H       
  37 H37            9.8587     2.8885     2.0722 H       
  38 H38            9.6772     4.5470     1.4499 H       
  39 H39            9.9592     3.7315    -0.8611 H       
  40 H40           10.1314     0.9718     0.4360 H       
  41 H41           10.1375     1.3117    -1.3119 H       
  42 H42           12.2196     2.6244    -1.0566 H       
  43 H43           12.4432     0.9664    -0.4493 H       
  44 H44           14.0210     2.8684     2.1747 H       
  45 H45           14.2141     1.5659     0.9769 H       
  46 H46           14.1513     3.2630     0.4439 H       
@<TRIPOS>BOND
   1    1    2 1
   2    1    9 1
   3    1   27 1
   4    2    3 2
   5    3    4 1
   6    3   10 1
   7    4    5 ar
   8    4    9 ar
   9    5    6 ar
  10    5   28 1
  11    6    7 ar
  12    6   13 1
  13    7    8 ar
  14    7   26 1
  15    8    9 ar
  16    8   29 1
  17   10   11 2
  18   10   12 1
  19   12   30 1
  20   13   14 ar
  21   13   18 ar
  22   14   15 ar
  23   14   31 1
  24   15   16 ar
  25   15   32 1
  26   16   17 ar
  27   16   22 1
  28   17   18 ar
  29   17   33 1
  30   18   34 1
  31   19   20 1
  32   19   24 1
  33   19   25 1
  34   20   21 1
  35   20   35 1
  36   20   36 1
  37   21   22 1
  38   21   37 1
  39   21   38 1
  40   22   23 1
  41   22   39 1
  42   23   24 1
  43   23   40 1
  44   23   41 1
  45   24   42 1
  46   24   43 1
  47   25   44 1
  48   25   45 1
  49   25   46 1

#	End of record

