#	Name: ASD00960198
#	Creating user name:	WinNT
#	Creation time:	15. 06. 2019 18:53

#	Modifying user name:	WinNT
#	Modification time:	15. 06. 2019 18:53

#	Program:	/corina/corina34_cracker 3.40 0067  02.08.2006

@<TRIPOS>MOLECULE
ASD00960198
  32   34    0    0    0
SMALL
NO_CHARGES


@<TRIPOS>ATOM
   1 C1            -0.0168     1.3894     0.0097 C.2     
   2 C2             0.0021    -0.0041     0.0020 C.2     
   3 N3             1.2766     1.8336    -0.0003 N.pl3   
   4 C4             2.1102     0.7447    -0.0141 C.2     
   5 C5             1.3274    -0.4033    -0.0128 C.2     
   6 N6             1.8476     3.1138     0.0004 N.2     
   7 C7             3.1473     3.2505    -0.0119 C.2     
   8 N8             3.9679     2.2045    -0.0253 N.2     
   9 C9             3.5089     0.9652    -0.0262 C.2     
  10 N10            4.3837    -0.1030    -0.0403 N.pl3   
  11 Cl11          -1.3842    -1.0490     0.0101 Cl      
  12 C12           -1.1760     2.2050     0.0198 C.2     
  13 O13           -2.2800     1.6933     0.0229 O.2     
  14 O14           -1.0552     3.5491     0.0260 O.3     
  15 C15           -2.2653     4.3092     0.0361 C.3     
  16 C16           -1.9349     5.7795     0.0419 C.ar    
  17 C17           -1.7896     6.4600    -1.1526 C.ar    
  18 C18           -1.4865     7.8087    -1.1473 C.ar    
  19 C19           -1.3292     8.4770     0.0525 C.ar    
  20 C20           -1.4755     7.7968     1.2470 C.ar    
  21 C21           -1.7828     6.4490     1.2417 C.ar    
  22 H22            1.6874    -1.4215    -0.0214 H       
  23 H23            3.5683     4.2451    -0.0114 H       
  24 H24            5.3408     0.0540    -0.0495 H       
  25 H25            4.0411    -1.0105    -0.0409 H       
  26 H26           -2.8508     4.0718    -0.8521 H       
  27 H27           -2.8416     4.0628     0.9279 H       
  28 H28           -1.9125     5.9378    -2.0899 H       
  29 H29           -1.3723     8.3401    -2.0805 H       
  30 H30           -1.0918     9.5306     0.0566 H       
  31 H31           -1.3522     8.3189     2.1843 H       
  32 H32           -1.9007     5.9184     2.1749 H       
@<TRIPOS>BOND
   1    1    2 2
   2    1    3 1
   3    1   12 1
   4    2   11 1
   5    2    5 1
   6    3    4 1
   7    3    6 1
   8    4    5 2
   9    4    9 1
  10    5   22 1
  11    6    7 2
  12    7    8 1
  13    7   23 1
  14    8    9 2
  15    9   10 1
  16   10   24 1
  17   10   25 1
  18   12   13 2
  19   12   14 1
  20   14   15 1
  21   15   16 1
  22   15   26 1
  23   15   27 1
  24   16   17 ar
  25   16   21 ar
  26   17   18 ar
  27   17   28 1
  28   18   19 ar
  29   18   29 1
  30   19   20 ar
  31   19   30 1
  32   20   21 ar
  33   20   31 1
  34   21   32 1

#	End of record

