#	Name: ASD08150275
#	Creating user name:	WinNT
#	Creation time:	15. 06. 2019 21:15

#	Modifying user name:	WinNT
#	Modification time:	15. 06. 2019 21:15

#	Program:	/corina/corina34_cracker 3.40 0067  02.08.2006

@<TRIPOS>MOLECULE
ASD08150275
  80   82    0    0    0
SMALL
NO_CHARGES


@<TRIPOS>ATOM
   1 C1            -2.4561    -1.0078    -0.7064 C.2     
   2 C2            -1.6886    -2.2631    -0.3805 C.3     
   3 C3            -0.1884    -1.9914    -0.5084 C.3     
   4 C4             0.5939    -3.2267    -0.0579 C.3     
   5 O5            -1.8638     0.0007    -1.0098 O.2     
   6 O6            -3.7977    -1.0115    -0.6650 O.3     
   7 O7             1.9926    -2.9341    -0.0665 O.3     
   8 Si8            2.9270    -4.1445     0.5010 Si      
   9 C9             2.5221    -5.7237    -0.4109 C.ar    
  10 C10            3.5096    -6.3887    -1.1136 C.ar    
  11 C11            3.2099    -7.5573    -1.7884 C.ar    
  12 C12            1.9230    -8.0611    -1.7603 C.ar    
  13 C13            0.9358    -7.3966    -1.0570 C.ar    
  14 C14            1.2364    -6.2303    -0.3785 C.ar    
  15 C15            4.7265    -3.7175     0.2381 C.ar    
  16 C16            5.3178    -3.9424    -0.9910 C.ar    
  17 C17            6.6495    -3.6265    -1.1855 C.ar    
  18 C18            7.3896    -3.0852    -0.1510 C.ar    
  19 C19            6.7981    -2.8594     1.0778 C.ar    
  20 C20            5.4653    -3.1713     1.2710 C.ar    
  21 C21            2.6036    -4.3778     2.3208 C.3     
  22 C22            1.3016    -5.1585     2.5114 C.3     
  23 C23            3.7615    -5.1561     2.9489 C.3     
  24 C24            2.4820    -3.0106     2.9966 C.3     
  25 N25            0.1361    -1.6904    -1.9049 N.am    
  26 C26           -0.1129    -2.6018    -2.8661 C.2     
  27 O27           -0.6064    -3.6731    -2.5743 O.2     
  28 O28            0.1853    -2.3251    -4.1496 O.3     
  29 C29           -0.1101    -3.3533    -5.1313 C.3     
  30 C30           -1.6091    -3.6592    -5.1142 C.3     
  31 C31            0.2942    -2.8614    -6.5225 C.3     
  32 C32            0.6734    -4.6229    -4.7917 C.3     
  33 C33           -4.4708     0.2331    -0.9908 C.3     
  34 C34           -5.9619     0.0387    -0.8918 C.ar    
  35 C35           -6.6111     0.2701     0.3065 C.ar    
  36 C36           -7.9788     0.0917     0.3973 C.ar    
  37 C37           -8.6975    -0.3177    -0.7104 C.ar    
  38 C38           -8.0484    -0.5482    -1.9089 C.ar    
  39 C39           -6.6813    -0.3656    -2.0008 C.ar    
  40 H40           -1.9160    -2.5735     0.6394 H       
  41 H41           -1.9749    -3.0542    -1.0734 H       
  42 H42            0.0817    -1.1417     0.1187 H       
  43 H43            0.2867    -3.5034     0.9507 H       
  44 H44            0.3914    -4.0533    -0.7390 H       
  45 H45            4.5150    -5.9950    -1.1355 H       
  46 H46            3.9812    -8.0765    -2.3379 H       
  47 H47            1.6887    -8.9737    -2.2882 H       
  48 H48           -0.0698    -7.7900    -1.0353 H       
  49 H49            0.4660    -5.7131     0.1740 H       
  50 H50            4.7395    -4.3653    -1.7991 H       
  51 H51            7.1116    -3.8029    -2.1455 H       
  52 H52            8.4302    -2.8391    -0.3028 H       
  53 H53            7.3764    -2.4368     1.8860 H       
  54 H54            5.0021    -2.9915     2.2299 H       
  55 H55            1.3528    -6.0925     1.9518 H       
  56 H56            1.1602    -5.3764     3.5700 H       
  57 H57            0.4642    -4.5627     2.1481 H       
  58 H58            4.6678    -4.5516     2.9121 H       
  59 H59            3.5221    -5.3891     3.9864 H       
  60 H60            3.9194    -6.0819     2.3957 H       
  61 H61            1.6015    -2.4937     2.6151 H       
  62 H62            2.3861    -3.1451     4.0740 H       
  63 H63            3.3720    -2.4189     2.7822 H       
  64 H64            0.5300    -0.8351    -2.1378 H       
  65 H65           -2.1672    -2.7548    -5.3562 H       
  66 H66           -1.8308    -4.4311    -5.8512 H       
  67 H67           -1.8971    -4.0097    -4.1231 H       
  68 H68            1.3622    -2.6434    -6.5347 H       
  69 H69            0.0725    -3.6333    -7.2595 H       
  70 H70           -0.2639    -1.9569    -6.7644 H       
  71 H71            0.3854    -4.9734    -3.8006 H       
  72 H72            0.4517    -5.3948    -5.5287 H       
  73 H73            1.7413    -4.4049    -4.8038 H       
  74 H74           -4.1583     1.0089    -0.2917 H       
  75 H75           -4.2099     0.5323    -2.0059 H       
  76 H76           -6.0496     0.5899     1.1719 H       
  77 H77           -8.4859     0.2718     1.3336 H       
  78 H78           -9.7660    -0.4577    -0.6393 H       
  79 H79           -8.6099    -0.8683    -2.7742 H       
  80 H80           -6.1747    -0.5421    -2.9382 H       
@<TRIPOS>BOND
   1    1    2 1
   2    1    5 2
   3    1    6 1
   4    2    3 1
   5    2   40 1
   6    2   41 1
   7    3    4 1
   8    3   25 1
   9    3   42 1
  10    4    7 1
  11    4   43 1
  12    4   44 1
  13    6   33 1
  14    7    8 1
  15    8    9 1
  16    8   15 1
  17    8   21 1
  18    9   10 ar
  19    9   14 ar
  20   10   11 ar
  21   10   45 1
  22   11   12 ar
  23   11   46 1
  24   12   13 ar
  25   12   47 1
  26   13   14 ar
  27   13   48 1
  28   14   49 1
  29   15   16 ar
  30   15   20 ar
  31   16   17 ar
  32   16   50 1
  33   17   18 ar
  34   17   51 1
  35   18   19 ar
  36   18   52 1
  37   19   20 ar
  38   19   53 1
  39   20   54 1
  40   21   22 1
  41   21   24 1
  42   21   23 1
  43   22   55 1
  44   22   56 1
  45   22   57 1
  46   23   58 1
  47   23   59 1
  48   23   60 1
  49   24   61 1
  50   24   62 1
  51   24   63 1
  52   25   26 am
  53   25   64 1
  54   26   27 2
  55   26   28 1
  56   28   29 1
  57   29   30 1
  58   29   32 1
  59   29   31 1
  60   30   65 1
  61   30   66 1
  62   30   67 1
  63   31   68 1
  64   31   69 1
  65   31   70 1
  66   32   71 1
  67   32   72 1
  68   32   73 1
  69   33   34 1
  70   33   74 1
  71   33   75 1
  72   34   35 ar
  73   34   39 ar
  74   35   36 ar
  75   35   76 1
  76   36   37 ar
  77   36   77 1
  78   37   38 ar
  79   37   78 1
  80   38   39 ar
  81   38   79 1
  82   39   80 1

#	End of record

