#	Name: ASD02560538
#	Creating user name:	WinNT
#	Creation time:	15. 06. 2019 20:25

#	Modifying user name:	WinNT
#	Modification time:	15. 06. 2019 20:25

#	Program:	/corina/corina34_cracker 3.40 0067  02.08.2006

@<TRIPOS>MOLECULE
ASD02560538
  51   54    0    0    0
SMALL
NO_CHARGES


@<TRIPOS>ATOM
   1 N1            -0.0190     1.2805     0.0819 N.2     
   2 N2            -0.0010    -0.0042     0.0569 N.2     
   3 C3             1.1979     1.7477     0.0504 C.2     
   4 N4             2.0454     0.6720     0.0020 N.pl3   
   5 C5             1.2382    -0.4338     0.0078 C.2     
   6 S6             1.7635    -2.1150    -0.0415 S.3     
   7 C7             0.1567    -2.9474    -0.0040 C.3     
   8 C8             0.3632    -4.4398    -0.0391 C.2     
   9 O9             1.4861    -4.8957    -0.0849 O.2     
  10 N10           -0.7000    -5.2679    -0.0195 N.am    
  11 C11            3.4442     0.6983    -0.0443 C.ar    
  12 Br12           1.6998     3.5708     0.0683 Br      
  13 C13            4.1782     0.6887     1.1213 C.ar    
  14 C14            5.5694     0.7141     1.0866 C.ar    
  15 C15            6.2424     0.7497    -0.0964 C.ar    
  16 C16            5.5308     0.7606    -1.3079 C.ar    
  17 C17            4.1145     0.7291    -1.2849 C.ar    
  18 C18            6.1984     0.7965    -2.5445 C.ar    
  19 C19            5.4778     0.8058    -3.6989 C.ar    
  20 C20            4.0847     0.7806    -3.6751 C.ar    
  21 C21            3.4049     0.7392    -2.4962 C.ar    
  22 C22            7.7491     0.7777    -0.1064 C.3     
  23 C23           -0.5133    -6.6452    -0.1340 C.ar    
  24 C24           -1.5322    -7.4442    -0.6469 C.ar    
  25 C25           -1.3505    -8.8046    -0.7615 C.ar    
  26 C26           -0.1415    -9.3826    -0.3622 C.ar    
  27 C27            0.8785    -8.5771     0.1520 C.ar    
  28 C28            0.6922    -7.2170     0.2590 C.ar    
  29 C29            0.0567   -10.8389    -0.4829 C.2     
  30 O30           -0.8310   -11.5379    -0.9297 O.2     
  31 O31            1.2224   -11.3944    -0.0976 O.3     
  32 Cl32          -3.0327    -6.7248    -1.1416 Cl      
  33 C33            8.2316     2.2262    -0.2074 C.3     
  34 H34           -0.3723    -2.6752     0.9093 H       
  35 H35           -0.4312    -2.6416    -0.8694 H       
  36 H36           -1.5950    -4.9059     0.0741 H       
  37 H37            3.6683     0.6613     2.0729 H       
  38 H38            6.1240     0.7059     2.0133 H       
  39 H39            7.2777     0.8171    -2.5782 H       
  40 H40            5.9932     0.8334    -4.6476 H       
  41 H41            3.5363     0.7894    -4.6055 H       
  42 H42            2.3251     0.7198    -2.4928 H       
  43 H43            8.1270     0.3323     0.8139 H       
  44 H44            8.1174     0.2116    -0.9619 H       
  45 H45           -2.1409    -9.4241    -1.1589 H       
  46 H46            1.8133    -9.0206     0.4616 H       
  47 H47            1.4802    -6.5944     0.6563 H       
  48 H48            1.3056   -12.3528    -0.1957 H       
  49 H49            7.8538     2.6716    -1.1277 H       
  50 H50            7.8633     2.7923     0.6481 H       
  51 H51            9.3214     2.2465    -0.2147 H       
@<TRIPOS>BOND
   1    1    2 1
   2    1    3 2
   3    2    5 2
   4    3    4 1
   5    3   12 1
   6    4    5 1
   7    4   11 1
   8    5    6 1
   9    6    7 1
  10    7    8 1
  11    7   34 1
  12    7   35 1
  13    8    9 2
  14    8   10 am
  15   10   23 1
  16   10   36 1
  17   11   13 ar
  18   11   17 ar
  19   13   14 ar
  20   13   37 1
  21   14   15 ar
  22   14   38 1
  23   15   16 ar
  24   15   22 1
  25   16   17 ar
  26   16   18 ar
  27   17   21 ar
  28   18   19 ar
  29   18   39 1
  30   19   20 ar
  31   19   40 1
  32   20   21 ar
  33   20   41 1
  34   21   42 1
  35   22   33 1
  36   22   43 1
  37   22   44 1
  38   23   24 ar
  39   23   28 ar
  40   24   25 ar
  41   24   32 1
  42   25   26 ar
  43   25   45 1
  44   26   27 ar
  45   26   29 1
  46   27   28 ar
  47   27   46 1
  48   28   47 1
  49   29   30 2
  50   29   31 1
  51   31   48 1
  52   33   49 1
  53   33   50 1
  54   33   51 1

#	End of record

