#	Name: ASD01915626
#	Creating user name:	WinNT
#	Creation time:	15. 06. 2019 20:05

#	Modifying user name:	WinNT
#	Modification time:	15. 06. 2019 20:05

#	Program:	/corina/corina34_cracker 3.40 0067  02.08.2006

@<TRIPOS>MOLECULE
ASD01915626
  47   50    0    0    0
SMALL
NO_CHARGES


@<TRIPOS>ATOM
   1 C1            -0.0166     1.3729     0.0096 C.2     
   2 N2             0.0021    -0.0041     0.0020 N.pl3   
   3 C3            -1.2433    -0.7807    -0.0179 C.3     
   4 C4            -2.3411     0.0068     0.6954 C.3     
   5 N5            -2.4042     1.3989     0.2636 N.am    
   6 C6            -1.2810     2.1228     0.0392 C.2     
   7 C7             1.2847     1.7904    -0.0006 C.2     
   8 C8             2.0437     0.6125    -0.0024 C.2     
   9 N9             1.2133    -0.4042     0.0045 N.2     
  10 C10            3.5483     0.5278    -0.0102 C.3     
  11 O11            4.0996     1.8461    -0.0157 O.3     
  12 C12            5.4547     1.9482    -0.0231 C.ar    
  13 O13           -1.3168     3.3269    -0.1285 O.2     
  14 C14            6.0574     3.1977    -0.0288 C.ar    
  15 C15            6.2378     0.8030    -0.0194 C.ar    
  16 C16            7.6151     0.9094    -0.0270 C.ar    
  17 C17            8.2133     2.1559    -0.0383 C.ar    
  18 C18            7.4351     3.2988    -0.0363 C.ar    
  19 C19           -3.6436     1.9956     0.0784 C.ar    
  20 N20           -3.6989     3.2590    -0.3135 N.ar    
  21 C21           -4.8679     3.8626    -0.5013 C.ar    
  22 C22           -6.0410     3.1496    -0.2808 C.ar    
  23 C23           -5.9434     1.8249     0.1301 C.ar    
  24 N24           -4.7399     1.2850     0.2929 N.ar    
  25 O25           -4.9159     5.1565    -0.9022 O.3     
  26 C26           -3.6665     5.8191    -1.1065 C.3     
  27 O27           -7.0609     1.0922     0.3567 O.3     
  28 C28           -6.8754    -0.2611     0.7765 C.3     
  29 H29           -1.5404    -0.9656    -1.0502 H       
  30 H30           -1.0875    -1.7313     0.4923 H       
  31 H31           -3.3017    -0.4679     0.4954 H       
  32 H32           -2.1536    -0.0208     1.7688 H       
  33 H33            1.6488     2.8072    -0.0064 H       
  34 H34            3.8869    -0.0040     0.8790 H       
  35 H35            3.8774    -0.0074    -0.9010 H       
  36 H36            5.4500     4.0908    -0.0276 H       
  37 H37            5.7710    -0.1709    -0.0102 H       
  38 H38            8.2251     0.0182    -0.0237 H       
  39 H39            9.2902     2.2370    -0.0443 H       
  40 H40            7.9048     4.2713    -0.0456 H       
  41 H41           -7.0054     3.6139    -0.4250 H       
  42 H42           -3.1001     5.8219    -0.1753 H       
  43 H43           -3.0988     5.2952    -1.8755 H       
  44 H44           -3.8475     6.8458    -1.4247 H       
  45 H45           -6.3182    -0.8050     0.0137 H       
  46 H46           -6.3192    -0.2777     1.7138 H       
  47 H47           -7.8471    -0.7327     0.9223 H       
@<TRIPOS>BOND
   1    1    2 1
   2    1    7 2
   3    1    6 1
   4    2    3 1
   5    2    9 1
   6    3    4 1
   7    3   29 1
   8    3   30 1
   9    4    5 1
  10    4   31 1
  11    4   32 1
  12    5    6 am
  13    5   19 1
  14    6   13 2
  15    7    8 1
  16    7   33 1
  17    8    9 2
  18    8   10 1
  19   10   11 1
  20   10   34 1
  21   10   35 1
  22   11   12 1
  23   12   14 ar
  24   12   15 ar
  25   14   18 ar
  26   14   36 1
  27   15   16 ar
  28   15   37 1
  29   16   17 ar
  30   16   38 1
  31   17   18 ar
  32   17   39 1
  33   18   40 1
  34   19   20 ar
  35   19   24 ar
  36   20   21 ar
  37   21   22 ar
  38   21   25 1
  39   22   23 ar
  40   22   41 1
  41   23   24 ar
  42   23   27 1
  43   25   26 1
  44   26   42 1
  45   26   43 1
  46   26   44 1
  47   27   28 1
  48   28   45 1
  49   28   46 1
  50   28   47 1

#	End of record

