#	Name: ASD01912507
#	Creating user name:	WinNT
#	Creation time:	15. 06. 2019 19:59

#	Modifying user name:	WinNT
#	Modification time:	15. 06. 2019 19:59

#	Program:	/corina/corina34_cracker 3.40 0067  02.08.2006

@<TRIPOS>MOLECULE
ASD01912507
  45   49    0    0    0
SMALL
NO_CHARGES


@<TRIPOS>ATOM
   1 N1             0.0357     1.1245     0.0668 N.2     
   2 C2             0.0897    -0.1817     0.0392 C.2     
   3 N3             1.3966    -0.5266     0.0018 N.2     
   4 C4             2.0590     0.6034     0.0092 C.2     
   5 O5             1.1563     1.5884     0.0501 O.3     
   6 C6            -1.0670    -1.1117     0.0478 C.ar    
   7 C7            -2.3665    -0.6108     0.0881 C.ar    
   8 C8            -0.8574    -2.4886     0.0097 C.ar    
   9 C9            -1.9367    -3.3489     0.0175 C.ar    
  10 C10           -3.2246    -2.8463     0.0624 C.ar    
  11 C11           -3.4385    -1.4801     0.0954 C.ar    
  12 C12            3.5572     0.7629    -0.0217 C.3     
  13 C13            4.0713     1.5533    -1.2386 C.3     
  14 N14            4.9860     2.2208    -0.2922 N.am    
  15 C15            4.0733     1.9355     0.8319 C.3     
  16 C16            6.1767     2.8416    -0.4080 C.2     
  17 C17            6.8436     3.4256     0.8107 C.3     
  18 O18            6.7114     2.9303    -1.4929 O.2     
  19 C19            7.6281     2.3212     1.5828 C.3     
  20 C20            8.4621     1.5944     0.4839 C.3     
  21 C21            9.5401     2.6214     0.0683 C.3     
  22 C22            9.2559     3.8720     0.9551 C.3     
  23 C23            7.9216     4.4526     0.3951 C.3     
  24 C24            8.7440     3.1848     2.2701 C.3     
  25 H25           -2.5347     0.4557     0.1139 H       
  26 H26            0.1478    -2.8820    -0.0261 H       
  27 H27           -1.7753    -4.4163    -0.0120 H       
  28 H28           -4.0663    -3.5230     0.0679 H       
  29 H29           -4.4462    -1.0930     0.1305 H       
  30 H30            4.0879    -0.1737     0.1494 H       
  31 H31            4.5795     0.9368    -1.9801 H       
  32 H32            3.3279     2.2201    -1.6755 H       
  33 H33            3.3305     2.7145     1.0033 H       
  34 H34            4.5832     1.6241     1.7436 H       
  35 H35            6.1035     3.8913     1.4615 H       
  36 H36            7.0326     1.6791     2.2317 H       
  37 H37            8.9287     0.6978     0.8919 H       
  38 H38            7.8302     1.3412    -0.3674 H       
  39 H39           10.5367     2.2297     0.2719 H       
  40 H40            9.4382     2.8730    -0.9874 H       
  41 H41           10.0780     4.5804     1.0574 H       
  42 H42            7.9692     4.5351    -0.6908 H       
  43 H43            7.7128     5.4246     0.8421 H       
  44 H44            8.3276     3.9064     2.9730 H       
  45 H45            9.5123     2.5661     2.7338 H       
@<TRIPOS>BOND
   1    1    2 2
   2    1    5 1
   3    2    3 1
   4    2    6 1
   5    3    4 2
   6    4    5 1
   7    4   12 1
   8    6    7 ar
   9    6    8 ar
  10    7   11 ar
  11    7   25 1
  12    8    9 ar
  13    8   26 1
  14    9   10 ar
  15    9   27 1
  16   10   11 ar
  17   10   28 1
  18   11   29 1
  19   12   13 1
  20   12   15 1
  21   12   30 1
  22   13   14 1
  23   13   31 1
  24   13   32 1
  25   14   15 1
  26   14   16 am
  27   15   33 1
  28   15   34 1
  29   16   18 2
  30   16   17 1
  31   17   19 1
  32   17   23 1
  33   17   35 1
  34   19   20 1
  35   19   24 1
  36   19   36 1
  37   20   21 1
  38   20   37 1
  39   20   38 1
  40   21   22 1
  41   21   39 1
  42   21   40 1
  43   22   23 1
  44   22   24 1
  45   22   41 1
  46   23   42 1
  47   23   43 1
  48   24   44 1
  49   24   45 1

#	End of record

