#	Name: ASD02398025
#	Creating user name:	WinNT
#	Creation time:	15. 06. 2019 20:20

#	Modifying user name:	WinNT
#	Modification time:	15. 06. 2019 20:20

#	Program:	/corina/corina34_cracker 3.40 0067  02.08.2006

@<TRIPOS>MOLECULE
ASD02398025
  66   69    0    0    0
SMALL
NO_CHARGES


@<TRIPOS>ATOM
   1 C1             1.2856     2.1317    -1.0755 C.ar    
   2 C2             0.7497     0.8401    -1.0630 C.ar    
   3 C3            -0.6236     0.6614    -1.2091 C.ar    
   4 C4            -1.4481     1.7576    -1.3653 C.ar    
   5 C5            -0.9151     3.0342    -1.3774 C.ar    
   6 C6             0.4460     3.2231    -1.2279 C.ar    
   7 C7            -2.9341     1.5629    -1.5239 C.3     
   8 C8            -3.5807     1.5024    -0.1640 C.2     
   9 O9            -2.8959     1.5109     0.8315 O.2     
  10 O10           -4.9173     1.4391    -0.0586 O.3     
  11 C11            1.6401    -0.3342    -0.8952 C.ar    
  12 C12            2.3041    -0.5418     0.3126 C.ar    
  13 C13            1.8114    -1.2372    -1.9426 C.ar    
  14 C14            2.6409    -2.3286    -1.7807 C.ar    
  15 C15            3.3013    -2.5267    -0.5819 C.ar    
  16 C16            3.1309    -1.6363     0.4632 C.ar    
  17 C17            2.1198     0.4275     1.4517 C.3     
  18 N18            1.9156    -0.3160     2.6974 N.am    
  19 C19            2.8863    -0.8084     3.4791 C.2     
  20 O20            2.4351    -1.4484     4.5637 O.3     
  21 C21            0.9784    -1.4195     4.5739 C.3     
  22 C22            0.6119    -0.6382     3.2974 C.3     
  23 O23            4.0683    -0.6853     3.2257 O.2     
  24 C24           -0.2072    -1.5145     2.3476 C.3     
  25 C25            0.4219    -2.8190     4.5203 C.ar    
  26 C26           -0.7745    -3.1115     5.1479 C.ar    
  27 C27            1.1050    -3.8088     3.8388 C.ar    
  28 C28            0.5945    -5.0925     3.7896 C.ar    
  29 C29           -0.5989    -5.3865     4.4223 C.ar    
  30 C30           -1.2850    -4.3952     5.0987 C.ar    
  31 O31            2.6239     2.3159    -0.9332 O.3     
  32 C32            3.0994     3.6632    -0.9559 C.3     
  33 C33            1.3387    -6.1713     3.0457 C.3     
  34 F34            2.2283    -6.8096     3.9167 F       
  35 F35            0.4266    -7.1057     2.5436 F       
  36 F36            2.0521    -5.6003     1.9864 F       
  37 C37           -2.5860    -4.7157     5.7884 C.3     
  38 F38           -2.9528    -6.0351     5.5024 F       
  39 F39           -2.4309    -4.5639     7.1705 F       
  40 F40           -3.5822    -3.8455     5.3327 F       
  41 C41            4.2052    -3.7205    -0.4111 C.3     
  42 F42            4.2129    -4.4721    -1.5910 F       
  43 F43            5.5040    -3.2851    -0.1270 F       
  44 F44            3.7377    -4.5123     0.6432 F       
  45 H45           -1.0432    -0.3337    -1.2005 H       
  46 H46           -1.5660     3.8873    -1.5000 H       
  47 H47            0.8563     4.2221    -1.2381 H       
  48 H48           -3.3517     2.3968    -2.0880 H       
  49 H49           -3.1235     0.6318    -2.0580 H       
  50 H50           -5.2897     1.4771     0.8330 H       
  51 H51            1.2959    -1.0836    -2.8791 H       
  52 H52            2.7741    -3.0293    -2.5917 H       
  53 H53            3.6491    -1.7959     1.3972 H       
  54 H54            3.0075     1.0533     1.5434 H       
  55 H55            1.2508     1.0559     1.2570 H       
  56 H56            0.6129    -0.8955     5.4570 H       
  57 H57            0.0653     0.2708     3.5485 H       
  58 H58           -1.1093    -1.8560     2.8553 H       
  59 H59           -0.4834    -0.9355     1.4663 H       
  60 H60            0.3875    -2.3762     2.0444 H       
  61 H61           -1.3103    -2.3372     5.6769 H       
  62 H62            2.0374    -3.5791     3.3444 H       
  63 H63           -0.9979    -6.3893     4.3835 H       
  64 H64            2.8401     4.1241    -1.9090 H       
  65 H65            2.6385     4.2249    -0.1434 H       
  66 H66            4.1824     3.6685    -0.8325 H       
@<TRIPOS>BOND
   1    1    2 ar
   2    1   31 1
   3    1    6 ar
   4    2    3 ar
   5    2   11 1
   6    3    4 ar
   7    3   45 1
   8    4    5 ar
   9    4    7 1
  10    5    6 ar
  11    5   46 1
  12    6   47 1
  13    7    8 1
  14    7   48 1
  15    7   49 1
  16    8    9 2
  17    8   10 1
  18   10   50 1
  19   11   12 ar
  20   11   13 ar
  21   12   17 1
  22   12   16 ar
  23   13   14 ar
  24   13   51 1
  25   14   15 ar
  26   14   52 1
  27   15   16 ar
  28   15   41 1
  29   16   53 1
  30   17   18 1
  31   17   54 1
  32   17   55 1
  33   18   19 am
  34   18   22 1
  35   19   20 1
  36   19   23 2
  37   20   21 1
  38   21   22 1
  39   21   25 1
  40   21   56 1
  41   22   24 1
  42   22   57 1
  43   24   58 1
  44   24   59 1
  45   24   60 1
  46   25   26 ar
  47   25   27 ar
  48   26   30 ar
  49   26   61 1
  50   27   28 ar
  51   27   62 1
  52   28   29 ar
  53   28   33 1
  54   29   30 ar
  55   29   63 1
  56   30   37 1
  57   31   32 1
  58   32   64 1
  59   32   65 1
  60   32   66 1
  61   33   34 1
  62   33   35 1
  63   33   36 1
  64   37   38 1
  65   37   39 1
  66   37   40 1
  67   41   42 1
  68   41   43 1
  69   41   44 1

#	End of record

