#	Name: ASD01813697
#	Creating user name:	WinNT
#	Creation time:	15. 06. 2019 19:30

#	Modifying user name:	WinNT
#	Modification time:	15. 06. 2019 19:30

#	Program:	/corina/corina34_cracker 3.40 0067  02.08.2006

@<TRIPOS>MOLECULE
ASD01813697
  45   48    0    0    0
SMALL
NO_CHARGES


@<TRIPOS>ATOM
   1 C1             7.0968     0.4203     1.5188 C.ar    
   2 C2             7.0284    -0.6128     0.5998 C.ar    
   3 C3             5.8376    -0.9102    -0.0381 C.ar    
   4 C4             4.6973    -0.1675     0.2441 C.ar    
   5 C5             4.7724     0.8789     1.1738 C.ar    
   6 C6             5.9722     1.1689     1.8093 C.ar    
   7 N7             3.4883    -0.4524    -0.3791 N.pl3   
   8 C8             2.4414     0.4090    -0.3512 C.2     
   9 C9             2.3970     1.4590     0.5170 C.2     
  10 C10            3.5404     1.6610     1.4495 C.2     
  11 C11            3.4618     2.5087     2.4869 C.2     
  12 C12            1.2493     2.3692     0.5323 C.2     
  13 O13            1.2760     3.4755     1.3038 O.3     
  14 O14            0.2722     2.1275    -0.1507 O.2     
  15 C15            3.3402    -1.7249    -1.0899 C.3     
  16 C16            3.6053    -1.5138    -2.5583 C.ar    
  17 N17            4.8360    -1.6493    -3.0110 N.ar    
  18 C18            5.1125    -1.4731    -4.2916 C.ar    
  19 C19            4.0764    -1.1388    -5.1675 C.ar    
  20 C20            2.7877    -1.0056    -4.6441 C.ar    
  21 N21            2.5984    -1.2047    -3.3510 N.ar    
  22 F22            5.7834    -1.9201    -0.9338 F       
  23 C23            4.3374    -0.9306    -6.6128 C.ar    
  24 C24            5.3672    -0.0877    -7.0232 C.ar    
  25 C25            5.6062     0.1029    -8.3695 C.ar    
  26 C26            4.8257    -0.5403    -9.3135 C.ar    
  27 C27            3.8008    -1.3787    -8.9170 C.ar    
  28 C28            3.5543    -1.5842    -7.5692 C.ar    
  29 O29            2.5473    -2.4079    -7.1783 O.3     
  30 H30            8.0314     0.6391     2.0139 H       
  31 H31            7.9129    -1.1916     0.3787 H       
  32 H32            6.0261     1.9744     2.5266 H       
  33 H33            1.6199     0.2591    -1.0361 H       
  34 H34            2.5245     2.9926     2.7190 H       
  35 H35            4.3357     2.7071     3.0896 H       
  36 H36            0.4954     4.0458     1.2808 H       
  37 H37            4.0523    -2.4481    -0.6924 H       
  38 H38            2.3262    -2.1010    -0.9541 H       
  39 H39            6.1233    -1.5855    -4.6551 H       
  40 H40            1.9586    -0.7479    -5.2866 H       
  41 H41            5.9780     0.4166    -6.2891 H       
  42 H42            6.4050     0.7567    -8.6869 H       
  43 H43            5.0180    -0.3864   -10.3650 H       
  44 H44            3.1946    -1.8778    -9.6585 H       
  45 H45            2.8145    -3.3306    -7.0672 H       
@<TRIPOS>BOND
   1    1    2 ar
   2    1    6 ar
   3    1   30 1
   4    2    3 ar
   5    2   31 1
   6    3    4 ar
   7    3   22 1
   8    4    5 ar
   9    4    7 1
  10    5    6 ar
  11    5   10 1
  12    6   32 1
  13    7    8 1
  14    7   15 1
  15    8    9 2
  16    8   33 1
  17    9   10 1
  18    9   12 1
  19   10   11 2
  20   11   34 1
  21   11   35 1
  22   12   13 1
  23   12   14 2
  24   13   36 1
  25   15   16 1
  26   15   37 1
  27   15   38 1
  28   16   17 ar
  29   16   21 ar
  30   17   18 ar
  31   18   19 ar
  32   18   39 1
  33   19   20 ar
  34   19   23 1
  35   20   21 ar
  36   20   40 1
  37   23   24 ar
  38   23   28 ar
  39   24   25 ar
  40   24   41 1
  41   25   26 ar
  42   25   42 1
  43   26   27 ar
  44   26   43 1
  45   27   28 ar
  46   27   44 1
  47   28   29 1
  48   29   45 1

#	End of record

