#	Name: ASD02562064
#	Creating user name:	WinNT
#	Creation time:	15. 06. 2019 20:25

#	Modifying user name:	WinNT
#	Modification time:	15. 06. 2019 20:25

#	Program:	/corina/corina34_cracker 3.40 0067  02.08.2006

@<TRIPOS>MOLECULE
ASD02562064
  43   46    0    0    0
SMALL
NO_CHARGES


@<TRIPOS>ATOM
   1 C1             0.1551     1.3718     1.2139 C.2     
   2 C2             0.1698    -0.0336     1.1612 C.2     
   3 C3             1.2938    -0.6903     0.8113 C.2     
   4 N4             2.4360    -0.0014     0.5026 N.pl3   
   5 C5             2.4516     1.3741     0.5449 C.2     
   6 C6             1.2803     2.0712     0.9099 C.2     
   7 C7             3.6846    -0.4111     0.1245 C.2     
   8 C8             4.4404     0.7280    -0.0570 C.2     
   9 N9             3.6603     1.7922     0.2068 N.2     
  10 N10            4.1120    -1.7286    -0.0446 N.3     
  11 C11            5.8628     0.7723    -0.4701 C.ar    
  12 C12            2.9887    -2.6668     0.0814 C.3     
  13 C13            3.3289    -3.9702    -0.6441 C.3     
  14 C14            2.1589    -4.9473    -0.5128 C.3     
  15 C15            1.9018    -5.2393     0.9669 C.3     
  16 C16            1.5616    -3.9360     1.6923 C.3     
  17 C17            2.7316    -2.9588     1.5611 C.3     
  18 C18            6.5112     1.9991    -0.6174 C.ar    
  19 C19            7.8370     2.0347    -1.0027 C.ar    
  20 C20            8.5223     0.8565    -1.2428 C.ar    
  21 C21            7.8832    -0.3647    -1.0981 C.ar    
  22 C22            6.5596    -0.4119    -0.7077 C.ar    
  23 Cl23           5.6530     3.4779    -0.3173 Cl      
  24 Cl24          10.1885     0.9085    -1.7274 Cl      
  25 Cl25           8.7501    -1.8377    -1.4017 Cl      
  26 H26           -0.7489     1.8938     1.4908 H       
  27 H27           -0.7240    -0.5895     1.4027 H       
  28 H28            1.2935    -1.7697     0.7746 H       
  29 H29            1.2778     3.1506     0.9475 H       
  30 H30            4.5831    -1.8452    -0.9292 H       
  31 H31            2.0959    -2.2263    -0.3625 H       
  32 H32            3.5121    -3.7621    -1.6982 H       
  33 H33            4.2217    -4.4107    -0.2002 H       
  34 H34            1.2661    -4.5068    -0.9567 H       
  35 H35            2.4013    -5.8759    -1.0297 H       
  36 H36            1.0683    -5.9355     1.0603 H       
  37 H37            2.7946    -5.6798     1.4107 H       
  38 H38            0.6688    -3.4954     1.2485 H       
  39 H39            1.3784    -4.1440     2.7465 H       
  40 H40            3.6244    -3.3993     2.0050 H       
  41 H41            2.4892    -2.0303     2.0779 H       
  42 H42            8.3398     2.9836    -1.1173 H       
  43 H43            6.0625    -1.3641    -0.5952 H       
@<TRIPOS>BOND
   1    1    2 1
   2    1    6 2
   3    1   26 1
   4    2    3 2
   5    2   27 1
   6    3    4 1
   7    3   28 1
   8    4    5 1
   9    4    7 1
  10    5    6 1
  11    5    9 2
  12    6   29 1
  13    7    8 2
  14    7   10 1
  15    8    9 1
  16    8   11 1
  17   10   12 1
  18   10   30 1
  19   11   18 ar
  20   11   22 ar
  21   12   13 1
  22   12   17 1
  23   12   31 1
  24   13   14 1
  25   13   32 1
  26   13   33 1
  27   14   15 1
  28   14   34 1
  29   14   35 1
  30   15   16 1
  31   15   36 1
  32   15   37 1
  33   16   17 1
  34   16   38 1
  35   16   39 1
  36   17   40 1
  37   17   41 1
  38   18   19 ar
  39   18   23 1
  40   19   20 ar
  41   19   42 1
  42   20   21 ar
  43   20   24 1
  44   21   22 ar
  45   21   25 1
  46   22   43 1

#	End of record

