#	Name: ASD05740221
#	Creating user name:	WinNT
#	Creation time:	15. 06. 2019 21:03

#	Modifying user name:	WinNT
#	Modification time:	15. 06. 2019 21:03

#	Program:	/corina/corina34_cracker 3.40 0067  02.08.2006

@<TRIPOS>MOLECULE
ASD05740221
  62   67    0    0    0
SMALL
NO_CHARGES


@<TRIPOS>ATOM
   1 C1             0.3037    -1.3246    -3.7250 C.3     
   2 N2            -0.1466    -0.4012    -2.6742 N.3     
   3 C3            -1.4149    -0.7606    -2.1996 C.ar    
   4 C4            -1.6130    -2.0080    -1.6250 C.ar    
   5 C5            -2.8636    -2.3628    -1.1570 C.ar    
   6 C6            -3.9230    -1.4718    -1.2612 C.ar    
   7 C7            -3.7265    -0.2228    -1.8366 C.ar    
   8 C8            -2.4745     0.1350    -2.2993 C.ar    
   9 N9            -5.1904    -1.8324    -0.7864 N.pl3   
  10 C10           -5.3065    -2.6307     0.3347 C.ar    
  11 N11           -4.2073    -2.9476     1.0102 N.ar    
  12 N12           -6.5105    -3.0471     0.6987 N.ar    
  13 C13           -6.6593    -3.8152     1.7702 C.ar    
  14 C14           -5.5119    -4.1772     2.5101 C.ar    
  15 C15           -4.2625    -3.7080     2.0890 C.ar    
  16 N16           -7.8918    -4.2613     2.1722 N.am    
  17 C17           -8.0243    -5.0386     3.2616 C.2     
  18 C18           -6.9129    -5.4288     4.0358 C.2     
  19 C19           -5.6632    -5.0223     3.6906 C.2     
  20 C20           -9.0814    -3.8854     1.4043 C.3     
  21 O21           -9.1362    -5.4158     3.5887 O.2     
  22 C22           -9.2744    -4.8576     0.2691 C.ar    
  23 C23          -10.2667    -4.6300    -0.6854 C.ar    
  24 C24            0.8288    -0.3410    -1.5766 C.3     
  25 C25            2.1785     0.1308    -2.1225 C.3     
  26 N26            2.6288    -0.7926    -3.1733 N.3     
  27 C27            1.6535    -0.8529    -4.2709 C.3     
  28 C28          -10.4386    -5.5352    -1.7341 C.ar    
  29 C29           -9.6278    -6.6478    -1.8206 C.ar    
  30 C30           -8.6460    -6.8678    -0.8706 C.ar    
  31 C31           -8.4667    -5.9717     0.1680 C.ar    
  32 C32          -11.1323    -3.4358    -0.5862 C.2     
  33 S33          -12.1175    -3.0084     0.8068 S.3     
  34 C34          -12.6994    -1.5632    -0.0090 C.2     
  35 C35          -12.1518    -1.4794    -1.2248 C.2     
  36 C36          -11.2844    -2.5027    -1.5470 C.2     
  37 F37           -2.2823     1.3497    -2.8587 F       
  38 H38            0.4101    -2.3261    -3.3079 H       
  39 H39           -0.4288    -1.3423    -4.5319 H       
  40 H40           -0.7894    -2.7019    -1.5439 H       
  41 H41           -3.0171    -3.3339    -0.7102 H       
  42 H42           -4.5510     0.4700    -1.9183 H       
  43 H43           -5.9867    -1.5215    -1.2450 H       
  44 H44           -3.3642    -3.9653     2.6306 H       
  45 H45           -7.0550    -6.0536     4.9052 H       
  46 H46           -4.8041    -5.3148     4.2761 H       
  47 H47           -9.9558    -3.9081     2.0547 H       
  48 H48           -8.9526    -2.8799     1.0036 H       
  49 H49            0.4790     0.3585    -0.8173 H       
  50 H50            0.9411    -1.3313    -1.1352 H       
  51 H51            2.0722     1.1322    -2.5395 H       
  52 H52            2.9111     0.1485    -1.3155 H       
  53 H53            3.5422    -0.5338    -3.5150 H       
  54 H54            2.0032    -1.5523    -5.0302 H       
  55 H55            1.5412     0.1374    -4.7123 H       
  56 H56          -11.2049    -5.3650    -2.4758 H       
  57 H57           -9.7597    -7.3489    -2.6314 H       
  58 H58           -8.0143    -7.7408    -0.9425 H       
  59 H59           -7.6984    -6.1490     0.9060 H       
  60 H60          -13.3950    -0.8509     0.4097 H       
  61 H61          -12.3688    -0.6679    -1.9037 H       
  62 H62          -10.7738    -2.5562    -2.4972 H       
@<TRIPOS>BOND
   1    1    2 1
   2    1   27 1
   3    1   38 1
   4    1   39 1
   5    2    3 1
   6    2   24 1
   7    3    4 ar
   8    3    8 ar
   9    4    5 ar
  10    4   40 1
  11    5    6 ar
  12    5   41 1
  13    6    7 ar
  14    6    9 1
  15    7    8 ar
  16    7   42 1
  17    8   37 1
  18    9   10 1
  19    9   43 1
  20   10   11 ar
  21   10   12 ar
  22   11   15 ar
  23   12   13 ar
  24   13   14 ar
  25   13   16 1
  26   14   15 ar
  27   14   19 1
  28   15   44 1
  29   16   17 am
  30   16   20 1
  31   17   18 1
  32   17   21 2
  33   18   19 2
  34   18   45 1
  35   19   46 1
  36   20   22 1
  37   20   47 1
  38   20   48 1
  39   22   23 ar
  40   22   31 ar
  41   23   28 ar
  42   23   32 1
  43   24   25 1
  44   24   49 1
  45   24   50 1
  46   25   26 1
  47   25   51 1
  48   25   52 1
  49   26   27 1
  50   26   53 1
  51   27   54 1
  52   27   55 1
  53   28   29 ar
  54   28   56 1
  55   29   30 ar
  56   29   57 1
  57   30   31 ar
  58   30   58 1
  59   31   59 1
  60   32   33 1
  61   32   36 2
  62   33   34 1
  63   34   35 2
  64   34   60 1
  65   35   36 1
  66   35   61 1
  67   36   62 1

#	End of record

