#	Name: ASD01030030
#	Creating user name:	WinNT
#	Creation time:	15. 06. 2019 18:58

#	Modifying user name:	WinNT
#	Modification time:	15. 06. 2019 18:58

#	Program:	/corina/corina34_cracker 3.40 0067  02.08.2006

@<TRIPOS>MOLECULE
ASD01030030
  39   38    0    0    0
SMALL
NO_CHARGES


@<TRIPOS>ATOM
   1 P1            -0.0795     1.0154    -0.9942 P.3     
   2 O2            -0.6731     0.5664     0.2850 O.2     
   3 O3             1.3690     1.6610    -0.7163 O.3     
   4 O4            -3.2461     2.8519    -0.4504 O.3     
   5 O5             0.0753    -0.2439    -1.9853 O.3     
   6 O6            -1.0371     2.1177    -1.6725 O.3     
   7 P7            -2.6326     2.2733    -1.8219 P.3     
   8 O8            -3.2322     0.9516    -2.1116 O.2     
   9 O9            -2.9623     3.2881    -3.0275 O.3     
  10 C10            2.4108     0.9674    -0.0267 C.3     
  11 C11            3.6286     1.8507     0.0629 C.2     
  12 C12            4.8102     1.3693    -0.2342 C.2     
  13 C13            4.9710    -0.0975    -0.5403 C.3     
  14 C14            6.0085     2.2824    -0.2699 C.3     
  15 C15            6.7298     2.2302     1.0784 C.3     
  16 C16            7.9281     3.1433     1.0428 C.2     
  17 C17            8.0504     4.0986     1.9307 C.2     
  18 C18            6.9290     4.3758     2.8985 C.3     
  19 C19            9.3125     4.9204     1.9845 C.3     
  20 H20           -2.8973     3.7178    -0.1980 H       
  21 H21            0.4589    -0.0229    -2.8450 H       
  22 H22           -3.9074     3.4297    -3.1751 H       
  23 H23            2.0736     0.7107     0.9776 H       
  24 H24            2.6620     0.0562    -0.5696 H       
  25 H25            3.5272     2.8805     0.3720 H       
  26 H26            4.7726    -0.2718    -1.5978 H       
  27 H27            5.9892    -0.4080    -0.3057 H       
  28 H28            4.2678    -0.6734     0.0611 H       
  29 H29            6.6883     1.9591    -1.0583 H       
  30 H30            5.6818     3.3032    -0.4679 H       
  31 H31            6.0500     2.5535     1.8668 H       
  32 H32            7.0565     1.2094     1.2764 H       
  33 H33            8.6862     3.0100     0.2851 H       
  34 H34            7.0096     3.7013     3.7509 H       
  35 H35            6.9940     5.4075     3.2441 H       
  36 H36            5.9722     4.2191     2.4004 H       
  37 H37            9.2090     5.7882     1.3331 H       
  38 H38            9.4862     5.2529     3.0079 H       
  39 H39           10.1551     4.3144     1.6513 H       
@<TRIPOS>BOND
   1    1    2 2
   2    1    3 1
   3    1    5 1
   4    1    6 1
   5    3   10 1
   6    4    7 1
   7    4   20 1
   8    5   21 1
   9    6    7 1
  10    7    8 2
  11    7    9 1
  12    9   22 1
  13   10   11 1
  14   10   23 1
  15   10   24 1
  16   11   12 2
  17   11   25 1
  18   12   13 1
  19   12   14 1
  20   13   26 1
  21   13   27 1
  22   13   28 1
  23   14   15 1
  24   14   29 1
  25   14   30 1
  26   15   16 1
  27   15   31 1
  28   15   32 1
  29   16   17 2
  30   16   33 1
  31   17   18 1
  32   17   19 1
  33   18   34 1
  34   18   35 1
  35   18   36 1
  36   19   37 1
  37   19   38 1
  38   19   39 1

#	End of record

