#	Name: ASD01230098
#	Creating user name:	WinNT
#	Creation time:	15. 06. 2019 19:11

#	Modifying user name:	WinNT
#	Modification time:	15. 06. 2019 19:11

#	Program:	/corina/corina34_cracker 3.40 0067  02.08.2006

@<TRIPOS>MOLECULE
ASD01230098
  51   54    0    0    0
SMALL
NO_CHARGES


@<TRIPOS>ATOM
   1 C1            -0.0166     1.3746     0.0096 C.2     
   2 C2             0.0021    -0.0041     0.0020 C.2     
   3 C3            -1.3406    -0.4406     0.0125 C.2     
   4 N4            -2.1091     0.6141     0.0255 N.2     
   5 N5            -1.3051     1.7596     0.0298 N.pl3   
   6 C6            -1.7856     3.1435     0.0438 C.3     
   7 C7             1.1858     2.2831     0.0030 C.3     
   8 O8             1.5787     2.5630     1.3481 O.3     
   9 C9             2.6536     3.3729     1.5200 C.ar    
  10 C10            3.0837     3.6817     2.8038 C.ar    
  11 C11            4.1816     4.5090     2.9655 C.ar    
  12 C12            4.8129     5.0003     1.8314 C.ar    
  13 C13            4.3307     4.6516     0.5853 C.ar    
  14 N14            3.2851     3.8564     0.4630 N.ar    
  15 C15            1.2024    -0.8636    -0.0145 C.2     
  16 O16            2.4802    -0.4528    -0.0245 O.3     
  17 N17            3.2224    -1.4118    -0.0367 N.2     
  18 C18            2.5310    -2.5226    -0.0360 C.2     
  19 N19            1.2248    -2.1843    -0.0164 N.2     
  20 C20            3.0820    -3.9009    -0.0486 C.ar    
  21 C21            4.4604    -4.1027    -0.0623 C.ar    
  22 C22            2.2226    -4.9974    -0.0411 C.ar    
  23 C23            2.7402    -6.2768    -0.0529 C.ar    
  24 C24            4.1095    -6.4715    -0.0723 C.ar    
  25 C25            4.9673    -5.3864    -0.0741 C.ar    
  26 C26            4.6688    -7.8708    -0.0846 C.3     
  27 S27            4.8699    -8.4264    -1.7997 S.o2    
  28 N28            5.4841    -9.9587    -1.6683 N.am    
  29 O29            3.6028    -8.6086    -2.4166 O.2     
  30 O30            5.8998    -7.6901    -2.4449 O.2     
  31 C31            6.0116     5.9048     1.9584 C.3     
  32 F32            7.1778     5.1326     1.9848 F       
  33 F33            6.0549     6.7778     0.8661 F       
  34 F34            5.9147     6.6438     3.1424 F       
  35 H35           -1.6735    -1.4680     0.0098 H       
  36 H36           -1.8991     3.4783     1.0748 H       
  37 H37           -1.0669     3.7828    -0.4689 H       
  38 H38           -2.7484     3.1989    -0.4643 H       
  39 H39            2.0072     1.7948    -0.5213 H       
  40 H40            0.9343     3.2149    -0.5035 H       
  41 H41            2.5683     3.2819     3.6646 H       
  42 H42            4.5385     4.7667     3.9517 H       
  43 H43            4.8181     5.0315    -0.3005 H       
  44 H44            5.1311    -3.2562    -0.0641 H       
  45 H45            1.1533    -4.8465    -0.0256 H       
  46 H46            2.0749    -7.1276    -0.0467 H       
  47 H47            6.0357    -5.5439    -0.0896 H       
  48 H48            5.6370    -7.8795     0.4160 H       
  49 H49            3.9844    -8.5402     0.4363 H       
  50 H50            5.6482   -10.3420    -0.7924 H       
  51 H51            5.6799   -10.4729    -2.4671 H       
@<TRIPOS>BOND
   1    1    2 2
   2    1    7 1
   3    1    5 1
   4    2    3 1
   5    2   15 1
   6    3    4 2
   7    3   35 1
   8    4    5 1
   9    5    6 1
  10    6   36 1
  11    6   37 1
  12    6   38 1
  13    7    8 1
  14    7   39 1
  15    7   40 1
  16    8    9 1
  17    9   10 ar
  18    9   14 ar
  19   10   11 ar
  20   10   41 1
  21   11   12 ar
  22   11   42 1
  23   12   31 1
  24   12   13 ar
  25   13   14 ar
  26   13   43 1
  27   15   16 1
  28   15   19 2
  29   16   17 1
  30   17   18 2
  31   18   19 1
  32   18   20 1
  33   20   21 ar
  34   20   22 ar
  35   21   25 ar
  36   21   44 1
  37   22   23 ar
  38   22   45 1
  39   23   24 ar
  40   23   46 1
  41   24   25 ar
  42   24   26 1
  43   25   47 1
  44   26   27 1
  45   26   48 1
  46   26   49 1
  47   27   28 am
  48   27   29 2
  49   27   30 2
  50   28   50 1
  51   28   51 1
  52   31   32 1
  53   31   33 1
  54   31   34 1

#	End of record

