#	Name: ASD01911535
#	Creating user name:	WinNT
#	Creation time:	15. 06. 2019 19:57

#	Modifying user name:	WinNT
#	Modification time:	15. 06. 2019 19:57

#	Program:	/corina/corina34_cracker 3.40 0067  02.08.2006

@<TRIPOS>MOLECULE
ASD01911535
  50   51    0    0    0
SMALL
NO_CHARGES


@<TRIPOS>ATOM
   1 C1            -0.0177     1.4567     0.0101 C.3     
   2 N2             0.0021    -0.0041     0.0020 N.am    
   3 C3             1.0795    -0.7076    -0.3671 C.2     
   4 C4             2.3719    -0.0500    -0.7644 C.3     
   5 O5             2.1467     1.3351    -1.0377 O.3     
   6 C6             1.4136     1.9977    -0.0007 C.3     
   7 C7             1.3910     3.5037    -0.2698 C.3     
   8 C8             2.0758     1.7242     1.3512 C.3     
   9 O9             1.0109    -1.9184    -0.3811 O.2     
  10 C10           -1.2036    -0.7269     0.4143 C.3     
  11 C11           -1.6916    -1.6049    -0.7398 C.3     
  12 C12           -2.9507    -2.3599    -0.3092 C.3     
  13 C13           -2.6292    -3.2399     0.9004 C.3     
  14 C14           -2.1413    -2.3619     2.0545 C.3     
  15 C15           -0.8821    -1.6069     1.6239 C.3     
  16 C16           -3.8407    -3.9662     1.3146 C.1     
  17 C17           -4.8069    -4.5455     1.6450 C.1     
  18 Si18          -6.3706    -5.4830     2.1797 Si      
  19 C19           -5.9790    -6.5545     3.6526 C.3     
  20 C20           -7.7012    -4.2617     2.6364 C.3     
  21 C21           -6.9647    -6.5521     0.7744 C.3     
  22 H22           -0.5473     1.8164    -0.8722 H       
  23 H23           -0.5303     1.8068     0.9060 H       
  24 H24            3.0923    -0.1466     0.0479 H       
  25 H25            2.7663    -0.5360    -1.6568 H       
  26 H26            0.9121     3.6940    -1.2302 H       
  27 H27            0.8328     4.0056     0.5204 H       
  28 H28            2.4122     3.8843    -0.2913 H       
  29 H29            3.0998     2.0976     1.3364 H       
  30 H30            1.5163     2.2293     2.1386 H       
  31 H31            2.0830     0.6511     1.5418 H       
  32 H32           -1.9821    -0.0124     0.6815 H       
  33 H33           -1.9206    -0.9780    -1.6016 H       
  34 H34           -0.9130    -2.3195    -1.0070 H       
  35 H35           -3.7293    -1.6453    -0.0420 H       
  36 H36           -3.2984    -2.9854    -1.1315 H       
  37 H37           -1.8507    -3.9544     0.6331 H       
  38 H38           -2.9198    -1.6473     2.3217 H       
  39 H39           -1.9122    -2.9888     2.9162 H       
  40 H40           -0.1036    -2.3215     1.3567 H       
  41 H41           -0.5345    -0.9815     2.4461 H       
  42 H42           -5.6314    -5.9291     4.4748 H       
  43 H43           -6.8761    -7.0924     3.9593 H       
  44 H44           -5.2005    -7.2691     3.3853 H       
  45 H45           -7.9302    -3.6348     1.7747 H       
  46 H46           -8.5982    -4.7995     2.9432 H       
  47 H47           -7.3536    -3.6362     3.4586 H       
  48 H48           -6.1862    -7.2666     0.5072 H       
  49 H49           -7.8618    -7.0899     1.0811 H       
  50 H50           -7.1938    -5.9252    -0.0873 H       
@<TRIPOS>BOND
   1    1    2 1
   2    1    6 1
   3    1   22 1
   4    1   23 1
   5    2    3 am
   6    2   10 1
   7    3    4 1
   8    3    9 2
   9    4    5 1
  10    4   24 1
  11    4   25 1
  12    5    6 1
  13    6    7 1
  14    6    8 1
  15    7   26 1
  16    7   27 1
  17    7   28 1
  18    8   29 1
  19    8   30 1
  20    8   31 1
  21   10   11 1
  22   10   15 1
  23   10   32 1
  24   11   12 1
  25   11   33 1
  26   11   34 1
  27   12   13 1
  28   12   35 1
  29   12   36 1
  30   13   14 1
  31   13   16 1
  32   13   37 1
  33   14   15 1
  34   14   38 1
  35   14   39 1
  36   15   40 1
  37   15   41 1
  38   16   17 3
  39   17   18 1
  40   18   19 1
  41   18   20 1
  42   18   21 1
  43   19   42 1
  44   19   43 1
  45   19   44 1
  46   20   45 1
  47   20   46 1
  48   20   47 1
  49   21   48 1
  50   21   49 1
  51   21   50 1

#	End of record

