#	Name: ASD06020169
#	Creating user name:	WinNT
#	Creation time:	15. 06. 2019 21:04

#	Modifying user name:	WinNT
#	Modification time:	15. 06. 2019 21:04

#	Program:	/corina/corina34_cracker 3.40 0067  02.08.2006

@<TRIPOS>MOLECULE
ASD06020169
  24   26    0    0    0
SMALL
NO_CHARGES


@<TRIPOS>ATOM
   1 C1             0.0021    -0.0041     0.0020 C.1     
   2 C2            -0.0173     1.4278     0.0099 C.ar    
   3 C3             1.1903     2.1531     0.0023 C.ar    
   4 C4             1.1548     3.5483     0.0101 C.ar    
   5 C5            -0.0611     4.2081     0.0253 C.ar    
   6 C6            -1.2462     3.4934     0.0333 C.ar    
   7 C7            -1.2315     2.1128     0.0193 C.ar    
   8 N8             0.0175    -1.1399    -0.0042 N.1     
   9 F9             2.3068     4.2540     0.0034 F       
  10 C10            5.4552    -1.0630    -0.0561 C.ar    
  11 C11            4.4222    -0.1294    -0.0412 C.ar    
  12 C12            4.7264     1.2393    -0.0369 C.ar    
  13 C13            6.0991     1.5937    -0.0483 C.ar    
  14 C14            7.0428     0.6111    -0.0625 C.ar    
  15 N15            6.7118    -0.6699    -0.0661 N.ar    
  16 S16            2.6711    -0.3066    -0.0247 S.3     
  17 C17            2.4843     1.4424    -0.0135 C.2     
  18 N18            3.6431     2.0164    -0.0219 N.2     
  19 F19            6.4678     2.8934    -0.0454 F       
  20 Br20           5.0502    -2.9101    -0.0540 Br      
  21 H21           -0.0857     5.2878     0.0314 H       
  22 H22           -2.1894     4.0194     0.0459 H       
  23 H23           -2.1612     1.5632     0.0204 H       
  24 H24            8.0876     0.8848    -0.0711 H       
@<TRIPOS>BOND
   1    1    2 1
   2    1    8 3
   3    2    3 ar
   4    2    7 ar
   5    3    4 ar
   6    3   17 1
   7    4    5 ar
   8    4    9 1
   9    5    6 ar
  10    5   21 1
  11    6    7 ar
  12    6   22 1
  13    7   23 1
  14   10   11 ar
  15   10   15 ar
  16   10   20 1
  17   11   12 ar
  18   11   16 1
  19   12   13 ar
  20   12   18 1
  21   13   14 ar
  22   13   19 1
  23   14   15 ar
  24   14   24 1
  25   16   17 1
  26   17   18 2

#	End of record

