#	Name: ASD01190099
#	Creating user name:	WinNT
#	Creation time:	15. 06. 2019 19:07

#	Modifying user name:	WinNT
#	Modification time:	15. 06. 2019 19:07

#	Program:	/corina/corina34_cracker 3.40 0067  02.08.2006

@<TRIPOS>MOLECULE
ASD01190099
  57   60    0    0    0
SMALL
NO_CHARGES


@<TRIPOS>ATOM
   1 N1             0.3845     1.6555     0.1907 N.pl3   
   2 C2             0.2574     0.8561    -0.9227 C.2     
   3 C3             1.4090     0.9954    -1.6677 C.2     
   4 C4             2.2345     1.8936    -0.9842 C.2     
   5 C5             1.5870     2.2788     0.1415 C.2     
   6 C6            -0.8934     0.0097    -1.2554 C.2     
   7 O7            -1.9975     0.2872    -0.8253 O.2     
   8 N8            -0.7280    -1.0755    -2.0374 N.am    
   9 C9            -1.8863    -1.8883    -2.4169 C.3     
  10 C10            0.6100    -1.4423    -2.5079 C.3     
  11 C11            3.6020     2.3512    -1.4218 C.3     
  12 C12            3.6036     2.5792    -2.9347 C.3     
  13 O13            3.9316     3.5718    -0.7558 O.3     
  14 N14            7.2656    -1.7538    -0.2657 N.pl3   
  15 N15            6.6805    -2.7818    -1.0122 N.2     
  16 C16            5.6064    -2.3469    -1.6080 C.2     
  17 C17            5.4380    -0.9407    -1.2551 C.ar    
  18 C18            4.4920     0.0374    -1.5813 C.ar    
  19 C19            4.6204     1.2970    -1.0716 C.ar    
  20 C20            5.6813     1.6167    -0.2331 C.ar    
  21 C21            6.6176     0.6789     0.0994 C.ar    
  22 C22            6.5126    -0.6145    -0.4051 C.ar    
  23 C23            8.4297    -1.8698     0.5051 C.ar    
  24 C24            8.7051    -3.0549     1.1745 C.ar    
  25 C25            9.8531    -3.1672     1.9338 C.ar    
  26 C26           10.7293    -2.0990     2.0281 C.ar    
  27 C27           10.4565    -0.9162     1.3614 C.ar    
  28 C28            9.3125    -0.8017     0.5964 C.ar    
  29 F29           11.8517    -2.2107     2.7718 F       
  30 F30            2.6582     3.5579    -3.2598 F       
  31 F31            4.8731     3.0040    -3.3409 F       
  32 F32            3.2809     1.3842    -3.5867 F       
  33 C33           -0.6160     1.8115     1.2494 C.3     
  34 C34           -0.4404     0.7181     2.2715 C.2     
  35 C35           -0.1920     1.0233     3.5210 C.2     
  36 H36            1.6317     0.5035    -2.6031 H       
  37 H37            1.9670     2.9698     0.8794 H       
  38 H38           -2.3080    -1.5078    -3.3472 H       
  39 H39           -1.5740    -2.9233    -2.5561 H       
  40 H40           -2.6386    -1.8386    -1.6297 H       
  41 H41            1.3589    -1.0255    -1.8345 H       
  42 H42            0.7032    -2.5281    -2.5277 H       
  43 H43            0.7634    -1.0461    -3.5117 H       
  44 H44            3.9493     3.5013     0.2085 H       
  45 H45            4.9566    -2.9240    -2.2491 H       
  46 H46            3.6650    -0.2029    -2.2330 H       
  47 H47            5.7671     2.6188     0.1603 H       
  48 H48            7.4376     0.9404     0.7518 H       
  49 H49            8.0218    -3.8881     1.1015 H       
  50 H50           10.0675    -4.0886     2.4548 H       
  51 H51           11.1410    -0.0842     1.4365 H       
  52 H52            9.1025     0.1192     0.0727 H       
  53 H53           -0.4887     2.7817     1.7296 H       
  54 H54           -1.6148     1.7481     0.8175 H       
  55 H55           -0.5194    -0.3171     1.9739 H       
  56 H56           -0.0662     0.2398     4.2535 H       
  57 H57           -0.1131     2.0585     3.8186 H       
@<TRIPOS>BOND
   1    1    2 1
   2    1    5 1
   3    1   33 1
   4    2    3 2
   5    2    6 1
   6    3    4 1
   7    3   36 1
   8    4    5 2
   9    4   11 1
  10    5   37 1
  11    6    7 2
  12    6    8 am
  13    8    9 1
  14    8   10 1
  15    9   38 1
  16    9   39 1
  17    9   40 1
  18   10   41 1
  19   10   42 1
  20   10   43 1
  21   11   12 1
  22   11   13 1
  23   11   19 1
  24   12   30 1
  25   12   31 1
  26   12   32 1
  27   13   44 1
  28   14   15 1
  29   14   22 1
  30   14   23 1
  31   15   16 2
  32   16   17 1
  33   16   45 1
  34   17   18 ar
  35   17   22 ar
  36   18   19 ar
  37   18   46 1
  38   19   20 ar
  39   20   21 ar
  40   20   47 1
  41   21   22 ar
  42   21   48 1
  43   23   24 ar
  44   23   28 ar
  45   24   25 ar
  46   24   49 1
  47   25   26 ar
  48   25   50 1
  49   26   27 ar
  50   26   29 1
  51   27   28 ar
  52   27   51 1
  53   28   52 1
  54   33   34 1
  55   33   53 1
  56   33   54 1
  57   34   35 2
  58   34   55 1
  59   35   56 1
  60   35   57 1

#	End of record

