#	Name: ASD01908270
#	Creating user name:	WinNT
#	Creation time:	15. 06. 2019 19:54

#	Modifying user name:	WinNT
#	Modification time:	15. 06. 2019 19:54

#	Program:	/corina/corina34_cracker 3.40 0067  02.08.2006

@<TRIPOS>MOLECULE
ASD01908270
  39   41    0    0    0
SMALL
NO_CHARGES


@<TRIPOS>ATOM
   1 C1             0.9977     3.1867     0.7212 C.ar    
   2 C2             2.0727     3.6647     1.4675 C.ar    
   3 C3             3.2732     2.9730     1.4378 C.ar    
   4 C4             3.3570     1.8268     0.6625 C.ar    
   5 C5             2.2474     1.4091    -0.0544 C.ar    
   6 N6             1.1198     2.0846    -0.0084 N.ar    
   7 C7            -0.2942     3.9110     0.7469 C.2     
   8 O8            -0.4130     4.9179     1.4172 O.2     
   9 N9            -1.3378     3.4535     0.0272 N.am    
  10 C10           -2.5858     4.0809     0.1268 C.ar    
  11 C11           -2.6594     5.4574     0.2981 C.ar    
  12 C12           -3.8904     6.0761     0.3959 C.ar    
  13 C13           -5.0552     5.3208     0.3229 C.ar    
  14 C14           -4.9806     3.9451     0.1517 C.ar    
  15 C15           -3.7496     3.3276     0.0487 C.ar    
  16 N16           -6.3029     5.9471     0.4224 N.3     
  17 C17           -6.5064     6.5049     1.7667 C.3     
  18 C18           -7.8438     7.2478     1.8107 C.3     
  19 N19           -8.9282     6.3205     1.4587 N.3     
  20 C20           -8.7246     5.7627     0.1144 C.3     
  21 C21           -7.3872     5.0198     0.0704 C.3     
  22 Cl22          -3.9830     7.7963     0.6105 Cl      
  23 H23            1.9721     4.5618     2.0604 H       
  24 H24            4.1243     3.3193     2.0055 H       
  25 H25            4.2783     1.2651     0.6176 H       
  26 H26            2.3093     0.5168    -0.6597 H       
  27 H27           -1.2244     2.6897    -0.5599 H       
  28 H28           -1.7542     6.0437     0.3551 H       
  29 H29           -5.8855     3.3583     0.0950 H       
  30 H30           -3.6920     2.2580    -0.0890 H       
  31 H31           -6.5150     5.6969     2.4982 H       
  32 H32           -5.6977     7.1978     1.9991 H       
  33 H33           -8.0103     7.6377     2.8148 H       
  34 H34           -7.8252     8.0727     1.0984 H       
  35 H35           -9.0134     5.5864     2.1457 H       
  36 H36           -9.5333     5.0698    -0.1180 H       
  37 H37           -8.7160     6.5707    -0.6171 H       
  38 H38           -7.2207     4.6299    -0.9337 H       
  39 H39           -7.4058     4.1949     0.7827 H       
@<TRIPOS>BOND
   1    1    2 ar
   2    1    6 ar
   3    1    7 1
   4    2    3 ar
   5    2   23 1
   6    3    4 ar
   7    3   24 1
   8    4    5 ar
   9    4   25 1
  10    5    6 ar
  11    5   26 1
  12    7    8 2
  13    7    9 am
  14    9   10 1
  15    9   27 1
  16   10   11 ar
  17   10   15 ar
  18   11   12 ar
  19   11   28 1
  20   12   13 ar
  21   12   22 1
  22   13   14 ar
  23   13   16 1
  24   14   15 ar
  25   14   29 1
  26   15   30 1
  27   16   17 1
  28   16   21 1
  29   17   18 1
  30   17   31 1
  31   17   32 1
  32   18   19 1
  33   18   33 1
  34   18   34 1
  35   19   20 1
  36   19   35 1
  37   20   21 1
  38   20   36 1
  39   20   37 1
  40   21   38 1
  41   21   39 1

#	End of record

