#	Name: ASD01148677
#	Creating user name:	WinNT
#	Creation time:	15. 06. 2019 19:03

#	Modifying user name:	WinNT
#	Modification time:	15. 06. 2019 19:03

#	Program:	/corina/corina34_cracker 3.40 0067  02.08.2006

@<TRIPOS>MOLECULE
ASD01148677
  27   28    0    0    0
SMALL
NO_CHARGES


@<TRIPOS>ATOM
   1 O1            -0.0162     1.3421     0.0094 O.3     
   2 C2             0.0021    -0.0041     0.0020 C.2     
   3 C3             1.3218    -0.4897    -0.0132 C.2     
   4 C4             2.1877     0.5476    -0.0159 C.2     
   5 C5             1.3412     1.8012    -0.0011 C.3     
   6 O6            -0.9914    -0.7072     0.0077 O.2     
   7 N7             3.5516     0.4783    -0.0286 N.pl3   
   8 C8             4.3476     1.7082    -0.0292 C.3     
   9 C9             4.2187    -0.8260    -0.0417 C.3     
  10 C10            5.5958    -0.9268    -2.1350 C.ar    
  11 C11            4.4345    -1.2655    -1.4669 C.ar    
  12 C12            3.4705    -2.0152    -2.1238 C.ar    
  13 C13            3.7115    -2.3980    -3.4340 C.ar    
  14 C14            4.8977    -2.0219    -4.0387 C.ar    
  15 N15            5.7928    -1.3082    -3.3820 N.ar    
  16 Cl16           5.2124    -2.4944    -5.6792 Cl      
  17 H17            1.6008    -1.5330    -0.0211 H       
  18 H18            1.5317     2.3961    -0.8943 H       
  19 H19            1.5488     2.3865     0.8947 H       
  20 H20            4.5544     2.0076     0.9983 H       
  21 H21            5.2875     1.5324    -0.5525 H       
  22 H22            3.7933     2.4995    -0.5337 H       
  23 H23            5.1811    -0.7470     0.4639 H       
  24 H24            3.5964    -1.5575     0.4738 H       
  25 H25            6.3492    -0.3393    -1.6314 H       
  26 H26            2.5536    -2.2946    -1.6261 H       
  27 H27            2.9828    -2.9826    -3.9758 H       
@<TRIPOS>BOND
   1    1    2 1
   2    1    5 1
   3    2    3 1
   4    2    6 2
   5    3    4 2
   6    3   17 1
   7    4    5 1
   8    4    7 1
   9    5   18 1
  10    5   19 1
  11    7    8 1
  12    7    9 1
  13    8   20 1
  14    8   21 1
  15    8   22 1
  16    9   11 1
  17    9   23 1
  18    9   24 1
  19   10   11 ar
  20   10   15 ar
  21   10   25 1
  22   11   12 ar
  23   12   13 ar
  24   12   26 1
  25   13   14 ar
  26   13   27 1
  27   14   15 ar
  28   14   16 1

#	End of record

