#	Name: ASD01810098
#	Creating user name:	WinNT
#	Creation time:	15. 06. 2019 19:23

#	Modifying user name:	WinNT
#	Modification time:	15. 06. 2019 19:23

#	Program:	/corina/corina34_cracker 3.40 0067  02.08.2006

@<TRIPOS>MOLECULE
ASD01810098
  64   68    0    0    0
SMALL
NO_CHARGES


@<TRIPOS>ATOM
   1 C1            -0.2704     1.8301     0.9868 C.ar    
   2 C2            -0.3269     0.4477     1.0236 C.ar    
   3 C3             0.8291    -0.3000     0.9086 C.ar    
   4 C4             2.0506     0.3372     0.7557 C.ar    
   5 C5             2.1076     1.7322     0.7185 C.ar    
   6 C6             0.9424     2.4740     0.8348 C.ar    
   7 N7             3.3580    -0.1229     0.6172 N.am    
   8 C8             4.1726     0.9428     0.5011 C.2     
   9 N9             3.4478     2.0760     0.5586 N.am    
  10 O10            5.3806     0.8898     0.3646 O.2     
  11 C11            3.9784     3.4385     0.4673 C.3     
  12 C12            4.9728     3.6778     1.6068 C.3     
  13 C13            5.5689     5.0807     1.4709 C.3     
  14 N14            6.2453     5.2029     0.1732 N.3     
  15 C15            5.3008     5.0239    -0.9368 C.3     
  16 C16            4.6966     3.6193    -0.8728 C.3     
  17 C17            6.9477     6.4885     0.0646 C.3     
  18 C18            7.7402     6.5276    -1.2440 C.3     
  19 C19            8.4987     7.8553    -1.3375 C.3     
  20 N20            7.5418     8.9588    -1.1784 N.am    
  21 C21            6.6658     8.9697     0.0011 C.3     
  22 C22            5.9279     7.6295     0.0796 C.3     
  23 C23            7.4693     9.9426    -2.0967 C.2     
  24 C24            6.5341    11.9954    -2.8535 C.ar    
  25 C25            7.7455    12.5139    -3.2934 C.ar    
  26 C26            7.7651    13.6058    -4.1404 C.ar    
  27 C27            6.5812    14.1856    -4.5522 C.ar    
  28 C28            5.3652    13.6717    -4.1156 C.ar    
  29 C29            5.3425    12.5711    -3.2697 C.ar    
  30 O30            8.2641     9.9757    -3.0162 O.2     
  31 N31            6.5157    10.8897    -1.9958 N.am    
  32 S32            3.8550    14.4117    -4.6411 S.3     
  33 C33            4.4147    15.7673    -5.7088 C.3     
  34 F34            5.1571    15.2459    -6.7738 F       
  35 F35            3.3043    16.4568    -6.2078 F       
  36 F36            5.2142    16.6445    -4.9682 F       
  37 H37           -1.1788     2.4078     1.0728 H       
  38 H38           -1.2786    -0.0485     1.1431 H       
  39 H39            0.7812    -1.3785     0.9382 H       
  40 H40            0.9825     3.5528     0.8061 H       
  41 H41            3.6345    -1.0526     0.6067 H       
  42 H42            3.1595     4.1540     0.5422 H       
  43 H43            4.4574     3.5925     2.5635 H       
  44 H44            5.7705     2.9369     1.5552 H       
  45 H45            4.7723     5.8218     1.5364 H       
  46 H46            6.2881     5.2490     2.2725 H       
  47 H47            4.5054     5.7652    -0.8601 H       
  48 H48            5.8252     5.1508    -1.8840 H       
  49 H49            5.4901     2.8774    -0.9634 H       
  50 H50            3.9840     3.4921    -1.6877 H       
  51 H51            7.6309     6.6013     0.9064 H       
  52 H52            8.4502     5.7008    -1.2642 H       
  53 H53            7.0549     6.4400    -2.0871 H       
  54 H54            9.2479     7.9045    -0.5474 H       
  55 H55            8.9849     7.9306    -2.3102 H       
  56 H56            7.2656     9.1098     0.9004 H       
  57 H57            5.9427     9.7804    -0.0883 H       
  58 H58            5.2597     7.5315    -0.7759 H       
  59 H59            5.3479     7.5870     1.0016 H       
  60 H60            8.6732    12.0634    -2.9728 H       
  61 H61            8.7084    14.0068    -4.4808 H       
  62 H62            6.5999    15.0392    -5.2135 H       
  63 H63            4.3995    12.1695    -2.9293 H       
  64 H64            5.8167    10.8050    -1.3286 H       
@<TRIPOS>BOND
   1    1    2 ar
   2    1    6 ar
   3    1   37 1
   4    2    3 ar
   5    2   38 1
   6    3    4 ar
   7    3   39 1
   8    4    5 ar
   9    4    7 1
  10    5    6 ar
  11    5    9 1
  12    6   40 1
  13    7    8 am
  14    7   41 1
  15    8    9 am
  16    8   10 2
  17    9   11 1
  18   11   12 1
  19   11   16 1
  20   11   42 1
  21   12   13 1
  22   12   43 1
  23   12   44 1
  24   13   14 1
  25   13   45 1
  26   13   46 1
  27   14   15 1
  28   14   17 1
  29   15   16 1
  30   15   47 1
  31   15   48 1
  32   16   49 1
  33   16   50 1
  34   17   18 1
  35   17   22 1
  36   17   51 1
  37   18   19 1
  38   18   52 1
  39   18   53 1
  40   19   20 1
  41   19   54 1
  42   19   55 1
  43   20   21 1
  44   20   23 am
  45   21   22 1
  46   21   56 1
  47   21   57 1
  48   22   58 1
  49   22   59 1
  50   23   30 2
  51   23   31 am
  52   24   25 ar
  53   24   31 1
  54   24   29 ar
  55   25   26 ar
  56   25   60 1
  57   26   27 ar
  58   26   61 1
  59   27   28 ar
  60   27   62 1
  61   28   29 ar
  62   28   32 1
  63   29   63 1
  64   31   64 1
  65   32   33 1
  66   33   34 1
  67   33   35 1
  68   33   36 1

#	End of record

