#	Name: ASD02500012
#	Creating user name:	WinNT
#	Creation time:	15. 06. 2019 20:22

#	Modifying user name:	WinNT
#	Modification time:	15. 06. 2019 20:22

#	Program:	/corina/corina34_cracker 3.40 0067  02.08.2006

@<TRIPOS>MOLECULE
ASD02500012
  41   41    0    0    0
SMALL
NO_CHARGES


@<TRIPOS>ATOM
   1 C1            -0.0166     1.3763     0.0096 C.ar    
   2 C2             0.0021    -0.0041     0.0020 C.ar    
   3 C3             1.2111    -0.6834    -0.0132 C.ar    
   4 C4             2.4148     0.0401    -0.0207 C.ar    
   5 C5             2.3793     1.4398    -0.0129 C.ar    
   6 C6             1.1687     2.0951     0.0022 C.ar    
   7 C7             3.7014    -0.6663    -0.0363 C.2     
   8 O8             1.2309    -2.0393    -0.0202 O.3     
   9 C9            -0.0327    -2.7066    -0.0113 C.3     
  10 C10            0.1899    -4.2203    -0.0210 C.3     
  11 C11           -1.1630    -4.9348    -0.0115 C.3     
  12 C12           -0.9404    -6.4485    -0.0213 C.3     
  13 C13           -2.2933    -7.1630    -0.0117 C.3     
  14 C14           -2.0707    -8.6767    -0.0215 C.3     
  15 C15           -3.4236    -9.3911    -0.0120 C.3     
  16 H16            4.6249    -0.1064    -0.0421 H       
  17 O17            3.7274    -1.8790    -0.0427 O.2     
  18 C18           -3.2043   -10.8821    -0.0216 C.2     
  19 O19           -4.2567   -11.7152    -0.0156 O.3     
  20 O20           -2.0813   -11.3275    -0.0348 O.2     
  21 N21            1.1324     3.5749     0.0100 N.pl3   
  22 O22            2.1720     4.2096     0.0031 O.2     
  23 O23            0.0631     4.1578     0.0233 O.2     
  24 H24           -0.9613     1.8998     0.0169 H       
  25 H25           -0.9263    -0.5559     0.0083 H       
  26 H26            3.3000     2.0043    -0.0183 H       
  27 H27           -0.5852    -2.4264     0.8856 H       
  28 H28           -0.6025    -2.4174    -0.8943 H       
  29 H29            0.7425    -4.5005    -0.9179 H       
  30 H30            0.7598    -4.5094     0.8620 H       
  31 H31           -1.7155    -4.6546     0.8853 H       
  32 H32           -1.7328    -4.6456    -0.8945 H       
  33 H33           -0.3878    -6.7287    -0.9181 H       
  34 H34           -0.3705    -6.7376     0.8618 H       
  35 H35           -2.8458    -6.8828     0.8851 H       
  36 H36           -2.8631    -6.8738    -0.8948 H       
  37 H37           -1.5181    -8.9569    -0.9183 H       
  38 H38           -1.5008    -8.9658     0.8615 H       
  39 H39           -3.9761    -9.1109     0.8848 H       
  40 H40           -3.9934    -9.1020    -0.8950 H       
  41 H41           -4.0662   -12.6633    -0.0222 H       
@<TRIPOS>BOND
   1    1    2 ar
   2    1    6 ar
   3    1   24 1
   4    2    3 ar
   5    2   25 1
   6    3    4 ar
   7    3    8 1
   8    4    5 ar
   9    4    7 1
  10    5    6 ar
  11    5   26 1
  12    6   21 1
  13    7   16 1
  14    7   17 2
  15    8    9 1
  16    9   10 1
  17    9   27 1
  18    9   28 1
  19   10   11 1
  20   10   29 1
  21   10   30 1
  22   11   12 1
  23   11   31 1
  24   11   32 1
  25   12   13 1
  26   12   33 1
  27   12   34 1
  28   13   14 1
  29   13   35 1
  30   13   36 1
  31   14   15 1
  32   14   37 1
  33   14   38 1
  34   15   18 1
  35   15   39 1
  36   15   40 1
  37   18   19 1
  38   18   20 2
  39   19   41 1
  40   21   22 2
  41   21   23 2

#	End of record

