#	Name: ASD04882180
#	Creating user name:	WinNT
#	Creation time:	15. 06. 2019 20:54

#	Modifying user name:	WinNT
#	Modification time:	15. 06. 2019 20:54

#	Program:	/corina/corina34_cracker 3.40 0067  02.08.2006

@<TRIPOS>MOLECULE
ASD04882180
  87   91    0    0    0
SMALL
NO_CHARGES


@<TRIPOS>ATOM
   1 C1             0.1255     1.4840    -0.4335 C.2     
   2 C2             0.1456     0.0187    -0.4840 C.2     
   3 N3             1.1861    -0.6594     0.0395 N.am    
   4 C4             1.1516    -2.0587     0.0989 C.ar    
   5 C5             2.3302    -2.7944    -0.0530 C.ar    
   6 C6             2.2975    -4.1830     0.0062 C.ar    
   7 C7             1.1044    -4.8385     0.2146 C.ar    
   8 C8            -0.0779    -4.1089     0.3673 C.ar    
   9 C9            -0.0471    -2.7125     0.3134 C.ar    
  10 N10            3.5387    -2.1357    -0.2643 N.3     
  11 C11            3.5440    -1.4489    -1.5635 C.3     
  12 C12            4.6712    -3.0664    -0.1593 C.3     
  13 C13            5.9813    -2.2914    -0.3183 C.3     
  14 N14            5.9866    -1.6046    -1.6174 N.3     
  15 C15            4.8542    -0.6739    -1.7225 C.3     
  16 C16            7.1988    -0.9439    -1.8294 C.ar    
  17 C17            7.9921    -1.2777    -2.9195 C.ar    
  18 C18            7.6110     0.0527    -0.9535 C.ar    
  19 C19            8.8100     0.7038    -1.1660 C.ar    
  20 C20            9.6001     0.3652    -2.2496 C.ar    
  21 C21            9.1903    -0.6224    -3.1261 C.ar    
  22 C22           -1.3558    -4.8114     0.5905 C.2     
  23 N23           -1.3838    -6.1577     0.6474 N.am    
  24 O24           -2.3839    -4.1758     0.7232 O.2     
  25 O25           -0.7773    -0.5852    -0.9988 O.2     
  26 C26           -0.8643     2.2901    -0.9186 C.2     
  27 O27            1.0788     2.2718     0.1056 O.3     
  28 C28            0.7227     3.5560    -0.0289 C.2     
  29 C29           -0.4724     3.6123    -0.6571 C.2     
  30 C30            7.5464    -2.3541    -3.8754 C.3     
  31 C31            1.5217     4.7425     0.4452 C.3     
  32 C32           -2.6528    -6.8553     0.8691 C.3     
  33 C33           -2.5640    -8.2705     0.2933 C.3     
  34 C34           -3.9039    -8.9849     0.4961 C.3     
  35 N35           -4.2557    -8.9344     1.9217 N.am    
  36 C36           -4.2817    -7.6299     2.5972 C.3     
  37 C37           -2.9376    -6.9306     2.3709 C.3     
  38 C38           -4.5495   -10.0633     2.5969 C.2     
  39 O39           -4.8703   -10.0023     3.9030 O.3     
  40 O40           -4.5249   -11.1360     2.0268 O.2     
  41 C41           -5.1750   -11.2575     4.5663 C.3     
  42 C42           -3.9615   -12.1856     4.4839 C.3     
  43 C43           -5.5135   -10.9897     6.0341 C.3     
  44 C44           -6.3712   -11.9198     3.8797 C.3     
  45 H45            1.9588    -0.1786     0.3752 H       
  46 H46            3.2098    -4.7489    -0.1118 H       
  47 H47            1.0823    -5.9174     0.2597 H       
  48 H48           -0.9590    -2.1461     0.4314 H       
  49 H49            3.4568    -2.1838    -2.3637 H       
  50 H50            2.7037    -0.7563    -1.6121 H       
  51 H51            4.6526    -3.5531     0.8158 H       
  52 H52            4.5967    -3.8197    -0.9436 H       
  53 H53            6.0686    -1.5565     0.4820 H       
  54 H54            6.8217    -2.9840    -0.2697 H       
  55 H55            4.8727    -0.1872    -2.6976 H       
  56 H56            4.9286     0.0794    -0.9382 H       
  57 H57            6.9942     0.3180    -0.1076 H       
  58 H58            9.1310     1.4786    -0.4855 H       
  59 H59           10.5371     0.8766    -2.4138 H       
  60 H60            9.8097    -0.8844    -3.9712 H       
  61 H61           -0.5636    -6.6647     0.5415 H       
  62 H62           -1.7727     1.9719    -1.4085 H       
  63 H63           -1.0224     4.5065    -0.9106 H       
  64 H64            6.9545    -1.9079    -4.6746 H       
  65 H65            8.4205    -2.8460    -4.3020 H       
  66 H66            6.9417    -3.0869    -3.3411 H       
  67 H67            2.4409     4.3962     0.9176 H       
  68 H68            1.7675     5.3783    -0.4054 H       
  69 H69            0.9346     5.3113     1.1663 H       
  70 H70           -3.4574    -6.3116     0.3739 H       
  71 H71           -2.3380    -8.2165    -0.7716 H       
  72 H72           -1.7760    -8.8228     0.8054 H       
  73 H73           -4.6763    -8.4857    -0.0889 H       
  74 H74           -3.8158   -10.0238     0.1780 H       
  75 H75           -5.0850    -7.0202     2.1836 H       
  76 H76           -4.4430    -7.7747     3.6654 H       
  77 H77           -2.1461    -7.4956     2.8633 H       
  78 H78           -2.9775    -5.9230     2.7846 H       
  79 H79           -3.1093   -11.7138     4.9730 H       
  80 H80           -4.1903   -13.1279     4.9818 H       
  81 H81           -3.7204   -12.3764     3.4382 H       
  82 H82           -6.3781   -10.3284     6.0929 H       
  83 H83           -5.7423   -11.9319     6.5320 H       
  84 H84           -4.6614   -10.5178     6.5233 H       
  85 H85           -6.1301   -12.1106     2.8340 H       
  86 H86           -6.6000   -12.8621     4.3776 H       
  87 H87           -7.2358   -11.2586     3.9384 H       
@<TRIPOS>BOND
   1    1    2 1
   2    1   27 1
   3    1   26 2
   4    2    3 am
   5    2   25 2
   6    3    4 1
   7    3   45 1
   8    4    5 ar
   9    4    9 ar
  10    5    6 ar
  11    5   10 1
  12    6    7 ar
  13    6   46 1
  14    7    8 ar
  15    7   47 1
  16    8    9 ar
  17    8   22 1
  18    9   48 1
  19   10   11 1
  20   10   12 1
  21   11   15 1
  22   11   49 1
  23   11   50 1
  24   12   13 1
  25   12   51 1
  26   12   52 1
  27   13   14 1
  28   13   53 1
  29   13   54 1
  30   14   15 1
  31   14   16 1
  32   15   55 1
  33   15   56 1
  34   16   17 ar
  35   16   18 ar
  36   17   30 1
  37   17   21 ar
  38   18   19 ar
  39   18   57 1
  40   19   20 ar
  41   19   58 1
  42   20   21 ar
  43   20   59 1
  44   21   60 1
  45   22   23 am
  46   22   24 2
  47   23   32 1
  48   23   61 1
  49   26   29 1
  50   26   62 1
  51   27   28 1
  52   28   29 2
  53   28   31 1
  54   29   63 1
  55   30   64 1
  56   30   65 1
  57   30   66 1
  58   31   67 1
  59   31   68 1
  60   31   69 1
  61   32   33 1
  62   32   37 1
  63   32   70 1
  64   33   34 1
  65   33   71 1
  66   33   72 1
  67   34   35 1
  68   34   73 1
  69   34   74 1
  70   35   36 1
  71   35   38 am
  72   36   37 1
  73   36   75 1
  74   36   76 1
  75   37   77 1
  76   37   78 1
  77   38   39 1
  78   38   40 2
  79   39   41 1
  80   41   42 1
  81   41   43 1
  82   41   44 1
  83   42   79 1
  84   42   80 1
  85   42   81 1
  86   43   82 1
  87   43   83 1
  88   43   84 1
  89   44   85 1
  90   44   86 1
  91   44   87 1

#	End of record

