#	Name: ASD01151065
#	Creating user name:	WinNT
#	Creation time:	15. 06. 2019 19:05

#	Modifying user name:	WinNT
#	Modification time:	15. 06. 2019 19:05

#	Program:	/corina/corina34_cracker 3.40 0067  02.08.2006

@<TRIPOS>MOLECULE
ASD01151065
  50   53    0    0    0
SMALL
NO_CHARGES


@<TRIPOS>ATOM
   1 C1            -0.0168     1.3849     0.0097 C.ar    
   2 C2             0.0021    -0.0041     0.0020 C.ar    
   3 C3             1.2223    -0.6805    -0.0133 C.ar    
   4 C4             2.4199     0.0405    -0.0208 C.ar    
   5 C5             2.3989     1.4182    -0.0132 C.ar    
   6 C6             1.1891     2.0983     0.0020 C.ar    
   7 C7            -1.3095     2.1105     0.0197 C.2     
   8 N8            -1.3258     3.4229     0.0269 N.2     
   9 N9            -2.5140     4.1565     0.0366 N.am    
  10 C10           -3.7181     3.5425     0.0390 C.2     
  11 C11           -3.7649     2.0910     0.0314 C.2     
  12 C12           -4.7833     1.0471     0.0311 C.2     
  13 N13           -4.1219    -0.0762     0.0220 N.2     
  14 O14           -2.9212     0.0788     0.0168 O.3     
  15 C15           -2.5632     1.3670     0.0156 C.2     
  16 O16           -4.7472     4.1959     0.0479 O.2     
  17 C17           -2.4542     5.6203     0.0448 C.3     
  18 C18           -1.7071     6.0933     1.2934 C.3     
  19 C19           -1.7296     6.1003    -1.1863 C.ar    
  20 C20           -6.2794     1.2281     0.0401 C.3     
  21 C21           -0.6167     5.4190    -1.6427 C.ar    
  22 C22           -2.1814     7.2185    -1.8620 C.ar    
  23 C23           -1.5174     7.6590    -2.9913 C.ar    
  24 C24           -0.4005     6.9806    -3.4456 C.ar    
  25 C25            0.0481     5.8585    -2.7719 C.ar    
  26 Cl26           0.4339     7.5332    -4.8641 Cl      
  27 O27            1.1742     3.4547     0.0089 O.3     
  28 C28            1.2486    -2.1565    -0.0210 C.2     
  29 O29            0.2068    -2.7832    -0.0140 O.2     
  30 N30            2.4276    -2.8094    -0.0357 N.am    
  31 C31            2.4402     4.1175     0.0004 C.3     
  32 H32           -0.9247    -0.5585     0.0082 H       
  33 H33            3.3641    -0.4837    -0.0323 H       
  34 H34            3.3269     1.9706    -0.0188 H       
  35 H35           -3.4662     6.0252     0.0518 H       
  36 H36           -2.2312     5.7460     2.1838 H       
  37 H37           -0.6951     5.6884     1.2864 H       
  38 H38           -1.6626     7.1823     1.2994 H       
  39 H39           -6.6456     1.2774    -0.9853 H       
  40 H40           -6.7442     0.3853     0.5518 H       
  41 H41           -6.5304     2.1523     0.5605 H       
  42 H42           -0.2664     4.5432    -1.1165 H       
  43 H43           -3.0535     7.7478    -1.5075 H       
  44 H44           -1.8707     8.5324    -3.5193 H       
  45 H45            0.9177     5.3263    -3.1282 H       
  46 H46            3.2588    -2.3095    -0.0413 H       
  47 H47            2.4449    -3.7793    -0.0408 H       
  48 H48            2.2856     5.1964     0.0073 H       
  49 H49            3.0087     3.8263     0.8837 H       
  50 H50            2.9921     3.8352    -0.8962 H       
@<TRIPOS>BOND
   1    1    2 ar
   2    1    6 ar
   3    1    7 1
   4    2    3 ar
   5    2   32 1
   6    3    4 ar
   7    3   28 1
   8    4    5 ar
   9    4   33 1
  10    5    6 ar
  11    5   34 1
  12    6   27 1
  13    7    8 2
  14    7   15 1
  15    8    9 1
  16    9   10 am
  17    9   17 1
  18   10   11 1
  19   10   16 2
  20   11   12 1
  21   11   15 2
  22   12   13 2
  23   12   20 1
  24   13   14 1
  25   14   15 1
  26   17   18 1
  27   17   19 1
  28   17   35 1
  29   18   36 1
  30   18   37 1
  31   18   38 1
  32   19   22 ar
  33   19   21 ar
  34   20   39 1
  35   20   40 1
  36   20   41 1
  37   21   25 ar
  38   21   42 1
  39   22   23 ar
  40   22   43 1
  41   23   24 ar
  42   23   44 1
  43   24   25 ar
  44   24   26 1
  45   25   45 1
  46   27   31 1
  47   28   29 2
  48   28   30 am
  49   30   46 1
  50   30   47 1
  51   31   48 1
  52   31   49 1
  53   31   50 1

#	End of record

