#	Name: ASD01870012
#	Creating user name:	WinNT
#	Creation time:	15. 06. 2019 19:38

#	Modifying user name:	WinNT
#	Modification time:	15. 06. 2019 19:38

#	Program:	/corina/corina34_cracker 3.40 0067  02.08.2006

@<TRIPOS>MOLECULE
ASD01870012
  45   47    0    0    0
SMALL
NO_CHARGES


@<TRIPOS>ATOM
   1 C1            -0.0166     1.3756     0.0096 C.ar    
   2 C2             0.0021    -0.0041     0.0020 C.ar    
   3 C3             1.2082    -0.6905    -0.0133 C.ar    
   4 C4             2.3936     0.0106    -0.0204 C.ar    
   5 C5             2.3737     1.3986    -0.0137 C.ar    
   6 C6             1.1734     2.0795     0.0020 C.ar    
   7 C7             1.1793    -2.1915    -0.0222 C.3     
   8 C8             2.4453    -2.7777     0.5328 C.ar    
   9 C9             3.6305    -2.0765     0.5280 C.ar    
  10 C10            3.7228    -0.6873    -0.0344 C.3     
  11 C11            2.4058    -4.0604     1.0617 C.ar    
  12 C12            3.5464    -4.6365     1.5825 C.ar    
  13 C13            4.7362    -3.9323     1.5778 C.ar    
  14 C14            4.7770    -2.6569     1.0526 C.ar    
  15 C15            4.2233    -0.7647    -1.4537 C.2     
  16 N16            4.3895     0.3634    -2.1721 N.am    
  17 C17            4.8372     0.2941    -3.4415 C.2     
  18 S18            5.0544     1.7690    -4.3808 S.3     
  19 C19            5.6499     1.0649    -5.9382 C.3     
  20 O20            4.4766    -1.8418    -1.9492 O.2     
  21 O21            5.0911    -0.7860    -3.9384 O.2     
  22 C22            5.9146     2.1915    -6.9390 C.3     
  23 C23            6.4181     1.5963    -8.2556 C.3     
  24 C24            6.6828     2.7229    -9.2564 C.3     
  25 H25           -0.9584     1.9043     0.0169 H       
  26 H26           -0.9278    -0.5533     0.0084 H       
  27 H27            3.3030     1.9488    -0.0203 H       
  28 H28            1.1637     3.1594     0.0072 H       
  29 H29            0.3365    -2.5340     0.5783 H       
  30 H30            1.0471    -2.5380    -1.0471 H       
  31 H31            4.4317    -0.1104     0.5595 H       
  32 H32            1.4766    -4.6108     1.0659 H       
  33 H33            3.5097    -5.6348     1.9931 H       
  34 H34            5.6312    -4.3789     1.9851 H       
  35 H35            5.7067    -2.1074     1.0488 H       
  36 H36            4.1869     1.2252    -1.7757 H       
  37 H37            6.5733     0.5142    -5.7585 H       
  38 H38            4.8967     0.3889    -6.3429 H       
  39 H39            4.9913     2.7422    -7.1188 H       
  40 H40            6.6679     2.8674    -6.5344 H       
  41 H41            7.3414     1.0456    -8.0758 H       
  42 H42            5.6648     0.9203    -8.6603 H       
  43 H43            5.7594     3.2736    -9.4361 H       
  44 H44            7.4360     3.3988    -8.8517 H       
  45 H45            7.0414     2.2989   -10.1943 H       
@<TRIPOS>BOND
   1    1    2 ar
   2    1    6 ar
   3    1   25 1
   4    2    3 ar
   5    2   26 1
   6    3    4 ar
   7    3    7 1
   8    4    5 ar
   9    4   10 1
  10    5    6 ar
  11    5   27 1
  12    6   28 1
  13    7    8 1
  14    7   29 1
  15    7   30 1
  16    8    9 ar
  17    8   11 ar
  18    9   10 1
  19    9   14 ar
  20   10   15 1
  21   10   31 1
  22   11   12 ar
  23   11   32 1
  24   12   13 ar
  25   12   33 1
  26   13   14 ar
  27   13   34 1
  28   14   35 1
  29   15   16 am
  30   15   20 2
  31   16   17 am
  32   16   36 1
  33   17   18 1
  34   17   21 2
  35   18   19 1
  36   19   22 1
  37   19   37 1
  38   19   38 1
  39   22   23 1
  40   22   39 1
  41   22   40 1
  42   23   24 1
  43   23   41 1
  44   23   42 1
  45   24   43 1
  46   24   44 1
  47   24   45 1

#	End of record

