#	Name: ASD01813546
#	Creating user name:	WinNT
#	Creation time:	15. 06. 2019 19:30

#	Modifying user name:	WinNT
#	Modification time:	15. 06. 2019 19:30

#	Program:	/corina/corina34_cracker 3.40 0067  02.08.2006

@<TRIPOS>MOLECULE
ASD01813546
  56   60    0    0    0
SMALL
NO_CHARGES


@<TRIPOS>ATOM
   1 C1            -0.0178     1.4648     0.0101 C.3     
   2 N2             0.0021    -0.0041     0.0020 N.3     
   3 C3             0.5317    -0.5147    -1.2639 C.3     
   4 N4             0.5865    -1.9769    -1.2590 N.am    
   5 C5             0.2846    -2.7308    -2.4784 C.3     
   6 H6             0.0418    -2.0374    -3.2835 H       
   7 C7             1.5027    -3.5671    -2.8756 C.3     
   8 C8             1.1875    -4.3544    -4.1490 C.3     
   9 C9            -0.0049    -5.2788    -3.8951 C.3     
  10 C10           -1.2230    -4.4425    -3.4979 C.3     
  11 C11           -0.9078    -3.6552    -2.2244 C.3     
  12 H12           -0.6650    -4.3486    -1.4193 H       
  13 O13           -2.0455    -2.8741    -1.8535 O.3     
  14 C14            0.9186    -2.6280    -0.1192 C.2     
  15 O15            1.0150    -3.8400    -0.0883 O.2     
  16 C16            1.1596    -1.8075     1.0849 C.ar    
  17 C17            1.8491    -2.3304     2.1895 C.ar    
  18 C18            2.0683    -1.5677     3.2913 C.ar    
  19 C19            2.8102    -2.1457     4.4688 C.3     
  20 C20            1.8212    -2.6770     5.4741 C.ar    
  21 C21            1.3313    -1.8557     6.4782 C.ar    
  22 C22            0.4229    -2.3864     7.3807 C.ar    
  23 C23            0.0378    -3.7089     7.2504 C.ar    
  24 Cl24          -1.0996    -4.3863     8.3734 Cl      
  25 N25            0.5253    -4.4610     6.2816 N.ar    
  26 C26            1.3869    -3.9870     5.4030 C.ar    
  27 C27            1.6058    -0.2391     3.3378 C.ar    
  28 C28            1.8243     0.5650     4.4725 C.ar    
  29 C29            1.3515     1.8463     4.4573 C.ar    
  30 C30            0.6738     2.3234     3.3371 C.ar    
  31 N31            0.4724     1.5708     2.2829 N.ar    
  32 C32            0.9081     0.3098     2.2349 C.ar    
  33 C33            0.6833    -0.4952     1.0962 C.ar    
  34 H34            0.9869     1.8407     0.2030 H       
  35 H35           -0.3624     1.8288    -0.9578 H       
  36 H36           -0.6928     1.8147     0.7911 H       
  37 H37           -0.1105    -0.1834    -2.0800 H       
  38 H38            1.5359    -0.1195    -1.4170 H       
  39 H39            2.3522    -2.9085    -3.0565 H       
  40 H40            1.7456    -4.2605    -2.0704 H       
  41 H41            0.9447    -3.6610    -4.9542 H       
  42 H42            2.0553    -4.9502    -4.4320 H       
  43 H43           -0.2295    -5.8398    -4.8023 H       
  44 H44            0.2379    -5.9723    -3.0899 H       
  45 H45           -1.4659    -3.7491    -4.3030 H       
  46 H46           -2.0725    -5.1011    -3.3169 H       
  47 H47           -2.8402    -3.3960    -1.6769 H       
  48 H48            2.2082    -3.3486     2.1633 H       
  49 H49            3.4547    -2.9567     4.1296 H       
  50 H50            3.4177    -1.3686     4.9326 H       
  51 H51            1.6504    -0.8268     6.5556 H       
  52 H52            0.0212    -1.7756     8.1756 H       
  53 H53            1.7609    -4.6314     4.6211 H       
  54 H54            2.3515     0.1788     5.3324 H       
  55 H55            1.5023     2.4887     5.3123 H       
  56 H56            0.3051     3.3385     3.3376 H       
@<TRIPOS>BOND
   1    1    2 1
   2    1   34 1
   3    1   35 1
   4    1   36 1
   5    2   33 1
   6    2    3 1
   7    3    4 1
   8    3   37 1
   9    3   38 1
  10    4    5 1
  11    4   14 am
  12    5    6 1
  13    5   11 1
  14    5    7 1
  15    7    8 1
  16    7   39 1
  17    7   40 1
  18    8    9 1
  19    8   41 1
  20    8   42 1
  21    9   10 1
  22    9   43 1
  23    9   44 1
  24   10   11 1
  25   10   45 1
  26   10   46 1
  27   11   12 1
  28   11   13 1
  29   13   47 1
  30   14   15 2
  31   14   16 1
  32   16   33 ar
  33   16   17 ar
  34   17   18 ar
  35   17   48 1
  36   18   19 1
  37   18   27 ar
  38   19   20 1
  39   19   49 1
  40   19   50 1
  41   20   26 ar
  42   20   21 ar
  43   21   22 ar
  44   21   51 1
  45   22   23 ar
  46   22   52 1
  47   23   24 1
  48   23   25 ar
  49   25   26 ar
  50   26   53 1
  51   27   32 ar
  52   27   28 ar
  53   28   29 ar
  54   28   54 1
  55   29   30 ar
  56   29   55 1
  57   30   31 ar
  58   30   56 1
  59   31   32 ar
  60   32   33 ar

#	End of record

