#	Name: ASD01903224
#	Creating user name:	WinNT
#	Creation time:	15. 06. 2019 19:54

#	Modifying user name:	WinNT
#	Modification time:	15. 06. 2019 19:54

#	Program:	/corina/corina34_cracker 3.40 0067  02.08.2006

@<TRIPOS>MOLECULE
ASD01903224
  31   33    0    0    0
SMALL
NO_CHARGES


@<TRIPOS>ATOM
   1 S1            -0.0211     1.7048     0.0114 S.3     
   2 C2             0.0021    -0.0041     0.0020 C.2     
   3 N3             1.2223    -0.4387    -0.0120 N.2     
   4 C4             2.1848     0.4759    -0.0162 C.2     
   5 C5             1.7398     1.7441    -0.0052 C.2     
   6 N6            -1.1247    -0.8104     0.0089 N.pl3   
   7 C7            -2.4587    -0.2050     0.0248 C.3     
   8 C8             3.6288     0.1276    -0.0311 C.2     
   9 C9             4.7037     1.0322     0.0635 C.2     
  10 N10            5.8164     0.3482     0.0143 N.2     
  11 N11            5.4985    -1.0095    -0.1127 N.pl3   
  12 C12            4.1539    -1.1269    -0.1330 C.2     
  13 C13           -2.9182     0.1008    -1.3837 C.2     
  14 N14           -3.8010    -0.8263    -1.7935 N.am    
  15 C15           -4.0305    -1.8392    -0.7564 C.3     
  16 C16           -3.5044    -1.2134     0.5544 C.3     
  17 O17           -2.5449     1.0454    -2.0466 O.2     
  18 C18           -4.4510    -0.8256    -3.1064 C.3     
  19 H19            2.3546     2.6321    -0.0066 H       
  20 H20           -1.0303    -1.7758     0.0031 H       
  21 H21           -2.4582     0.7009     0.6310 H       
  22 H22            4.6227     2.1048     0.1597 H       
  23 H23            6.1344    -1.7396    -0.1719 H       
  24 H24            3.5952    -2.0470    -0.2215 H       
  25 H25           -5.0952    -2.0561    -0.6701 H       
  26 H26           -3.4770    -2.7490    -0.9887 H       
  27 H27           -3.0343    -1.9676     1.1855 H       
  28 H28           -4.3036    -0.7013     1.0904 H       
  29 H29           -4.1060     0.0332    -3.6821 H       
  30 H30           -4.1991    -1.7438    -3.6371 H       
  31 H31           -5.5316    -0.7658    -2.9768 H       
@<TRIPOS>BOND
   1    1    2 1
   2    1    5 1
   3    2    3 2
   4    2    6 1
   5    3    4 1
   6    4    5 2
   7    4    8 1
   8    5   19 1
   9    6    7 1
  10    6   20 1
  11    7   13 1
  12    7   16 1
  13    7   21 1
  14    8    9 1
  15    8   12 2
  16    9   10 2
  17    9   22 1
  18   10   11 1
  19   11   12 1
  20   11   23 1
  21   12   24 1
  22   13   14 am
  23   13   17 2
  24   14   15 1
  25   14   18 1
  26   15   16 1
  27   15   25 1
  28   15   26 1
  29   16   27 1
  30   16   28 1
  31   18   29 1
  32   18   30 1
  33   18   31 1

#	End of record

