#	Name: ASD08150289
#	Creating user name:	WinNT
#	Creation time:	15. 06. 2019 21:15

#	Modifying user name:	WinNT
#	Modification time:	15. 06. 2019 21:15

#	Program:	/corina/corina34_cracker 3.40 0067  02.08.2006

@<TRIPOS>MOLECULE
ASD08150289
  71   75    0    0    0
SMALL
NO_CHARGES


@<TRIPOS>ATOM
   1 O1            -1.5351     2.1805    -0.1752 O.3     
   2 C2            -1.7341     0.8781     0.0557 C.2     
   3 N3            -0.7778     0.3074     0.8010 N.am    
   4 C4             0.2276     1.3243     1.1454 C.3     
   5 C5            -0.3005     2.6054     0.4714 C.3     
   6 O6            -2.6945     0.2683    -0.3710 O.2     
   7 C7             0.2414    -2.7377     2.3801 C.ar    
   8 N8             0.2038    -1.4664     2.0101 N.ar    
   9 C9            -0.7420    -1.0280     1.1863 C.ar    
  10 C10           -1.6986    -1.9262     0.7140 C.ar    
  11 C11           -1.6243    -3.2456     1.1243 C.ar    
  12 N12           -0.6532    -3.6141     1.9482 N.ar    
  13 N13            1.2436    -3.1623     3.2348 N.3     
  14 C14            1.1148    -4.5975     3.5260 C.3     
  15 C15            2.2743    -5.0366     4.4241 C.3     
  16 O16            2.2778    -4.2412     5.6126 O.3     
  17 C17            2.4024    -2.8380     5.3660 C.3     
  18 C18            1.2442    -2.3766     4.4774 C.3     
  19 Cl19          -2.7899    -4.4052     0.5669 Cl      
  20 C20            0.7001     3.1169    -0.5668 C.3     
  21 O21            0.1998     4.3170    -1.1598 O.3     
  22 Si22           1.2059     4.9846    -2.2563 Si      
  23 C23            0.7092     6.7600    -2.5573 C.ar    
  24 C24            1.6264     7.7763    -2.3658 C.ar    
  25 C25            1.2588     9.0901    -2.5885 C.ar    
  26 C26           -0.0259     9.3876    -3.0031 C.ar    
  27 C27           -0.9429     8.3712    -3.1955 C.ar    
  28 C28           -0.5740     7.0571    -2.9769 C.ar    
  29 C29            2.9574     4.9292    -1.6092 C.ar    
  30 C30            3.3982     5.8955    -0.7244 C.ar    
  31 C31            4.6943     5.8545    -0.2455 C.ar    
  32 C32            5.5495     4.8470    -0.6511 C.ar    
  33 C33            5.1084     3.8802    -1.5352 C.ar    
  34 C34            3.8109     3.9187    -2.0107 C.ar    
  35 C35            1.1037     4.0318    -3.8539 C.3     
  36 C36           -0.2222     4.3444    -4.5503 C.3     
  37 C37            2.2654     4.4359    -4.7639 C.3     
  38 C38            1.1842     2.5325    -3.5596 C.3     
  39 H39            0.2847     1.4558     2.2259 H       
  40 H40            1.2020     1.0521     0.7397 H       
  41 H41           -0.5047     3.3734     1.2175 H       
  42 H42           -2.4797    -1.5993     0.0435 H       
  43 H43            0.1693    -4.7820     4.0361 H       
  44 H44            1.1424    -5.1619     2.5939 H       
  45 H45            2.1519    -6.0867     4.6893 H       
  46 H46            3.2169    -4.9021     3.8934 H       
  47 H47            2.3726    -2.2980     6.3123 H       
  48 H48            3.3487    -2.6396     4.8626 H       
  49 H49            1.3663    -1.3199     4.2398 H       
  50 H50            0.3008    -2.5256     5.0027 H       
  51 H51            1.6544     3.3219    -0.0815 H       
  52 H52            0.8405     2.3610    -1.3395 H       
  53 H53            2.6302     7.5439    -2.0419 H       
  54 H54            1.9752     9.8842    -2.4383 H       
  55 H55           -0.3133    10.4142    -3.1764 H       
  56 H56           -1.9467     8.6037    -3.5190 H       
  57 H57           -1.2893     6.2627    -3.1307 H       
  58 H58            2.7301     6.6826    -0.4075 H       
  59 H59            5.0389     6.6099     0.4452 H       
  60 H60            6.5623     4.8154    -0.2775 H       
  61 H61            5.7766     3.0932    -1.8523 H       
  62 H62            3.4652     3.1612    -2.6985 H       
  63 H63           -0.3088     5.4205    -4.7006 H       
  64 H64           -0.2537     3.8390    -5.5155 H       
  65 H65           -1.0488     3.9963    -3.9308 H       
  66 H66            3.2055     4.1082    -4.3202 H       
  67 H67            2.1418     3.9676    -5.7404 H       
  68 H68            2.2764     5.5197    -4.8794 H       
  69 H69            0.2827     2.2164    -3.0346 H       
  70 H70            1.2706     1.9824    -4.4966 H       
  71 H71            2.0564     2.3305    -2.9379 H       
@<TRIPOS>BOND
   1    1    2 1
   2    1    5 1
   3    2    3 am
   4    2    6 2
   5    3    4 1
   6    3    9 1
   7    4    5 1
   8    4   39 1
   9    4   40 1
  10    5   20 1
  11    5   41 1
  12    7    8 ar
  13    7   12 ar
  14    7   13 1
  15    8    9 ar
  16    9   10 ar
  17   10   11 ar
  18   10   42 1
  19   11   12 ar
  20   11   19 1
  21   13   14 1
  22   13   18 1
  23   14   15 1
  24   14   43 1
  25   14   44 1
  26   15   16 1
  27   15   45 1
  28   15   46 1
  29   16   17 1
  30   17   18 1
  31   17   47 1
  32   17   48 1
  33   18   49 1
  34   18   50 1
  35   20   21 1
  36   20   51 1
  37   20   52 1
  38   21   22 1
  39   22   23 1
  40   22   29 1
  41   22   35 1
  42   23   24 ar
  43   23   28 ar
  44   24   25 ar
  45   24   53 1
  46   25   26 ar
  47   25   54 1
  48   26   27 ar
  49   26   55 1
  50   27   28 ar
  51   27   56 1
  52   28   57 1
  53   29   30 ar
  54   29   34 ar
  55   30   31 ar
  56   30   58 1
  57   31   32 ar
  58   31   59 1
  59   32   33 ar
  60   32   60 1
  61   33   34 ar
  62   33   61 1
  63   34   62 1
  64   35   36 1
  65   35   38 1
  66   35   37 1
  67   36   63 1
  68   36   64 1
  69   36   65 1
  70   37   66 1
  71   37   67 1
  72   37   68 1
  73   38   69 1
  74   38   70 1
  75   38   71 1

#	End of record

