#	Name: ASD03090780
#	Creating user name:	WinNT
#	Creation time:	15. 06. 2019 20:29

#	Modifying user name:	WinNT
#	Modification time:	15. 06. 2019 20:29

#	Program:	/corina/corina34_cracker 3.40 0067  02.08.2006

@<TRIPOS>MOLECULE
ASD03090780
  21   22    0    0    0
SMALL
NO_CHARGES


@<TRIPOS>ATOM
   1 O1            -0.0162     1.3424     0.0094 O.3     
   2 C2             0.0021    -0.0041     0.0020 C.2     
   3 O3             1.0616    -0.5968    -0.0113 O.2     
   4 C4            -1.2712    -0.7625     0.0101 C.ar    
   5 C5            -1.2329    -2.1614     0.0022 C.ar    
   6 C6            -2.4163    -2.8771     0.0101 C.ar    
   7 O7            -2.4122    -4.2330     0.0033 O.3     
   8 C8            -3.6296    -2.1534     0.0261 C.ar    
   9 C9            -3.5873    -0.7359     0.0332 C.ar    
  10 N10           -2.4144    -0.1021     0.0300 N.ar    
  11 C11           -4.7978    -0.0167     0.0491 C.ar    
  12 C12           -5.9813    -0.6872     0.0572 C.ar    
  13 C13           -6.0186    -2.0805     0.0502 C.ar    
  14 C14           -4.8688    -2.8104     0.0344 C.ar    
  15 H15            0.8393     1.7931     0.0037 H       
  16 H16           -0.2851    -2.6789    -0.0103 H       
  17 H17           -2.4024    -4.6308     0.8846 H       
  18 H18           -4.7866     1.0633     0.0551 H       
  19 H19           -6.9069    -0.1310     0.0698 H       
  20 H20           -6.9719    -2.5880     0.0569 H       
  21 H21           -4.9111    -3.8896     0.0287 H       
@<TRIPOS>BOND
   1    1    2 1
   2    1   15 1
   3    2    3 2
   4    2    4 1
   5    4    5 ar
   6    4   10 ar
   7    5    6 ar
   8    5   16 1
   9    6    7 1
  10    6    8 ar
  11    7   17 1
  12    8    9 ar
  13    8   14 ar
  14    9   10 ar
  15    9   11 ar
  16   11   12 ar
  17   11   18 1
  18   12   13 ar
  19   12   19 1
  20   13   14 ar
  21   13   20 1
  22   14   21 1

#	End of record

