#	Name: ASD00071035
#	Creating user name:	WinNT
#	Creation time:	15. 06. 2019 18:30

#	Modifying user name:	WinNT
#	Modification time:	15. 06. 2019 18:30

#	Program:	/corina/corina34_cracker 3.40 0067  02.08.2006

@<TRIPOS>MOLECULE
ASD00071035
  36   38    0    0    0
SMALL
NO_CHARGES


@<TRIPOS>ATOM
   1 N1             1.8060     1.2517    -1.2050 N.ar    
   2 C2             1.6206    -0.0522    -1.1932 C.ar    
   3 C3             1.3538    -0.7447    -0.0031 C.ar    
   4 C4             1.2822    -0.0658     1.1757 C.ar    
   5 C5             1.4820     1.3298     1.1564 C.ar    
   6 C6             1.4224     2.0898     2.3345 C.ar    
   7 C7             1.6209     3.4362     2.2788 C.ar    
   8 C8             1.8829     4.0700     1.0654 C.ar    
   9 C9             1.9476     3.3615    -0.0970 C.ar    
  10 C10            1.7475     1.9713    -0.0782 C.ar    
  11 N11            1.6905    -0.7570    -2.3855 N.pl3   
  12 C12            1.1461    -2.2371    -0.0285 C.3     
  13 C13            1.0102    -2.7494     1.3822 C.ar    
  14 C14           -0.2404    -2.8550     1.9627 C.ar    
  15 C15           -0.3651    -3.3254     3.2580 C.ar    
  16 C16            0.7598    -3.6906     3.9743 C.ar    
  17 C17            2.0110    -3.5863     3.3986 C.ar    
  18 C18            2.1388    -3.1208     2.0976 C.ar    
  19 O19            3.3685    -3.0232     1.5274 O.3     
  20 C20            4.4861    -3.4234     2.3230 C.3     
  21 Cl21          -1.6546    -2.3967     1.0662 Cl      
  22 Cl22           2.1301     5.7880     1.0343 Cl      
  23 H23            1.0772    -0.5832     2.1012 H       
  24 H24            1.2197     1.6098     3.2805 H       
  25 H25            1.5745     4.0201     3.1862 H       
  26 H26            2.1511     3.8672    -1.0294 H       
  27 H27            1.7888    -0.2812    -3.2251 H       
  28 H28            1.6410    -1.7257    -2.3800 H       
  29 H29            0.2397    -2.4683    -0.5879 H       
  30 H30            2.0007    -2.7147    -0.5078 H       
  31 H31           -1.3424    -3.4070     3.7103 H       
  32 H32            0.6600    -4.0575     4.9852 H       
  33 H33            2.8891    -3.8715     3.9590 H       
  34 H34            4.5306    -2.8090     3.2222 H       
  35 H35            4.3757    -4.4709     2.6038 H       
  36 H36            5.4044    -3.2957     1.7499 H       
@<TRIPOS>BOND
   1    1    2 ar
   2    1   10 ar
   3    2    3 ar
   4    2   11 1
   5    3    4 ar
   6    3   12 1
   7    4    5 ar
   8    4   23 1
   9    5    6 ar
  10    5   10 ar
  11    6    7 ar
  12    6   24 1
  13    7    8 ar
  14    7   25 1
  15    8    9 ar
  16    8   22 1
  17    9   10 ar
  18    9   26 1
  19   11   27 1
  20   11   28 1
  21   12   13 1
  22   12   29 1
  23   12   30 1
  24   13   14 ar
  25   13   18 ar
  26   14   15 ar
  27   14   21 1
  28   15   16 ar
  29   15   31 1
  30   16   17 ar
  31   16   32 1
  32   17   18 ar
  33   17   33 1
  34   18   19 1
  35   19   20 1
  36   20   34 1
  37   20   35 1
  38   20   36 1

#	End of record

