#	Name: ASD03430885
#	Creating user name:	WinNT
#	Creation time:	15. 06. 2019 20:41

#	Modifying user name:	WinNT
#	Modification time:	15. 06. 2019 20:41

#	Program:	/corina/corina34_cracker 3.40 0067  02.08.2006

@<TRIPOS>MOLECULE
ASD03430885
  35   39    0    0    0
SMALL
NO_CHARGES


@<TRIPOS>ATOM
   1 O1            -0.0175     1.4361     0.0099 O.3     
   2 C2             0.0021    -0.0041     0.0020 C.3     
   3 C3             1.3454    -0.3160    -0.6707 C.3     
   4 C4             2.1586     0.9236    -0.4085 C.ar    
   5 C5             1.2625     1.9065     0.0002 C.ar    
   6 C6             1.7490     3.1687     0.3261 C.ar    
   7 C7             3.1027     3.4452     0.2337 C.ar    
   8 C8             3.9872     2.4570    -0.1829 C.ar    
   9 C9             3.5068     1.1965    -0.5027 C.ar    
  10 N10            2.1653    -2.4009    -1.1244 N.am    
  11 C11            1.9859    -1.5472    -0.0969 C.2     
  12 C12            1.1899    -0.5944    -2.1363 C.ar    
  13 C13            0.6771     0.1260    -3.1921 C.ar    
  14 C14            0.6756    -0.4147    -4.4657 C.ar    
  15 C15            1.1903    -1.6806    -4.6767 C.ar    
  16 C16            1.7054    -2.4082    -3.6215 C.ar    
  17 C17            1.7087    -1.8709    -2.3349 C.ar    
  18 O18            2.2839    -1.7360     1.0636 O.2     
  19 O19            5.3220     2.7085    -0.2773 O.3     
  20 O20            3.5525     4.6910     0.5497 O.3     
  21 C21            4.9551     4.8243     0.8028 C.3     
  22 F22            2.2061    -3.6445    -3.8365 F       
  23 C23            5.7166     4.0845    -0.3053 C.3     
  24 H24           -0.0221    -0.3969     1.0185 H       
  25 H25           -0.8262    -0.3990    -0.5863 H       
  26 H26            1.0658     3.9385     0.6532 H       
  27 H27            4.1906     0.4262    -0.8276 H       
  28 H28            2.5649    -3.2802    -1.0345 H       
  29 H29            0.2752     1.1145    -3.0256 H       
  30 H30            0.2730     0.1506    -5.2932 H       
  31 H31            1.1900    -2.1021    -5.6711 H       
  32 H32            5.2310     5.8788     0.7973 H       
  33 H33            5.1972     4.3856     1.7708 H       
  34 H34            6.7895     4.1630    -0.1297 H       
  35 H35            5.4693     4.5184    -1.2742 H       
@<TRIPOS>BOND
   1    1    2 1
   2    1    5 1
   3    2    3 1
   4    2   24 1
   5    2   25 1
   6    3    4 1
   7    3   11 1
   8    3   12 1
   9    4    5 ar
  10    4    9 ar
  11    5    6 ar
  12    6    7 ar
  13    6   26 1
  14    7    8 ar
  15    7   20 1
  16    8    9 ar
  17    8   19 1
  18    9   27 1
  19   10   11 am
  20   10   17 1
  21   10   28 1
  22   11   18 2
  23   12   13 ar
  24   12   17 ar
  25   13   14 ar
  26   13   29 1
  27   14   15 ar
  28   14   30 1
  29   15   16 ar
  30   15   31 1
  31   16   17 ar
  32   16   22 1
  33   19   23 1
  34   20   21 1
  35   21   23 1
  36   21   32 1
  37   21   33 1
  38   23   34 1
  39   23   35 1

#	End of record

