#	Name: ASD01028727
#	Creating user name:	WinNT
#	Creation time:	15. 06. 2019 18:58

#	Modifying user name:	WinNT
#	Modification time:	15. 06. 2019 18:58

#	Program:	/corina/corina34_cracker 3.40 0067  02.08.2006

@<TRIPOS>MOLECULE
ASD01028727
  43   47    0    0    0
SMALL
NO_CHARGES


@<TRIPOS>ATOM
   1 N1            -0.0157     1.3060     0.0092 N.ar    
   2 C2             0.0021    -0.0041     0.0020 C.ar    
   3 C3             1.2021    -0.7221    -0.0133 C.ar    
   4 C4             2.3969    -0.0518    -0.0211 C.ar    
   5 C5             2.3684     1.3549    -0.0132 C.ar    
   6 C6             3.5529     2.1090    -0.0204 C.ar    
   7 C7             3.4849     3.4690    -0.0125 C.ar    
   8 C8             2.2549     4.1229     0.0031 C.ar    
   9 C9             1.0873     3.4233     0.0109 C.ar    
  10 C10            1.1159     2.0180     0.0022 C.ar    
  11 O11            1.1831    -2.0810    -0.0200 O.3     
  12 C12            4.7568     4.2772    -0.0202 C.3     
  13 C13            6.2326     5.2507    -3.2152 C.2     
  14 C14            7.2494     5.9049    -3.9427 C.2     
  15 C15            8.2506     6.5338    -3.2708 C.2     
  16 C16            8.2583     6.5232    -1.8565 C.2     
  17 C17            7.2693     5.8876    -1.1731 C.2     
  18 N18            6.2630     5.2550    -1.8430 N.pl3   
  19 N19            4.5340     4.1664    -2.5208 N.2     
  20 N20            5.1526     4.5745    -3.5727 N.2     
  21 C21            5.1673     4.5542    -1.4435 C.2     
  22 N22           10.6726     8.7583    -0.3178 N.pl3   
  23 N23           11.0990     7.5204     0.1783 N.2     
  24 C24           10.3123     6.5903    -0.2951 C.2     
  25 C25            9.3491     7.2078    -1.1161 C.2     
  26 C26            9.6001     8.5483    -1.1086 C.2     
  27 C27           11.2820    10.0577    -0.0238 C.3     
  28 F28            7.2287     5.9060    -5.2935 F       
  29 F29            4.5441     5.4879     0.6478 F       
  30 F30            5.7692     3.5597     0.6259 F       
  31 H31           -0.9337    -0.5432     0.0084 H       
  32 H32            3.3343    -0.5880    -0.0325 H       
  33 H33            4.5124     1.6133    -0.0318 H       
  34 H34            2.2273     5.2025     0.0094 H       
  35 H35            0.1424     3.9461     0.0237 H       
  36 H36            1.1690    -2.4698    -0.9053 H       
  37 H37            9.0358     7.0384    -3.8142 H       
  38 H38            7.2808     5.8831    -0.0932 H       
  39 H39           10.3879     5.5323    -0.0922 H       
  40 H40            9.0413     9.3048    -1.6397 H       
  41 H41           12.0567    10.2707    -0.7605 H       
  42 H42           10.5186    10.8346    -0.0645 H       
  43 H43           11.7243    10.0346     0.9722 H       
@<TRIPOS>BOND
   1    1    2 ar
   2    1   10 ar
   3    2    3 ar
   4    2   31 1
   5    3    4 ar
   6    3   11 1
   7    4    5 ar
   8    4   32 1
   9    5    6 ar
  10    5   10 ar
  11    6    7 ar
  12    6   33 1
  13    7    8 ar
  14    7   12 1
  15    8    9 ar
  16    8   34 1
  17    9   10 ar
  18    9   35 1
  19   11   36 1
  20   12   21 1
  21   12   29 1
  22   12   30 1
  23   13   14 1
  24   13   18 1
  25   13   20 2
  26   14   15 2
  27   14   28 1
  28   15   16 1
  29   15   37 1
  30   16   17 2
  31   16   25 1
  32   17   18 1
  33   17   38 1
  34   18   21 1
  35   19   20 1
  36   19   21 2
  37   22   23 1
  38   22   26 1
  39   22   27 1
  40   23   24 2
  41   24   25 1
  42   24   39 1
  43   25   26 2
  44   26   40 1
  45   27   41 1
  46   27   42 1
  47   27   43 1

#	End of record

