#	Name: ASD01816741
#	Creating user name:	WinNT
#	Creation time:	15. 06. 2019 19:35

#	Modifying user name:	WinNT
#	Modification time:	15. 06. 2019 19:35

#	Program:	/corina/corina34_cracker 3.40 0067  02.08.2006

@<TRIPOS>MOLECULE
ASD01816741
  57   61    0    0    0
SMALL
NO_CHARGES


@<TRIPOS>ATOM
   1 C1            -0.0167     1.3960     0.0134 C.2     
   2 C2             0.0025    -0.0052    -0.0038 C.2     
   3 C3             1.1989    -0.6602    -0.0251 C.2     
   4 C4             2.3922     0.0815    -0.0294 C.2     
   5 N5             2.3439     1.4491    -0.0119 N.am    
   6 C6             1.1420     2.0927     0.0089 C.2     
   7 C7             3.6230    -0.5886    -0.0512 C.2     
   8 C8             4.7879     0.1231    -0.0556 C.2     
   9 C9             4.7340     1.5284    -0.0381 C.2     
  10 C10            3.4813     2.1731    -0.0160 C.2     
  11 C11            3.6605    -2.0951    -0.0693 C.3     
  12 O12            3.4256     3.3913    -0.0007 O.2     
  13 C13            5.9710     2.3159    -0.0418 C.2     
  14 N14            7.1647     1.6963     0.0459 N.am    
  15 O15            5.9198     3.5292    -0.1240 O.2     
  16 N16            3.7777    -2.5654    -1.4560 N.3     
  17 C17            4.0547    -4.0079    -1.5013 C.3     
  18 C18            4.0904    -4.4723    -2.9592 C.3     
  19 N19            5.1213    -3.7179    -3.6858 N.3     
  20 C20            4.8442    -2.2754    -3.6405 C.3     
  21 C21            4.8085    -1.8110    -2.1826 C.3     
  22 C22            5.2323    -4.1635    -4.9997 C.ar    
  23 C23            6.1571    -3.5744    -5.8568 C.ar    
  24 C24            6.2696    -4.0126    -7.1568 C.ar    
  25 C25            5.4538    -5.0511    -7.6158 C.ar    
  26 C26            4.5262    -5.6410    -6.7519 C.ar    
  27 C27            4.4224    -5.2011    -5.4517 C.ar    
  28 C28            8.4025     2.4710    -0.0711 C.3     
  29 C29            9.6588     1.8993     0.5891 C.3     
  30 C30            9.5224     1.8872    -0.9348 C.3     
  31 C31            5.5677    -5.5093    -8.9677 C.1     
  32 N32            5.6581    -5.8727   -10.0402 N.1     
  33 H33           -0.9603     1.9212     0.0259 H       
  34 H34           -0.9228    -0.5622     0.0001 H       
  35 H35            1.2286    -1.7397    -0.0382 H       
  36 H36            1.1153     3.1723     0.0225 H       
  37 H37            5.7397    -0.3869    -0.0720 H       
  38 H38            4.5177    -2.4441     0.5064 H       
  39 H39            2.7434    -2.4866     0.3709 H       
  40 H40            7.2041     0.7373     0.1865 H       
  41 H41            5.0180    -4.2081    -1.0321 H       
  42 H42            3.2711    -4.5456    -0.9674 H       
  43 H43            4.3244    -5.5362    -2.9963 H       
  44 H44            3.1185    -4.2970    -3.4206 H       
  45 H45            5.6278    -1.7377    -4.1743 H       
  46 H46            3.8810    -2.0752    -4.1096 H       
  47 H47            4.5746    -0.7471    -2.1455 H       
  48 H48            5.7804    -1.9863    -1.7212 H       
  49 H49            6.7870    -2.7722    -5.5016 H       
  50 H50            6.9869    -3.5545    -7.8216 H       
  51 H51            3.8943    -6.4432    -7.1034 H       
  52 H52            3.7063    -5.6566    -4.7838 H       
  53 H53            8.2812     3.5542    -0.0686 H       
  54 H54           10.3642     2.6065     1.0256 H       
  55 H55            9.5643     0.9468     1.1105 H       
  56 H56            9.3381     0.9266    -1.4159 H       
  57 H57           10.1380     2.5863    -1.5008 H       
@<TRIPOS>BOND
   1    1    2 1
   2    1    6 2
   3    1   33 1
   4    2    3 2
   5    2   34 1
   6    3    4 1
   7    3   35 1
   8    4    5 1
   9    4    7 2
  10    5    6 1
  11    5   10 am
  12    6   36 1
  13    7    8 1
  14    7   11 1
  15    8    9 2
  16    8   37 1
  17    9   10 1
  18    9   13 1
  19   10   12 2
  20   11   16 1
  21   11   38 1
  22   11   39 1
  23   13   15 2
  24   13   14 am
  25   14   28 1
  26   14   40 1
  27   16   17 1
  28   16   21 1
  29   17   18 1
  30   17   41 1
  31   17   42 1
  32   18   19 1
  33   18   43 1
  34   18   44 1
  35   19   20 1
  36   19   22 1
  37   20   21 1
  38   20   45 1
  39   20   46 1
  40   21   47 1
  41   21   48 1
  42   22   23 ar
  43   22   27 ar
  44   23   24 ar
  45   23   49 1
  46   24   25 ar
  47   24   50 1
  48   25   26 ar
  49   25   31 1
  50   26   27 ar
  51   26   51 1
  52   27   52 1
  53   28   29 1
  54   28   30 1
  55   28   53 1
  56   29   30 1
  57   29   54 1
  58   29   55 1
  59   30   56 1
  60   30   57 1
  61   31   32 3

#	End of record

