#	Name: ASD03092016
#	Creating user name:	WinNT
#	Creation time:	15. 06. 2019 20:31

#	Modifying user name:	WinNT
#	Modification time:	15. 06. 2019 20:31

#	Program:	/corina/corina34_cracker 3.40 0067  02.08.2006

@<TRIPOS>MOLECULE
ASD03092016
  41   43    0    0    0
SMALL
NO_CHARGES


@<TRIPOS>ATOM
   1 N1             0.1186     1.3380     0.0503 N.am    
   2 C2            -0.0069    -0.0255    -0.0085 C.2     
   3 C3            -1.3391    -0.3098    -0.0575 C.2     
   4 C4            -2.0396     0.9069    -0.0277 C.2     
   5 N5            -1.1700     1.8869     0.0420 N.2     
   6 C6             1.2752     2.0273     0.1111 C.2     
   7 N7             1.2612     3.3737     0.0505 N.am    
   8 C8             2.5184     4.1229     0.1166 C.3     
   9 N9            -3.4293     1.0496    -0.0616 N.pl3   
  10 C10           -4.0057     2.3129     0.0920 C.ar    
  11 C11           -5.2608     2.5737    -0.4406 C.ar    
  12 C12           -5.8292     3.8284    -0.2860 C.ar    
  13 C13           -5.1430     4.8204     0.4002 C.ar    
  14 C14           -3.8933     4.5592     0.9299 C.ar    
  15 C15           -3.3258     3.3087     0.7832 C.ar    
  16 C16            1.0993    -1.0074    -0.0178 C.ar    
  17 O17            2.3305     1.4349     0.2206 O.2     
  18 C18            2.2829    -0.7390    -0.7141 C.ar    
  19 C19            3.2876    -1.6907    -0.6914 C.ar    
  20 C20            3.0917    -2.8653     0.0119 C.ar    
  21 N21            1.9645    -3.0915     0.6592 N.ar    
  22 C22            0.9822    -2.2145     0.6725 C.ar    
  23 O23           -7.0576     4.0871    -0.8066 O.3     
  24 C24           -7.5821     5.4016    -0.6093 C.3     
  25 F25           -6.7221     6.3390    -1.1915 F       
  26 F26           -8.8446     5.4942    -1.2048 F       
  27 F27           -7.6929     5.6587     0.7614 F       
  28 H28           -1.7778    -1.2953    -0.1097 H       
  29 H29            0.4188     3.8465    -0.0368 H       
  30 H30            2.3088     5.1907     0.0529 H       
  31 H31            3.0209     3.9069     1.0595 H       
  32 H32            3.1608     3.8286    -0.7133 H       
  33 H33           -3.9938     0.2716    -0.1918 H       
  34 H34           -5.7932     1.8006    -0.9746 H       
  35 H35           -5.5859     5.7981     0.5202 H       
  36 H36           -3.3615     5.3333     1.4632 H       
  37 H37           -2.3492     3.1072     1.1981 H       
  38 H38            2.4092     0.1869    -1.2556 H       
  39 H39            4.2148    -1.5180    -1.2177 H       
  40 H40            3.8740    -3.6096     0.0314 H       
  41 H41            0.0744    -2.4355     1.2141 H       
@<TRIPOS>BOND
   1    1    2 1
   2    1    6 am
   3    1    5 1
   4    2    3 2
   5    2   16 1
   6    3    4 1
   7    3   28 1
   8    4    5 2
   9    4    9 1
  10    6    7 am
  11    6   17 2
  12    7    8 1
  13    7   29 1
  14    8   30 1
  15    8   31 1
  16    8   32 1
  17    9   10 1
  18    9   33 1
  19   10   11 ar
  20   10   15 ar
  21   11   12 ar
  22   11   34 1
  23   12   13 ar
  24   12   23 1
  25   13   14 ar
  26   13   35 1
  27   14   15 ar
  28   14   36 1
  29   15   37 1
  30   16   18 ar
  31   16   22 ar
  32   18   19 ar
  33   18   38 1
  34   19   20 ar
  35   19   39 1
  36   20   21 ar
  37   20   40 1
  38   21   22 ar
  39   22   41 1
  40   23   24 1
  41   24   25 1
  42   24   26 1
  43   24   27 1

#	End of record

