#	Name: ASD03430273
#	Creating user name:	WinNT
#	Creation time:	15. 06. 2019 20:40

#	Modifying user name:	WinNT
#	Modification time:	15. 06. 2019 20:40

#	Program:	/corina/corina34_cracker 3.40 0067  02.08.2006

@<TRIPOS>MOLECULE
ASD03430273
  56   60    0    0    0
SMALL
NO_CHARGES


@<TRIPOS>ATOM
   1 C1            -0.0167     1.3778     0.0096 C.ar    
   2 C2             0.0021    -0.0041     0.0020 C.ar    
   3 C3             1.2027    -0.6814    -0.0134 C.ar    
   4 C4             2.4093     0.0137    -0.0102 C.ar    
   5 C5             2.3858     1.4047    -0.0075 C.ar    
   6 C6             1.1790     2.0825     0.0020 C.ar    
   7 O7             3.4712    -0.8404     0.0027 O.3     
   8 C8             1.5516    -2.1451    -0.0498 C.3     
   9 C9             3.0381    -2.1437    -0.4323 C.3     
  10 C10            0.4247    -3.8626     0.9995 C.ar    
  11 C11            1.3128    -2.8232     1.2664 C.ar    
  12 C12            0.7205    -2.9032    -1.0448 C.2     
  13 N13            0.0984    -3.8823    -0.3586 N.am    
  14 O14            0.6271    -2.6782    -2.2330 O.2     
  15 C15            1.7760    -2.6089     2.5449 C.ar    
  16 C16            1.3606    -3.4290     3.5794 C.ar    
  17 C17            0.4794    -4.4638     3.3258 C.ar    
  18 C18            0.0123    -4.6827     2.0463 C.ar    
  19 C19            2.4313     4.1034    -0.0044 C.3     
  20 O20            1.1649     3.4414     0.0038 O.3     
  21 C21           -0.8136    -4.8545    -0.9664 C.3     
  22 N22           -2.1855    -4.3309    -0.9254 N.3     
  23 C23           -3.0083    -4.9261    -1.9877 C.3     
  24 C24           -4.4460    -4.4166    -1.8617 C.3     
  25 N25           -4.4530    -2.9499    -1.9534 N.3     
  26 C26           -3.6302    -2.3547    -0.8911 C.3     
  27 C27           -2.1925    -2.8643    -1.0171 C.3     
  28 C28           -5.8249    -2.4264    -1.9124 C.3     
  29 C29           -1.3301     2.1165     0.0198 C.3     
  30 H30           -0.9268    -0.5551     0.0085 H       
  31 H31            3.3132     1.9581    -0.0125 H       
  32 H32            3.1605    -2.2525    -1.5100 H       
  33 H33            3.5756    -2.9280     0.1005 H       
  34 H34            2.4646    -1.8003     2.7408 H       
  35 H35            1.7242    -3.2612     4.5824 H       
  36 H36            0.1555    -5.1039     4.1331 H       
  37 H37           -0.6757    -5.4931     1.8560 H       
  38 H38            2.9849     3.8175    -0.8987 H       
  39 H39            2.2772     5.1824    -0.0019 H       
  40 H40            2.9976     3.8152     0.8812 H       
  41 H41           -0.5218    -5.0282    -2.0021 H       
  42 H42           -0.7660    -5.7925    -0.4133 H       
  43 H43           -2.6062    -4.6434    -2.9606 H       
  44 H44           -2.9974    -6.0118    -1.8909 H       
  45 H45           -5.0516    -4.8342    -2.6661 H       
  46 H46           -4.8573    -4.7228    -0.8998 H       
  47 H47           -3.6411    -1.2691    -0.9879 H       
  48 H48           -4.0323    -2.6375     0.0817 H       
  49 H49           -1.5869    -2.4467    -0.2128 H       
  50 H50           -1.7812    -2.5581    -1.9790 H       
  51 H51           -6.2981    -2.7202    -0.9755 H       
  52 H52           -5.8010    -1.3389    -1.9820 H       
  53 H53           -6.3936    -2.8316    -2.7494 H       
  54 H54           -1.6420     2.2890     1.0499 H       
  55 H55           -1.2130     3.0731    -0.4894 H       
  56 H56           -2.0855     1.5217    -0.4937 H       
@<TRIPOS>BOND
   1    1    2 ar
   2    1    6 ar
   3    1   29 1
   4    2    3 ar
   5    2   30 1
   6    3    4 ar
   7    3    8 1
   8    4    5 ar
   9    4    7 1
  10    5    6 ar
  11    5   31 1
  12    6   20 1
  13    7    9 1
  14    8    9 1
  15    8   11 1
  16    8   12 1
  17    9   32 1
  18    9   33 1
  19   10   11 ar
  20   10   13 1
  21   10   18 ar
  22   11   15 ar
  23   12   13 am
  24   12   14 2
  25   13   21 1
  26   15   16 ar
  27   15   34 1
  28   16   17 ar
  29   16   35 1
  30   17   18 ar
  31   17   36 1
  32   18   37 1
  33   19   20 1
  34   19   38 1
  35   19   39 1
  36   19   40 1
  37   21   22 1
  38   21   41 1
  39   21   42 1
  40   22   23 1
  41   22   27 1
  42   23   24 1
  43   23   43 1
  44   23   44 1
  45   24   25 1
  46   24   45 1
  47   24   46 1
  48   25   26 1
  49   25   28 1
  50   26   27 1
  51   26   47 1
  52   26   48 1
  53   27   49 1
  54   27   50 1
  55   28   51 1
  56   28   52 1
  57   28   53 1
  58   29   54 1
  59   29   55 1
  60   29   56 1

#	End of record

