#	Name: ASD01910545
#	Creating user name:	WinNT
#	Creation time:	15. 06. 2019 19:56

#	Modifying user name:	WinNT
#	Modification time:	15. 06. 2019 19:56

#	Program:	/corina/corina34_cracker 3.40 0067  02.08.2006

@<TRIPOS>MOLECULE
ASD01910545
  41   44    0    0    0
SMALL
NO_CHARGES


@<TRIPOS>ATOM
   1 O1             0.1344     0.6475    -0.2422 O.3     
   2 C2             0.2875    -0.6870    -0.2042 C.2     
   3 N3             1.5916    -0.9162    -0.1530 N.2     
   4 C4             2.1692     0.2942    -0.1624 C.2     
   5 N5             1.2218     1.1839    -0.2173 N.2     
   6 C6            -0.7812    -1.6942    -0.2170 C.2     
   7 C7            -2.1347    -1.4437    -0.2710 C.2     
   8 C8            -2.7844    -2.6846    -0.2632 C.2     
   9 C9            -1.8359    -3.6487    -0.2058 C.2     
  10 N10           -0.6120    -3.0583    -0.1833 N.pl3   
  11 C11            3.9741     1.4082     1.1261 C.3     
  12 C12            3.6494     0.5733    -0.1166 C.3     
  13 C13            4.0619     1.3492    -1.3696 C.3     
  14 C14            5.5705     1.6046    -1.3400 C.3     
  15 C15            5.9170     2.4512    -0.1112 C.3     
  16 N16            5.3948     1.7808     1.0875 N.am    
  17 C17            6.2037     1.5124     2.1315 C.2     
  18 C18            5.6400     0.9572     3.3790 C.ar    
  19 O19            7.3972     1.7272     2.0466 O.2     
  20 Br20          -4.6538    -2.9635    -0.3223 Br      
  21 C21            6.3092    -0.0524     4.0713 C.ar    
  22 N22            5.8079    -0.5483     5.1835 N.ar    
  23 C23            4.6645    -0.1166     5.6860 C.ar    
  24 C24            3.9397     0.8852     5.0565 C.ar    
  25 C25            4.4273     1.4404     3.8892 C.ar    
  26 F26            4.1937    -0.6595     6.8301 F       
  27 H27           -2.6063    -0.4729    -0.3114 H       
  28 H28           -2.0212    -4.7125    -0.1860 H       
  29 H29            0.2391    -3.5219    -0.1435 H       
  30 H30            3.3601     2.3088     1.1318 H       
  31 H31            3.7744     0.8216     2.0228 H       
  32 H32            4.1966    -0.3685    -0.0753 H       
  33 H33            3.8093     0.7677    -2.2563 H       
  34 H34            3.5328     2.3017    -1.3975 H       
  35 H35            6.0996     0.6530    -1.2872 H       
  36 H36            5.8672     2.1367    -2.2438 H       
  37 H37            6.9993     2.5527    -0.0308 H       
  38 H38            5.4615     3.4368    -0.2063 H       
  39 H39            7.2466    -0.4310     3.6914 H       
  40 H40            3.0064     1.2299     5.4766 H       
  41 H41            3.8840     2.2218     3.3786 H       
@<TRIPOS>BOND
   1    1    2 1
   2    1    5 1
   3    2    3 2
   4    2    6 1
   5    3    4 1
   6    4    5 2
   7    4   12 1
   8    6    7 2
   9    6   10 1
  10    7    8 1
  11    7   27 1
  12    8    9 2
  13    8   20 1
  14    9   10 1
  15    9   28 1
  16   10   29 1
  17   11   12 1
  18   11   16 1
  19   11   30 1
  20   11   31 1
  21   12   13 1
  22   12   32 1
  23   13   14 1
  24   13   33 1
  25   13   34 1
  26   14   15 1
  27   14   35 1
  28   14   36 1
  29   15   16 1
  30   15   37 1
  31   15   38 1
  32   16   17 am
  33   17   18 1
  34   17   19 2
  35   18   21 ar
  36   18   25 ar
  37   21   22 ar
  38   21   39 1
  39   22   23 ar
  40   23   24 ar
  41   23   26 1
  42   24   25 ar
  43   24   40 1
  44   25   41 1

#	End of record

