#	Name: ASD03091391
#	Creating user name:	WinNT
#	Creation time:	15. 06. 2019 20:30

#	Modifying user name:	WinNT
#	Modification time:	15. 06. 2019 20:30

#	Program:	/corina/corina34_cracker 3.40 0067  02.08.2006

@<TRIPOS>MOLECULE
ASD03091391
  31   33    0    0    0
SMALL
NO_CHARGES


@<TRIPOS>ATOM
   1 O1            -0.0162     1.3424     0.0094 O.3     
   2 C2             0.0021    -0.0041     0.0020 C.2     
   3 N3             1.2601    -0.3803    -0.0120 N.2     
   4 N4             2.0178     0.6594    -0.0137 N.2     
   5 C5             1.2756     1.7396    -0.0008 C.2     
   6 C6             1.7617     3.1349     0.0016 C.ar    
   7 C7             3.1324     3.3999    -0.0100 C.ar    
   8 C8             3.5794     4.7049    -0.0076 C.ar    
   9 C9             2.6728     5.7500     0.0067 C.ar    
  10 C10            1.3130     5.4945     0.0187 C.ar    
  11 C11            0.8523     4.1942     0.0098 C.ar    
  12 S12           -1.4039    -1.0661     0.0106 S.3     
  13 C13           -0.5804    -2.6778    -0.0064 C.3     
  14 C14           -1.6171    -3.7716    -0.0017 C.ar    
  15 C15           -2.1047    -4.2669    -1.1967 C.ar    
  16 C16           -3.0556    -5.2702    -1.1924 C.ar    
  17 C17           -3.5186    -5.7785     0.0068 C.ar    
  18 C18           -3.0303    -5.2839     1.2018 C.ar    
  19 C19           -2.0762    -4.2836     1.1974 C.ar    
  20 H20            3.8411     2.5850    -0.0204 H       
  21 H21            4.6395     4.9113    -0.0166 H       
  22 H22            3.0281     6.7699     0.0089 H       
  23 H23            0.6107     6.3148     0.0306 H       
  24 H24           -0.2094     3.9961     0.0139 H       
  25 H25            0.0334    -2.7628    -0.9031 H       
  26 H26            0.0515    -2.7723     0.8767 H       
  27 H27           -1.7430    -3.8697    -2.1336 H       
  28 H28           -3.4371    -5.6566    -2.1259 H       
  29 H29           -4.2621    -6.5619     0.0102 H       
  30 H30           -3.3923    -5.6808     2.1387 H       
  31 H31           -1.6920    -3.8998     2.1309 H       
@<TRIPOS>BOND
   1    1    2 1
   2    1    5 1
   3    2    3 2
   4    2   12 1
   5    3    4 1
   6    4    5 2
   7    5    6 1
   8    6    7 ar
   9    6   11 ar
  10    7    8 ar
  11    7   20 1
  12    8    9 ar
  13    8   21 1
  14    9   10 ar
  15    9   22 1
  16   10   11 ar
  17   10   23 1
  18   11   24 1
  19   12   13 1
  20   13   14 1
  21   13   25 1
  22   13   26 1
  23   14   15 ar
  24   14   19 ar
  25   15   16 ar
  26   15   27 1
  27   16   17 ar
  28   16   28 1
  29   17   18 ar
  30   17   29 1
  31   18   19 ar
  32   18   30 1
  33   19   31 1

#	End of record

