#	Name: ASD03240079
#	Creating user name:	WinNT
#	Creation time:	15. 06. 2019 20:34

#	Modifying user name:	WinNT
#	Modification time:	15. 06. 2019 20:34

#	Program:	/corina/corina34_cracker 3.40 0067  02.08.2006

@<TRIPOS>MOLECULE
ASD03240079
  71   77    0    0    0
SMALL
NO_CHARGES


@<TRIPOS>ATOM
   1 C1            -0.0172     1.4138     0.0098 C.ar    
   2 C2             0.0021    -0.0041     0.0020 C.ar    
   3 C3             1.1899     2.1215     0.0021 C.ar    
   4 C4             2.3727     1.3932    -0.0131 C.ar    
   5 C5             2.3170    -0.0166    -0.0202 C.ar    
   6 N6             1.1626    -0.6586    -0.0127 N.ar    
   7 C7             3.5787    -0.7927    -0.0370 C.ar    
   8 C8             3.6807     2.0905    -0.0224 C.ar    
   9 C9             3.9247     3.1083    -0.9433 C.ar    
  10 C10            5.1444     3.7538    -0.9472 C.ar    
  11 C11            6.1240     3.3928    -0.0396 C.ar    
  12 C12            5.8878     2.3833     0.8762 C.ar    
  13 C13            4.6698     1.7349     0.8936 C.ar    
  14 C14            3.6643    -2.0048     0.6474 C.ar    
  15 C15            4.8422    -2.7233     0.6277 C.ar    
  16 C16            5.9369    -2.2433    -0.0688 C.ar    
  17 C17            5.8581    -1.0416    -0.7497 C.ar    
  18 C18            4.6839    -0.3169    -0.7421 C.ar    
  19 C19            7.2206    -3.0325    -0.0855 C.3     
  20 N20            7.2105    -3.9599    -1.2247 N.3     
  21 C21            8.5308    -4.5739    -1.4152 C.3     
  22 C22            8.5229    -5.4180    -2.6917 C.3     
  23 C23            7.4475    -6.5016    -2.5746 C.3     
  24 C24            6.0899    -5.8378    -2.3284 C.3     
  25 C25            6.1683    -4.9815    -1.0624 C.3     
  26 N26            7.3956    -7.2762    -3.8170 N.am    
  27 C27            7.6179    -8.6463    -3.9333 C.ar    
  28 C28            7.4700    -8.9659    -5.2844 C.ar    
  29 N29            7.1625    -7.7801    -5.9472 N.am    
  30 C30            7.1193    -6.7860    -5.0402 C.2     
  31 C31            7.9295    -9.6408    -3.0186 C.ar    
  32 C32            8.0923   -10.9432    -3.4481 C.ar    
  33 C33            7.9456   -11.2601    -4.7877 C.ar    
  34 C34            7.6353   -10.2764    -5.7061 C.ar    
  35 O35            6.8760    -5.6200    -5.2893 O.2     
  36 N36           -1.1688    -0.6584     0.0102 N.ar    
  37 C37           -2.3092     0.0057     0.0251 C.ar    
  38 N38           -2.3708     1.3340     0.0324 N.ar    
  39 C39           -1.2709     2.0739     0.0312 C.ar    
  40 N40           -1.3450     3.4496     0.0388 N.pl3   
  41 N41           -3.4908    -0.7106     0.0331 N.pl3   
  42 H42            1.2016     3.2014     0.0075 H       
  43 H43            3.1608     3.3908    -1.6526 H       
  44 H44            5.3346     4.5422    -1.6604 H       
  45 H45            7.0770     3.9008    -0.0464 H       
  46 H46            6.6566     2.1052     1.5819 H       
  47 H47            4.4863     0.9471     1.6093 H       
  48 H48            2.8106    -2.3801     1.1921 H       
  49 H49            4.9097    -3.6621     1.1573 H       
  50 H50            6.7161    -0.6720    -1.2917 H       
  51 H51            4.6236     0.6211    -1.2740 H       
  52 H52            8.0654    -2.3502    -0.1799 H       
  53 H53            7.3118    -3.5976     0.8422 H       
  54 H54            9.2858    -3.7924    -1.5012 H       
  55 H55            8.7623    -5.2098    -0.5607 H       
  56 H56            8.3051    -4.7802    -3.5484 H       
  57 H57            9.4983    -5.8861    -2.8245 H       
  58 H58            7.6860    -7.1630    -1.7416 H       
  59 H59            5.8337    -5.2066    -3.1794 H       
  60 H60            5.3269    -6.6058    -2.2016 H       
  61 H61            6.4108    -5.6155    -0.2096 H       
  62 H62            5.2073    -4.4961    -0.8922 H       
  63 H63            7.0028    -7.6869    -6.8995 H       
  64 H64            8.0450    -9.3973    -1.9728 H       
  65 H65            8.3353   -11.7178    -2.7358 H       
  66 H66            8.0744   -12.2809    -5.1161 H       
  67 H67            7.5214   -10.5274    -6.7504 H       
  68 H68           -2.2098     3.8888     0.0451 H       
  69 H69           -0.5322     3.9791     0.0379 H       
  70 H70           -3.4701    -1.6803     0.0278 H       
  71 H71           -4.3409    -0.2436     0.0441 H       
@<TRIPOS>BOND
   1    1    2 ar
   2    1    3 ar
   3    1   39 ar
   4    2   36 ar
   5    2    6 ar
   6    3    4 ar
   7    3   42 1
   8    4    5 ar
   9    4    8 1
  10    5    6 ar
  11    5    7 1
  12    7   14 ar
  13    7   18 ar
  14    8    9 ar
  15    8   13 ar
  16    9   10 ar
  17    9   43 1
  18   10   11 ar
  19   10   44 1
  20   11   12 ar
  21   11   45 1
  22   12   13 ar
  23   12   46 1
  24   13   47 1
  25   14   15 ar
  26   14   48 1
  27   15   16 ar
  28   15   49 1
  29   16   17 ar
  30   16   19 1
  31   17   18 ar
  32   17   50 1
  33   18   51 1
  34   19   20 1
  35   19   52 1
  36   19   53 1
  37   20   21 1
  38   20   25 1
  39   21   22 1
  40   21   54 1
  41   21   55 1
  42   22   23 1
  43   22   56 1
  44   22   57 1
  45   23   24 1
  46   23   26 1
  47   23   58 1
  48   24   25 1
  49   24   59 1
  50   24   60 1
  51   25   61 1
  52   25   62 1
  53   26   27 1
  54   26   30 am
  55   27   28 ar
  56   27   31 ar
  57   28   29 1
  58   28   34 ar
  59   29   30 am
  60   29   63 1
  61   30   35 2
  62   31   32 ar
  63   31   64 1
  64   32   33 ar
  65   32   65 1
  66   33   34 ar
  67   33   66 1
  68   34   67 1
  69   36   37 ar
  70   37   38 ar
  71   37   41 1
  72   38   39 ar
  73   39   40 1
  74   40   68 1
  75   40   69 1
  76   41   70 1
  77   41   71 1

#	End of record

