#	Name: ASD02500788
#	Creating user name:	WinNT
#	Creation time:	15. 06. 2019 20:23

#	Modifying user name:	WinNT
#	Modification time:	15. 06. 2019 20:23

#	Program:	/corina/corina34_cracker 3.40 0067  02.08.2006

@<TRIPOS>MOLECULE
ASD02500788
  47   50    0    0    0
SMALL
NO_CHARGES


@<TRIPOS>ATOM
   1 N1            -0.0160     1.3296     0.0094 N.am    
   2 C2             0.0021    -0.0041     0.0020 C.2     
   3 C3             1.2717    -0.8072     0.0806 C.3     
   4 N4             2.4162     0.0882    -0.1449 N.am    
   5 C5             2.3873     1.4017     0.5204 C.3     
   6 C6             1.1716     2.1727     0.0025 C.3     
   7 O7            -1.0537    -0.5965    -0.0710 O.2     
   8 S8             3.6861    -0.3624    -1.1075 S.o2    
   9 O9             4.8011     0.4132    -0.6898 O.2     
  10 O10            3.6910    -1.7833    -1.1262 O.2     
  11 O11            2.4115     1.3462    -6.6019 O.3     
  12 C12            2.7100     0.9653    -5.3298 C.ar    
  13 C13            3.3920     1.8210    -4.4724 C.ar    
  14 O14            3.7724     3.0614    -4.8837 O.3     
  15 C15            3.7876     3.2942    -6.2963 C.3     
  16 C16            2.4806     2.7476    -6.8870 C.3     
  17 C17            3.6896     1.4109    -3.1817 C.ar    
  18 C18            3.3063     0.1554    -2.7483 C.ar    
  19 C19            2.6261    -0.6944    -3.5999 C.ar    
  20 C20            2.3278    -0.2924    -4.8884 C.ar    
  21 S21           -1.4924     2.0795     0.0202 S.o2    
  22 O22           -1.2867     3.3784    -0.5181 O.2     
  23 O23           -2.4187     1.1499    -0.5250 O.2     
  24 C24           -1.9497     2.3065     1.7066 C.ar    
  25 C25           -1.5867     3.4643     2.3729 C.ar    
  26 C26           -1.9466     3.6416     3.6982 C.ar    
  27 C27           -2.6680     2.6631     4.3558 C.ar    
  28 C28           -3.0309     1.5067     3.6916 C.ar    
  29 C29           -2.6771     1.3298     2.3646 C.ar    
  30 F30           -3.0372     0.2019     1.7138 F       
  31 F31           -0.8812     4.4207     1.7304 F       
  32 H32            1.3543    -1.2639     1.0669 H       
  33 H33            1.2600    -1.5843    -0.6836 H       
  34 H34            2.3048     1.2660     1.5988 H       
  35 H35            3.2987     1.9522     0.2871 H       
  36 H36            1.3671     2.5089    -1.0157 H       
  37 H37            0.9993     3.0404     0.6392 H       
  38 H38            3.8602     4.3640    -6.4919 H       
  39 H39            4.6374     2.7795    -6.7446 H       
  40 H40            2.4709     2.9043    -7.9656 H       
  41 H41            1.6307     3.2574    -6.4333 H       
  42 H42            4.2213     2.0730    -2.5144 H       
  43 H43            2.3275    -1.6745    -3.2582 H       
  44 H44            1.7962    -0.9584    -5.5519 H       
  45 H45           -1.6632     4.5447     4.2183 H       
  46 H46           -2.9479     2.8021     5.3896 H       
  47 H47           -3.5943     0.7427     4.2066 H       
@<TRIPOS>BOND
   1    1    2 am
   2    1    6 1
   3    1   21 am
   4    2    3 1
   5    2    7 2
   6    3    4 1
   7    3   32 1
   8    3   33 1
   9    4    5 1
  10    4    8 am
  11    5    6 1
  12    5   34 1
  13    5   35 1
  14    6   36 1
  15    6   37 1
  16    8    9 2
  17    8   10 2
  18    8   18 1
  19   11   12 1
  20   11   16 1
  21   12   13 ar
  22   12   20 ar
  23   13   14 1
  24   13   17 ar
  25   14   15 1
  26   15   16 1
  27   15   38 1
  28   15   39 1
  29   16   40 1
  30   16   41 1
  31   17   18 ar
  32   17   42 1
  33   18   19 ar
  34   19   20 ar
  35   19   43 1
  36   20   44 1
  37   21   22 2
  38   21   23 2
  39   21   24 1
  40   24   25 ar
  41   24   29 ar
  42   25   26 ar
  43   25   31 1
  44   26   27 ar
  45   26   45 1
  46   27   28 ar
  47   27   46 1
  48   28   29 ar
  49   28   47 1
  50   29   30 1

#	End of record

