#	Name: ASD06020199
#	Creating user name:	WinNT
#	Creation time:	15. 06. 2019 21:04

#	Modifying user name:	WinNT
#	Modification time:	15. 06. 2019 21:04

#	Program:	/corina/corina34_cracker 3.40 0067  02.08.2006

@<TRIPOS>MOLECULE
ASD06020199
  50   50    0    0    0
SMALL
NO_CHARGES


@<TRIPOS>ATOM
   1 C1             2.7070     2.1528     1.7349 C.2     
   2 N2             3.3238     0.9862     2.0087 N.am    
   3 S3             2.0539     2.4475     0.1251 S.3     
   4 S4             2.5517     3.3456     2.9531 S.2     
   5 C5             3.9779     0.7901     3.3049 C.3     
   6 C6             3.2558    -0.3149     4.0785 C.3     
   7 C7             5.4374     0.3878     3.0839 C.3     
   8 C8             3.3403    -0.0857     1.0103 C.3     
   9 C9             1.9049    -0.4286     0.6065 C.3     
  10 C10            4.1200     0.3771    -0.2221 C.3     
  11 C11           -0.1043     4.0696     0.5917 C.ar    
  12 C12            1.2659     4.0003     0.3941 C.ar    
  13 C13            2.0136     5.1832     0.4120 C.ar    
  14 C14            1.3424     6.3834     0.6290 C.ar    
  15 C15           -0.0252     6.3646     0.8172 C.ar    
  16 N16           -0.6984     5.2299     0.7943 N.ar    
  17 C17            4.1841     6.0360     0.8735 C.2     
  18 C18            5.6829     5.9425     0.7477 C.3     
  19 C19            6.3347     7.0448     1.5850 C.3     
  20 C20            6.1525     4.5756     1.2498 C.3     
  21 C21            6.0832     6.1120    -0.7192 C.3     
  22 O22            3.6862     6.8993     1.5646 O.2     
  23 N23            3.3969     5.1602     0.2178 N.am    
  24 H24            3.9391     1.7180     3.8755 H       
  25 H25            3.2172    -1.2186     3.4702 H       
  26 H26            3.7940    -0.5222     5.0034 H       
  27 H27            2.2417     0.0088     4.3129 H       
  28 H28            5.4787    -0.4903     2.4395 H       
  29 H29            5.9736     1.2109     2.6114 H       
  30 H30            5.8998     0.1563     4.0435 H       
  31 H31            3.8196    -0.9687     1.4330 H       
  32 H32            1.4569     0.4249     0.0977 H       
  33 H33            1.9115    -1.2885    -0.0634 H       
  34 H34            1.3238    -0.6666     1.4974 H       
  35 H35            5.1138     0.7078     0.0798 H       
  36 H36            4.2106    -0.4498    -0.9264 H       
  37 H37            3.5912     1.2031    -0.6976 H       
  38 H38           -0.6926     3.1640     0.5756 H       
  39 H39            1.8845     7.3172     0.6502 H       
  40 H40           -0.5517     7.2923     0.9859 H       
  41 H41            6.0495     6.9240     2.6300 H       
  42 H42            7.4188     6.9772     1.4940 H       
  43 H43            6.0001     8.0186     1.2273 H       
  44 H44            5.6882     3.7903     0.6534 H       
  45 H45            7.2366     4.5080     1.1589 H       
  46 H46            5.8673     4.4548     2.2949 H       
  47 H47            5.7487     7.0858    -1.0769 H       
  48 H48            7.1673     6.0444    -0.8101 H       
  49 H49            5.6189     5.3267    -1.3156 H       
  50 H50            3.7908     4.5140    -0.3889 H       
@<TRIPOS>BOND
   1    1    2 am
   2    1    3 1
   3    1    4 2
   4    2    5 1
   5    2    8 1
   6    3   12 1
   7    5    6 1
   8    5    7 1
   9    5   24 1
  10    6   25 1
  11    6   26 1
  12    6   27 1
  13    7   28 1
  14    7   29 1
  15    7   30 1
  16    8    9 1
  17    8   10 1
  18    8   31 1
  19    9   32 1
  20    9   33 1
  21    9   34 1
  22   10   35 1
  23   10   36 1
  24   10   37 1
  25   11   12 ar
  26   11   16 ar
  27   11   38 1
  28   12   13 ar
  29   13   14 ar
  30   13   23 1
  31   14   15 ar
  32   14   39 1
  33   15   16 ar
  34   15   40 1
  35   17   18 1
  36   17   22 2
  37   17   23 am
  38   18   19 1
  39   18   20 1
  40   18   21 1
  41   19   41 1
  42   19   42 1
  43   19   43 1
  44   20   44 1
  45   20   45 1
  46   20   46 1
  47   21   47 1
  48   21   48 1
  49   21   49 1
  50   23   50 1

#	End of record

