#	Name: ASD01940632
#	Creating user name:	WinNT
#	Creation time:	15. 06. 2019 20:12

#	Modifying user name:	WinNT
#	Modification time:	15. 06. 2019 20:12

#	Program:	/corina/corina34_cracker 3.40 0067  02.08.2006

@<TRIPOS>MOLECULE
ASD01940632
  49   51    0    0    0
SMALL
NO_CHARGES


@<TRIPOS>ATOM
   1 C1            -0.1220     1.1584     0.4639 C.ar    
   2 C2            -0.1441    -0.2417     0.5585 C.ar    
   3 C3             1.0436    -0.9415     0.6856 C.ar    
   4 C4             2.2526    -0.2650     0.7197 C.ar    
   5 C5             2.2871     1.1161     0.6276 C.ar    
   6 C6             1.1089     1.8362     0.4993 C.ar    
   7 N7             1.1451     3.2219     0.4061 N.pl3   
   8 C8             2.1955     3.9353     0.9934 C.ar    
   9 C9             2.9684     3.3457     1.9843 C.ar    
  10 C10            4.0052     4.0527     2.5627 C.ar    
  11 C11            4.2742     5.3467     2.1560 C.ar    
  12 C12            3.5066     5.9388     1.1686 C.ar    
  13 C13            2.4714     5.2353     0.5816 C.ar    
  14 F14            1.7253     5.8112    -0.3863 F       
  15 I15            5.8472     6.4135     3.0374 I       
  16 F16            3.4057    -0.9580     0.8440 F       
  17 C17           -1.3773     1.9106     0.3226 C.2     
  18 O18           -1.9715     2.2939     1.3125 O.2     
  19 N19           -1.8697     2.1756    -0.9037 N.am    
  20 O20           -1.3256    -0.9071     0.5260 O.3     
  21 C21           -1.3084    -2.2487     0.7413 C.ar    
  22 C22           -1.1718    -2.7440     2.0300 C.ar    
  23 C23           -1.1545    -4.1085     2.2461 C.ar    
  24 C24           -1.2726    -4.9801     1.1795 C.ar    
  25 C25           -1.4084    -4.4890    -0.1062 C.ar    
  26 C26           -1.4329    -3.1258    -0.3270 C.ar    
  27 C27           -1.0062    -4.6472     3.6457 C.3     
  28 N28           -2.3315    -4.8158     4.2470 N.am    
  29 S29           -2.5086    -5.7267     5.6186 S.o2    
  30 N30           -1.6881    -4.9521     6.8307 N.am    
  31 O31           -3.8855    -5.6675     5.9646 O.2     
  32 O32           -1.8183    -6.9461     5.3824 O.2     
  33 H33            1.0279    -2.0189     0.7589 H       
  34 H34            3.2344     1.6340     0.6558 H       
  35 H35            0.4421     3.6947    -0.0662 H       
  36 H36            2.7592     2.3353     2.3032 H       
  37 H37            4.6062     3.5939     3.3339 H       
  38 H38            3.7189     6.9497     0.8534 H       
  39 H39           -1.3959     1.8700    -1.6931 H       
  40 H40           -2.6979     2.6718    -0.9970 H       
  41 H41           -1.0788    -2.0636     2.8635 H       
  42 H42           -1.2585    -6.0464     1.3505 H       
  43 H43           -1.5001    -5.1720    -0.9378 H       
  44 H44           -1.5438    -2.7427    -1.3307 H       
  45 H45           -0.4972    -5.6105     3.6122 H       
  46 H46           -0.4220    -3.9482     4.2441 H       
  47 H47           -3.1052    -4.3940     3.8417 H       
  48 H48           -1.9883    -5.0348     7.7494 H       
  49 H49           -0.9073    -4.4158     6.6220 H       
@<TRIPOS>BOND
   1    1    2 ar
   2    1    6 ar
   3    1   17 1
   4    2    3 ar
   5    2   20 1
   6    3    4 ar
   7    3   33 1
   8    4    5 ar
   9    4   16 1
  10    5    6 ar
  11    5   34 1
  12    6    7 1
  13    7    8 1
  14    7   35 1
  15    8    9 ar
  16    8   13 ar
  17    9   10 ar
  18    9   36 1
  19   10   11 ar
  20   10   37 1
  21   11   12 ar
  22   11   15 1
  23   12   13 ar
  24   12   38 1
  25   13   14 1
  26   17   18 2
  27   17   19 am
  28   19   39 1
  29   19   40 1
  30   20   21 1
  31   21   22 ar
  32   21   26 ar
  33   22   23 ar
  34   22   41 1
  35   23   24 ar
  36   23   27 1
  37   24   25 ar
  38   24   42 1
  39   25   26 ar
  40   25   43 1
  41   26   44 1
  42   27   28 1
  43   27   45 1
  44   27   46 1
  45   28   29 am
  46   28   47 1
  47   29   30 am
  48   29   31 2
  49   29   32 2
  50   30   48 1
  51   30   49 1

#	End of record

