#	Name: ASD07931940
#	Creating user name:	WinNT
#	Creation time:	15. 06. 2019 21:13

#	Modifying user name:	WinNT
#	Modification time:	15. 06. 2019 21:13

#	Program:	/corina/corina34_cracker 3.40 0067  02.08.2006

@<TRIPOS>MOLECULE
ASD07931940
  37   37    0    0    0
SMALL
NO_CHARGES


@<TRIPOS>ATOM
   1 C1            -0.0169     1.3923     0.0097 C.ar    
   2 C2             0.0021    -0.0041     0.0020 C.ar    
   3 N3             1.1281     2.0772     0.0024 N.ar    
   4 N4             1.1520    -0.6486    -0.0124 N.ar    
   5 C5             2.2983     0.0345    -0.0197 C.ar    
   6 C6             2.2762     1.4396    -0.0119 C.ar    
   7 C7            -1.3054     2.1114     0.0197 C.2     
   8 O8            -2.3487     1.4887     0.0212 O.2     
   9 O9            -1.3250     3.4588     0.0271 O.3     
  10 C10            3.5800    -0.6804    -0.0352 C.2     
  11 C11            3.5999    -2.0235    -0.0422 C.2     
  12 N12            4.8008    -2.6933    -0.0568 N.pl3   
  13 C13            6.0585    -1.9421    -0.0647 C.3     
  14 C14            4.8225    -4.1581    -0.0644 C.3     
  15 C15           -2.6281     4.0991     0.0367 C.3     
  16 C16           -3.3980     3.6699     1.2873 C.3     
  17 C17           -2.4497     5.6187     0.0442 C.3     
  18 C18           -3.4098     3.6835    -1.2111 C.3     
  19 H19           -0.9260    -0.5563     0.0083 H       
  20 H20            3.2026     1.9947    -0.0181 H       
  21 H21            4.5072    -0.1266    -0.0411 H       
  22 H22            2.6727    -2.5773    -0.0363 H       
  23 H23            6.3800    -1.7609     0.9609 H       
  24 H24            6.8220    -2.5172    -0.5886 H       
  25 H25            5.9093    -0.9891    -0.5724 H       
  26 H26            4.3058    -4.5245    -0.9514 H       
  27 H27            5.8553    -4.5062    -0.0758 H       
  28 H28            4.3224    -4.5335     0.8285 H       
  29 H29           -2.8412     3.9660     2.1763 H       
  30 H30           -4.3763     4.1506     1.2945 H       
  31 H31           -3.5251     2.5874     1.2820 H       
  32 H32           -1.9013     5.9245    -0.8468 H       
  33 H33           -3.4280     6.0993     0.0514 H       
  34 H34           -1.8929     5.9148     0.9331 H       
  35 H35           -3.5369     2.6009    -1.2164 H       
  36 H36           -4.3881     4.1641    -1.2039 H       
  37 H37           -2.8614     3.9893    -2.1020 H       
@<TRIPOS>BOND
   1    1    2 ar
   2    1    3 ar
   3    1    7 1
   4    2    4 ar
   5    2   19 1
   6    3    6 ar
   7    4    5 ar
   8    5    6 ar
   9    5   10 1
  10    6   20 1
  11    7    8 2
  12    7    9 1
  13    9   15 1
  14   10   11 2
  15   10   21 1
  16   11   12 1
  17   11   22 1
  18   12   13 1
  19   12   14 1
  20   13   23 1
  21   13   24 1
  22   13   25 1
  23   14   26 1
  24   14   27 1
  25   14   28 1
  26   15   16 1
  27   15   18 1
  28   15   17 1
  29   16   29 1
  30   16   30 1
  31   16   31 1
  32   17   32 1
  33   17   33 1
  34   17   34 1
  35   18   35 1
  36   18   36 1
  37   18   37 1

#	End of record

