#	Name: ASD00122063
#	Creating user name:	WinNT
#	Creation time:	15. 06. 2019 18:31

#	Modifying user name:	WinNT
#	Modification time:	15. 06. 2019 18:31

#	Program:	/corina/corina34_cracker 3.40 0067  02.08.2006

@<TRIPOS>MOLECULE
ASD00122063
  25   25    0    0    0
SMALL
NO_CHARGES


@<TRIPOS>ATOM
   1 C1            -0.0166     1.3726     0.0096 C.ar    
   2 C2             0.0021    -0.0041     0.0020 C.ar    
   3 C3             1.2232    -0.6845    -0.0133 C.ar    
   4 C4             2.4207     0.0368    -0.0210 C.ar    
   5 C5             2.3930     1.4132    -0.0133 C.ar    
   6 C6             1.1765     2.0859     0.0020 C.ar    
   7 O7             1.1537     3.4427     0.0095 O.3     
   8 C8            -0.1302     4.0698     0.0253 C.3     
   9 C9             0.0447     5.5898     0.0317 C.3     
  10 C10            2.3745    -4.2639    -0.0426 C.3     
  11 C11            1.2480    -2.1589    -0.0210 C.2     
  12 O12            0.2061    -2.7841    -0.0140 O.2     
  13 O13            2.4260    -2.8129    -0.0358 O.3     
  14 H14           -0.9596     1.8990     0.0169 H       
  15 H15           -0.9253    -0.5575     0.0083 H       
  16 H16            3.3661    -0.4851    -0.0325 H       
  17 H17            3.3177     1.9712    -0.0188 H       
  18 H18           -0.6907     3.7724    -0.8610 H       
  19 H19           -0.6736     3.7628     0.9189 H       
  20 H20            0.6052     5.8873     0.9180 H       
  21 H21            0.5881     5.8968    -0.8619 H       
  22 H22           -0.9346     6.0682     0.0437 H       
  23 H23            1.8568    -4.6133     0.8507 H       
  24 H24            1.8394    -4.6043    -0.9291 H       
  25 H25            3.3885    -4.6635    -0.0545 H       
@<TRIPOS>BOND
   1    1    2 ar
   2    1    6 ar
   3    1   14 1
   4    2    3 ar
   5    2   15 1
   6    3    4 ar
   7    3   11 1
   8    4    5 ar
   9    4   16 1
  10    5    6 ar
  11    5   17 1
  12    6    7 1
  13    7    8 1
  14    8    9 1
  15    8   18 1
  16    8   19 1
  17    9   20 1
  18    9   21 1
  19    9   22 1
  20   10   13 1
  21   10   23 1
  22   10   24 1
  23   10   25 1
  24   11   12 2
  25   11   13 1

#	End of record

