#	Name: ASD07110003
#	Creating user name:	WinNT
#	Creation time:	15. 06. 2019 21:08

#	Modifying user name:	WinNT
#	Modification time:	15. 06. 2019 21:08

#	Program:	/corina/corina34_cracker 3.40 0067  02.08.2006

@<TRIPOS>MOLECULE
ASD07110003
 323  329    0    0    0
SMALL
NO_CHARGES


@<TRIPOS>ATOM
   1 C1            -1.8603    -0.9501     0.9467 C.2     
   2 O2            -1.5231    -2.1151     0.9420 O.2     
   3 N3             0.5025    -0.4009     1.0902 N.3     
   4 C4            -0.8281     0.1338     0.7712 C.3     
   5 C5            -0.8462     0.6256    -0.6775 C.3     
   6 C6             0.1119     1.8091    -0.8263 C.3     
   7 C7             0.0938     2.3009    -2.2750 C.3     
   8 C8             1.0520     3.4844    -2.4238 C.3     
   9 N9             1.0346     3.9566    -3.8148 N.3     
  10 C10           -5.5072    -1.1666     0.8182 C.2     
  11 O11           -5.6155    -0.0329     0.4013 O.2     
  12 N12           -3.1589    -0.6250     1.1032 N.am    
  13 C13           -4.1631    -1.6789     1.2677 C.3     
  14 C14           -4.2390    -2.0855     2.7408 C.3     
  15 C15           -2.9327    -2.7111     3.1571 C.2     
  16 C16           -2.6462    -4.0223     3.1780 C.2     
  17 N17           -1.3625    -4.2126     3.6121 N.pl3   
  18 C18           -0.7768    -2.9974     3.8883 C.ar    
  19 C19            0.4818    -2.6232     4.3468 C.ar    
  20 C20            0.7754    -1.2892     4.5279 C.ar    
  21 C21           -0.1729    -0.3126     4.2573 C.ar    
  22 C22           -1.4159    -0.6580     3.8064 C.ar    
  23 C23           -1.7328    -2.0032     3.6098 C.ar    
  24 C24           -8.9860    -2.2429     1.1386 C.2     
  25 O25           -8.7744    -3.3707     1.5312 O.2     
  26 N26           -6.5888    -1.9684     0.8793 N.am    
  27 C27           -7.8954    -1.4704     0.4422 C.3     
  28 C28           -8.0296    -1.6504    -1.0712 C.3     
  29 C29           -7.0377    -0.7590    -1.7730 C.ar    
  30 C30           -5.7702    -1.2300    -2.0619 C.ar    
  31 C31           -4.8590    -0.4146    -2.7048 C.ar    
  32 C32           -5.2167     0.8776    -3.0609 C.ar    
  33 O33           -4.3222     1.6815    -3.6938 O.3     
  34 C34           -6.4891     1.3477    -2.7703 C.ar    
  35 C35           -7.3984     0.5266    -2.1319 C.ar    
  36 C36          -11.7426    -3.5427     1.0408 C.2     
  37 O37          -11.0866    -3.8108     0.0566 O.2     
  38 N38          -10.1965    -1.6804     1.3251 N.am    
  39 C39          -11.3759    -2.3526     1.8895 C.3     
  40 C40          -12.5315    -1.3298     1.8866 C.3     
  41 C41          -12.0931    -0.3134     0.7993 C.3     
  42 C42          -10.5554    -0.2873     1.0029 C.3     
  43 C43          -14.3654    -6.1476     1.1370 C.2     
  44 O44          -14.8788    -5.7102     2.1449 O.2     
  45 N45          -12.7996    -4.3090     1.3755 N.am    
  46 C46          -13.1561    -5.4659     0.5505 C.3     
  47 C47          -16.0639    -9.3542     0.6942 C.2     
  48 O48          -15.1779    -9.7897    -0.0102 O.2     
  49 N49          -14.8762    -7.2435     0.5414 N.am    
  50 C50          -16.0518    -7.9062     1.1116 C.3     
  51 C51          -17.3210    -7.2186     0.6045 C.3     
  52 S52          -17.3064    -5.4756     1.1069 S.3     
  53 C53          -18.2805   -12.2546     1.2844 C.2     
  54 O54          -19.0561   -11.6265     1.9735 O.2     
  55 N55          -17.0594   -10.1652     1.1036 N.am    
  56 C56          -17.0712   -11.5729     0.6978 C.3     
  57 C57          -19.6877   -15.6730     1.1958 C.2     
  58 O58          -18.8017   -16.1085     0.4915 O.2     
  59 N59          -18.5001   -13.5623     1.0431 N.am    
  60 C60          -19.6756   -14.2250     1.6133 C.3     
  61 C61          -21.9043   -18.5734     1.7860 C.2     
  62 O62          -22.6799   -17.9453     2.4751 O.2     
  63 N63          -20.6832   -16.4841     1.6053 N.am    
  64 C64          -20.6950   -17.8917     1.1995 C.3     
  65 C65          -23.3116   -21.9918     1.6975 C.2     
  66 O66          -22.4255   -22.4273     0.9931 O.2     
  67 N67          -22.1239   -19.8811     1.5448 N.am    
  68 C68          -23.2994   -20.5439     2.1149 C.3     
  69 C69          -25.5281   -24.8923     2.2877 C.2     
  70 O70          -26.3037   -24.2642     2.9768 O.2     
  71 N71          -24.3071   -22.8029     2.1070 N.am    
  72 C72          -24.3189   -24.2105     1.7012 C.3     
  73 C73          -26.6540   -28.3399     2.7453 C.2     
  74 O74          -25.5854   -28.7943     2.3953 O.2     
  75 N75          -25.7477   -26.2000     2.0465 N.am    
  76 C76          -26.9232   -26.8627     2.6166 C.3     
  77 C77          -28.1280   -26.6419     1.6998 C.3     
  78 C78          -28.4785   -25.1529     1.6679 C.3     
  79 C79          -29.6652   -24.9354     0.7648 C.2     
  80 O80          -30.1799   -25.8784     0.2021 O.2     
  81 N81          -30.1544   -23.6928     0.5825 N.am    
  82 C82          -28.6450   -31.3439     3.3578 C.2     
  83 O83          -29.6912   -30.7398     3.2517 O.2     
  84 N84          -27.6008   -29.1560     3.2495 N.am    
  85 C85          -27.3391   -30.5920     3.3746 C.3     
  86 C86          -26.6105   -30.8647     4.6921 C.3     
  87 C87          -25.2312   -30.2033     4.6585 C.3     
  88 C88          -24.5136   -30.4719     5.9561 C.2     
  89 O89          -25.0502   -31.1253     6.8192 O.2     
  90 O90          -23.2782   -29.9853     6.1530 O.3     
  91 C91          -29.7506   -34.7351     4.1581 C.2     
  92 O92          -28.6755   -35.0333     4.6337 O.2     
  93 N93          -28.6502   -32.6877     3.4606 N.am    
  94 C94          -29.9197   -33.4187     3.4443 C.3     
  95 C95          -30.3423   -33.6744     1.9962 C.3     
  96 C96          -30.6303   -32.3601     1.3174 C.ar    
  97 C97          -29.6176   -31.6865     0.6598 C.ar    
  98 C98          -29.8788   -30.4814     0.0371 C.ar    
  99 C99          -31.1588   -29.9472     0.0717 C.ar    
 100 O100         -31.4184   -28.7620    -0.5405 O.3     
 101 C101         -32.1733   -30.6253     0.7318 C.ar    
 102 C102         -31.9080   -31.8327     1.3484 C.ar    
 103 C103         -31.5218   -37.8887     4.4520 C.2     
 104 O104         -32.1986   -37.6490     3.4746 O.2     
 105 N105         -30.7941   -35.5809     4.2680 N.am    
 106 C106         -30.6619   -36.8087     5.0564 C.3     
 107 C107         -31.1126   -36.5426     6.4941 C.3     
 108 C108         -32.5183   -35.9386     6.4843 C.3     
 109 C109         -33.5193   -36.9842     5.9887 C.3     
 110 C110         -30.1421   -35.5653     7.1602 C.3     
 111 C111         -33.2648   -40.7185     5.5958 C.2     
 112 O112         -33.1076   -40.3137     6.7282 O.2     
 113 N113         -31.5387   -39.1209     4.9978 N.am    
 114 C114         -32.4449   -40.1436     4.4695 C.3     
 115 C115         -31.6283   -41.2583     3.8126 C.3     
 116 C116         -30.9350   -40.7184     2.5883 C.2     
 117 O117         -31.0225   -39.5408     2.3116 O.2     
 118 N118         -30.2176   -41.5442     1.8009 N.am    
 119 C119         -34.0300   -43.3996     7.0533 C.2     
 120 O120         -32.9256   -43.6170     6.6018 O.2     
 121 N121         -34.1727   -41.6824     5.3446 N.am    
 122 C122         -34.8907   -42.3188     6.4516 C.3     
 123 C123         -36.1910   -42.9335     5.9298 C.3     
 124 C124         -37.1145   -41.8367     5.4661 C.2     
 125 O125         -36.8100   -40.6751     5.6362 O.2     
 126 N126         -38.2790   -42.1466     4.8623 N.am    
 127 C127         -34.5283   -46.2021     9.3470 C.2     
 128 O128         -35.7337   -46.0691     9.3363 O.2     
 129 N129         -34.4877   -44.1248     8.0931 N.am    
 130 C130         -33.6510   -45.1755     8.6780 C.3     
 131 C131         -32.7072   -44.5592     9.7125 C.3     
 132 C132         -33.5279   -43.8877    10.8155 C.3     
 133 C133         -32.5895   -43.3806    11.9124 C.3     
 134 C134         -31.8165   -43.5170     9.0333 C.3     
 135 C135         -34.0439   -48.9681    11.6874 C.2     
 136 O136         -32.8879   -48.6648    11.8935 O.2     
 137 N137         -33.9733   -47.2680     9.9572 N.am    
 138 C138         -34.8262   -48.2659    10.6076 C.3     
 139 C139         -35.2959   -49.2886     9.5711 C.3     
 140 C140         -36.1801   -48.6077     8.5584 C.2     
 141 C141         -36.0032   -48.6121     7.2234 C.2     
 142 N142         -37.0268   -47.8793     6.6859 N.pl3   
 143 C143         -37.7940   -47.4522     7.7119 C.2     
 144 N144         -37.2844   -47.8959     8.8283 N.2     
 145 C145         -34.3895   -51.9515    13.7500 C.2     
 146 O146         -35.4663   -52.2938    13.3092 O.2     
 147 N147         -34.6291   -49.9331    12.4242 N.am    
 148 C148         -33.9058   -50.5391    13.5449 C.3     
 149 C149         -34.1578   -49.7241    14.8150 C.3     
 150 C150         -33.2799   -50.2602    15.9476 C.3     
 151 C151         -31.8077   -50.0139    15.6120 C.3     
 152 C152         -33.6332   -49.5408    17.2509 C.3     
 153 C153         -33.4391   -54.7350    15.9208 C.2     
 154 O154         -32.5997   -54.0739    16.4946 O.2     
 155 N155         -33.6256   -52.8344    14.4235 N.am    
 156 C156         -34.1354   -54.1785    14.7056 C.3     
 157 C157         -33.8691   -55.0876    13.5042 C.3     
 158 C158         -34.4704   -54.4588    12.2456 C.3     
 159 O159         -32.4596   -55.2466    13.3303 O.3     
 160 C160         -31.7705   -57.1443    17.1368 C.2     
 161 O161         -31.4418   -57.1456    15.9741 O.2     
 162 N162         -33.7492   -55.9673    16.3698 N.am    
 163 C163         -33.0724   -56.5083    17.5511 C.3     
 164 C164         -33.9652   -57.5593    18.2139 C.3     
 165 C165         -35.2144   -56.8989    18.7377 C.2     
 166 C166         -36.4798   -57.2523    18.4420 C.2     
 167 N167         -37.3002   -56.3974    19.1275 N.pl3   
 168 C168         -36.5070   -55.5509    19.8188 C.2     
 169 N169         -35.2609   -55.8600    19.5847 N.2     
 170 O170         -30.9760   -57.7094    18.0594 O.3     
 171 H171           0.5598    -0.6731     2.0601 H       
 172 H172           0.7371    -1.1724     0.4836 H       
 173 H173          -1.0558     0.9641     1.4396 H       
 174 H174          -0.5321    -0.1816    -1.3392 H       
 175 H175          -1.8558     0.9400    -0.9418 H       
 176 H176          -0.2022     2.6163    -0.1646 H       
 177 H177           1.1216     1.4947    -0.5620 H       
 178 H178           0.4079     1.4937    -2.9367 H       
 179 H179          -0.9158     2.6153    -2.5393 H       
 180 H180           0.7379     4.2916    -1.7621 H       
 181 H181           2.0616     3.1700    -2.1595 H       
 182 H182           0.0975     4.1934    -4.1045 H       
 183 H183           1.6599     4.7387    -3.9390 H       
 184 H184          -3.4285     0.3067     1.1069 H       
 185 H185          -3.8841    -2.5438     0.6660 H       
 186 H186          -4.4305    -1.2035     3.3518 H       
 187 H187          -5.0464    -2.8049     2.8780 H       
 188 H188          -3.3279    -4.8105     2.8945 H       
 189 H189          -0.9297    -5.0750     3.7107 H       
 190 H190           1.2264    -3.3757     4.5606 H       
 191 H191           1.7531    -1.0006     4.8844 H       
 192 H192           0.0733     0.7286     4.4046 H       
 193 H193          -2.1489     0.1074     3.5982 H       
 194 H194          -6.5021    -2.8752     1.2127 H       
 195 H195          -7.9831    -0.4129     0.6915 H       
 196 H196          -7.8320    -2.6900    -1.3324 H       
 197 H197          -9.0401    -1.3838    -1.3807 H       
 198 H198          -5.4922    -2.2360    -1.7845 H       
 199 H199          -3.8689    -0.7827    -2.9296 H       
 200 H200          -4.3510     1.6192    -4.6583 H       
 201 H201          -6.7699     2.3534    -3.0462 H       
 202 H202          -8.3906     0.8906    -1.9094 H       
 203 H203         -11.1660    -2.6753     2.9093 H       
 204 H204         -13.4703    -1.8094     1.6099 H       
 205 H205         -12.6176    -0.8424     2.8577 H       
 206 H206         -12.3526    -0.6709    -0.1971 H       
 207 H207         -12.5268     0.6692     0.9854 H       
 208 H208         -10.2909     0.3733     1.8286 H       
 209 H209         -10.0573     0.0307     0.0870 H       
 210 H210         -13.3243    -4.0946     2.1627 H       
 211 H211         -12.3208    -6.1657     0.5257 H       
 212 H212         -13.3820    -5.1337    -0.4628 H       
 213 H213         -14.4656    -7.5933    -0.2647 H       
 214 H214         -16.0134    -7.8419     2.1990 H       
 215 H215         -17.3593    -7.2829    -0.4830 H       
 216 H216         -18.1956    -7.7117     1.0287 H       
 217 H217         -18.4608    -5.0054     0.6017 H       
 218 H218         -17.7681    -9.8169     1.6670 H       
 219 H219         -16.1670   -12.0627     1.0591 H       
 220 H220         -17.1096   -11.6372    -0.3896 H       
 221 H221         -17.8797   -14.0646     0.4920 H       
 222 H222         -20.5798   -13.7352     1.2520 H       
 223 H223         -19.6372   -14.1607     2.7007 H       
 224 H224         -21.3919   -16.1358     2.1687 H       
 225 H225         -19.7908   -18.3816     1.5608 H       
 226 H226         -20.7334   -17.9560     0.1121 H       
 227 H227         -21.5036   -20.3835     0.9936 H       
 228 H228         -24.2036   -20.0540     1.7537 H       
 229 H229         -23.2611   -20.4795     3.2024 H       
 230 H230         -25.0157   -22.4546     2.6704 H       
 231 H231         -23.4146   -24.7004     2.0625 H       
 232 H232         -24.3572   -24.2749     0.6138 H       
 233 H233         -25.1274   -26.7023     1.4953 H       
 234 H234         -27.1343   -26.4447     3.6009 H       
 235 H235         -27.8846   -26.9795     0.6923 H       
 236 H236         -28.9800   -27.2077     2.0767 H       
 237 H237         -28.7218   -24.8153     2.6753 H       
 238 H238         -27.6265   -24.5871     1.2910 H       
 239 H239         -29.7428   -22.9386     1.0326 H       
 240 H240         -30.9182   -23.5528     0.0012 H       
 241 H241         -28.4554   -28.7925     3.5294 H       
 242 H242         -26.7189   -30.9222     2.5413 H       
 243 H243         -27.1899   -30.4548     5.5193 H       
 244 H244         -26.4946   -31.9400     4.8273 H       
 245 H245         -24.6518   -30.6132     3.8312 H       
 246 H246         -25.3471   -29.1280     4.5232 H       
 247 H247         -22.8582   -30.1838     7.0011 H       
 248 H248         -27.8134   -33.1709     3.5454 H       
 249 H249         -30.6854   -32.8283     3.9474 H       
 250 H250         -29.5385   -34.1875     1.4683 H       
 251 H251         -31.2390   -34.2941     1.9834 H       
 252 H252         -28.6213   -32.1027     0.6332 H       
 253 H253         -29.0873   -29.9552    -0.4758 H       
 254 H254         -31.6927   -28.8480    -1.4638 H       
 255 H255         -33.1704   -30.2114     0.7604 H       
 256 H256         -32.6984   -32.3631     1.8587 H       
 257 H257         -31.6326   -35.3768     3.8252 H       
 258 H258         -29.6205   -37.1305     5.0557 H       
 259 H259         -31.1237   -37.4797     7.0506 H       
 260 H260         -32.7873   -35.6280     7.4939 H       
 261 H261         -32.5376   -35.0739     5.8209 H       
 262 H262         -34.5341   -36.6326     6.1750 H       
 263 H263         -33.3801   -37.1422     4.9192 H       
 264 H264         -33.3568   -37.9226     6.5188 H       
 265 H265         -30.2039   -34.5968     6.6638 H       
 266 H266         -30.4052   -35.4520     8.2119 H       
 267 H267         -29.1257   -35.9507     7.0794 H       
 268 H268         -30.9509   -39.3306     5.7403 H       
 269 H269         -33.1078   -39.6947     3.7299 H       
 270 H270         -30.8843   -41.6279     4.5182 H       
 271 H271         -32.2922   -42.0735     3.5244 H       
 272 H272         -30.1477   -42.4860     2.0222 H       
 273 H273         -29.7713   -41.1967     1.0129 H       
 274 H274         -34.3506   -41.9547     4.4308 H       
 275 H275         -35.1212   -41.5725     7.2120 H       
 276 H276         -35.9691   -43.5987     5.0953 H       
 277 H277         -36.6712   -43.4997     6.7279 H       
 278 H278         -38.5226   -43.0756     4.7263 H       
 279 H279         -38.8735   -41.4406     4.5639 H       
 280 H280         -35.3710   -43.9509     8.4542 H       
 281 H281         -33.0663   -45.6539     7.8922 H       
 282 H282         -32.0846   -45.3410    10.1477 H       
 283 H283         -34.0830   -43.0489    10.3957 H       
 284 H284         -34.2259   -44.6096    11.2395 H       
 285 H285         -32.0344   -44.2195    12.3322 H       
 286 H286         -31.8915   -42.6588    11.4883 H       
 287 H287         -33.1742   -42.9022    12.6981 H       
 288 H288         -31.1441   -43.0779     9.7703 H       
 289 H289         -31.2318   -43.9954     8.2476 H       
 290 H290         -32.4390   -42.7352     8.5982 H       
 291 H291         -33.0092   -47.3744     9.9658 H       
 292 H292         -35.6918   -47.7719    11.0488 H       
 293 H293         -34.4305   -49.7188     9.0670 H       
 294 H294         -35.8564   -50.0797    10.0693 H       
 295 H295         -35.2067   -49.0998     6.6811 H       
 296 H296         -37.1736   -47.7001     5.7439 H       
 297 H297         -38.6843   -46.8473     7.6229 H       
 298 H298         -35.5291   -50.2264    12.2125 H       
 299 H299         -32.8381   -50.5490    13.3254 H       
 300 H300         -33.9135   -48.6781    14.6299 H       
 301 H301         -35.2071   -49.8076    15.0980 H       
 302 H302         -33.4517   -51.3302    16.0651 H       
 303 H303         -31.1796   -50.4616    16.3822 H       
 304 H304         -31.5749   -50.4636    14.6467 H       
 305 H305         -31.6196   -48.9412    15.5679 H       
 306 H306         -34.6821   -49.7163    17.4900 H       
 307 H307         -33.0078   -49.9228    18.0577 H       
 308 H308         -33.4614   -48.4709    17.1333 H       
 309 H309         -32.7383   -52.5798    14.7213 H       
 310 H310         -35.2081   -54.1284    14.8926 H       
 311 H311         -34.3260   -56.0619    13.6774 H       
 312 H312         -34.0135   -53.4845    12.0724 H       
 313 H313         -34.2807   -55.1064    11.3897 H       
 314 H314         -35.5455   -54.3375    12.3782 H       
 315 H315         -31.9870   -54.4181    13.1716 H       
 316 H316         -34.4206   -56.4961    15.9109 H       
 317 H317         -32.8743   -55.7021    18.2574 H       
 318 H318         -34.2360   -58.3199    17.4817 H       
 319 H319         -33.4269   -58.0249    19.0394 H       
 320 H320         -36.7882   -58.0555    17.7892 H       
 321 H321         -38.2702   -56.3994    19.1185 H       
 322 H322         -36.8474   -54.7529    20.4620 H       
 323 H323         -30.1511   -58.1047    17.7458 H       
@<TRIPOS>BOND
   1    1    2 2
   2    1    4 1
   3    1   12 am
   4    3    4 1
   5    3  171 1
   6    3  172 1
   7    4    5 1
   8    4  173 1
   9    5    6 1
  10    5  174 1
  11    5  175 1
  12    6    7 1
  13    6  176 1
  14    6  177 1
  15    7    8 1
  16    7  178 1
  17    7  179 1
  18    8    9 1
  19    8  180 1
  20    8  181 1
  21    9  182 1
  22    9  183 1
  23   10   11 2
  24   10   13 1
  25   10   26 am
  26   12   13 1
  27   12  184 1
  28   13   14 1
  29   13  185 1
  30   14   15 1
  31   14  186 1
  32   14  187 1
  33   15   16 2
  34   15   23 1
  35   16   17 1
  36   16  188 1
  37   17   18 1
  38   17  189 1
  39   18   19 ar
  40   18   23 ar
  41   19   20 ar
  42   19  190 1
  43   20   21 ar
  44   20  191 1
  45   21   22 ar
  46   21  192 1
  47   22   23 ar
  48   22  193 1
  49   24   25 2
  50   24   27 1
  51   24   38 am
  52   26   27 1
  53   26  194 1
  54   27   28 1
  55   27  195 1
  56   28   29 1
  57   28  196 1
  58   28  197 1
  59   29   30 ar
  60   29   35 ar
  61   30   31 ar
  62   30  198 1
  63   31   32 ar
  64   31  199 1
  65   32   33 1
  66   32   34 ar
  67   33  200 1
  68   34   35 ar
  69   34  201 1
  70   35  202 1
  71   36   37 2
  72   36   45 am
  73   36   39 1
  74   38   39 1
  75   38   42 1
  76   39   40 1
  77   39  203 1
  78   40   41 1
  79   40  204 1
  80   40  205 1
  81   41   42 1
  82   41  206 1
  83   41  207 1
  84   42  208 1
  85   42  209 1
  86   43   44 2
  87   43   46 1
  88   43   49 am
  89   45   46 1
  90   45  210 1
  91   46  211 1
  92   46  212 1
  93   47   48 2
  94   47   50 1
  95   47   55 am
  96   49   50 1
  97   49  213 1
  98   50   51 1
  99   50  214 1
 100   51   52 1
 101   51  215 1
 102   51  216 1
 103   52  217 1
 104   53   54 2
 105   53   56 1
 106   53   59 am
 107   55   56 1
 108   55  218 1
 109   56  219 1
 110   56  220 1
 111   57   58 2
 112   57   60 1
 113   57   63 am
 114   59   60 1
 115   59  221 1
 116   60  222 1
 117   60  223 1
 118   61   62 2
 119   61   64 1
 120   61   67 am
 121   63   64 1
 122   63  224 1
 123   64  225 1
 124   64  226 1
 125   65   66 2
 126   65   68 1
 127   65   71 am
 128   67   68 1
 129   67  227 1
 130   68  228 1
 131   68  229 1
 132   69   70 2
 133   69   72 1
 134   69   75 am
 135   71   72 1
 136   71  230 1
 137   72  231 1
 138   72  232 1
 139   73   74 2
 140   73   76 1
 141   73   84 am
 142   75   76 1
 143   75  233 1
 144   76   77 1
 145   76  234 1
 146   77   78 1
 147   77  235 1
 148   77  236 1
 149   78   79 1
 150   78  237 1
 151   78  238 1
 152   79   80 2
 153   79   81 am
 154   81  239 1
 155   81  240 1
 156   82   83 2
 157   82   85 1
 158   82   93 am
 159   84   85 1
 160   84  241 1
 161   85   86 1
 162   85  242 1
 163   86   87 1
 164   86  243 1
 165   86  244 1
 166   87   88 1
 167   87  245 1
 168   87  246 1
 169   88   89 2
 170   88   90 1
 171   90  247 1
 172   91   92 2
 173   91   94 1
 174   91  105 am
 175   93   94 1
 176   93  248 1
 177   94   95 1
 178   94  249 1
 179   95   96 1
 180   95  250 1
 181   95  251 1
 182   96   97 ar
 183   96  102 ar
 184   97   98 ar
 185   97  252 1
 186   98   99 ar
 187   98  253 1
 188   99  100 1
 189   99  101 ar
 190  100  254 1
 191  101  102 ar
 192  101  255 1
 193  102  256 1
 194  103  104 2
 195  103  106 1
 196  103  113 am
 197  105  106 1
 198  105  257 1
 199  106  107 1
 200  106  258 1
 201  107  108 1
 202  107  110 1
 203  107  259 1
 204  108  109 1
 205  108  260 1
 206  108  261 1
 207  109  262 1
 208  109  263 1
 209  109  264 1
 210  110  265 1
 211  110  266 1
 212  110  267 1
 213  111  112 2
 214  111  114 1
 215  111  121 am
 216  113  114 1
 217  113  268 1
 218  114  115 1
 219  114  269 1
 220  115  116 1
 221  115  270 1
 222  115  271 1
 223  116  117 2
 224  116  118 am
 225  118  272 1
 226  118  273 1
 227  119  120 2
 228  119  122 1
 229  119  129 am
 230  121  122 1
 231  121  274 1
 232  122  123 1
 233  122  275 1
 234  123  124 1
 235  123  276 1
 236  123  277 1
 237  124  125 2
 238  124  126 am
 239  126  278 1
 240  126  279 1
 241  127  128 2
 242  127  130 1
 243  127  137 am
 244  129  130 1
 245  129  280 1
 246  130  131 1
 247  130  281 1
 248  131  132 1
 249  131  134 1
 250  131  282 1
 251  132  133 1
 252  132  283 1
 253  132  284 1
 254  133  285 1
 255  133  286 1
 256  133  287 1
 257  134  288 1
 258  134  289 1
 259  134  290 1
 260  135  136 2
 261  135  138 1
 262  135  147 am
 263  137  138 1
 264  137  291 1
 265  138  139 1
 266  138  292 1
 267  139  140 1
 268  139  293 1
 269  139  294 1
 270  140  141 2
 271  140  144 1
 272  141  142 1
 273  141  295 1
 274  142  143 1
 275  142  296 1
 276  143  144 2
 277  143  297 1
 278  145  146 2
 279  145  148 1
 280  145  155 am
 281  147  148 1
 282  147  298 1
 283  148  149 1
 284  148  299 1
 285  149  150 1
 286  149  300 1
 287  149  301 1
 288  150  151 1
 289  150  152 1
 290  150  302 1
 291  151  303 1
 292  151  304 1
 293  151  305 1
 294  152  306 1
 295  152  307 1
 296  152  308 1
 297  153  154 2
 298  153  156 1
 299  153  162 am
 300  155  156 1
 301  155  309 1
 302  156  157 1
 303  156  310 1
 304  157  158 1
 305  157  159 1
 306  157  311 1
 307  158  312 1
 308  158  313 1
 309  158  314 1
 310  159  315 1
 311  160  161 2
 312  160  163 1
 313  160  170 1
 314  162  163 1
 315  162  316 1
 316  163  164 1
 317  163  317 1
 318  164  165 1
 319  164  318 1
 320  164  319 1
 321  165  166 2
 322  165  169 1
 323  166  167 1
 324  166  320 1
 325  167  168 1
 326  167  321 1
 327  168  169 2
 328  168  322 1
 329  170  323 1

#	End of record

