#	Name: ASD05313147
#	Creating user name:	WinNT
#	Creation time:	15. 06. 2019 20:58

#	Modifying user name:	WinNT
#	Modification time:	15. 06. 2019 20:58

#	Program:	/corina/corina34_cracker 3.40 0067  02.08.2006

@<TRIPOS>MOLECULE
ASD05313147
  40   43    0    0    0
SMALL
NO_CHARGES


@<TRIPOS>ATOM
   1 C1            -0.0853     1.0866     0.6944 C.2     
   2 C2             0.0529    -0.3905     0.4120 C.3     
   3 N3             0.9589     1.9520     0.7037 N.pl3   
   4 N4             1.4235    -0.6065    -0.0886 N.am    
   5 C5             2.5277     0.0843     0.5946 C.3     
   6 C6             2.3518     1.5991     0.4342 C.3     
   7 N7            -0.8633     3.0014     1.1544 N.2     
   8 N8            -1.1613     1.7611     0.9697 N.2     
   9 C9             0.4344     3.1723     1.0036 C.2     
  10 C10            1.1784     4.4436     1.1377 C.ar    
  11 C11            0.4997     5.6231     1.4514 C.ar    
  12 N12            2.4976     4.4667     0.9654 N.ar    
  13 N13            1.1688     6.7541     1.5701 N.ar    
  14 C14            2.4791     6.7714     1.3927 C.ar    
  15 C15            3.1570     5.6037     1.0866 C.ar    
  16 C16            1.6574    -1.4143    -1.1419 C.2     
  17 O17            2.7792    -1.5046    -1.6013 O.2     
  18 C18            0.5500    -2.1903    -1.7382 C.ar    
  19 C19            0.3191    -2.1381    -3.1143 C.ar    
  20 C20           -0.7156    -2.8642    -3.6648 C.ar    
  21 C21           -1.5253    -3.6445    -2.8557 C.ar    
  22 C22           -1.3014    -3.6999    -1.4901 C.ar    
  23 C23           -0.2656    -2.9828    -0.9287 C.ar    
  24 C24            1.1986    -1.2894    -3.9959 C.3     
  25 F25            0.7731    -1.3999    -5.3240 F       
  26 F26            1.1160     0.0466    -3.5893 F       
  27 F27            2.5234    -1.7272    -3.8927 F       
  28 Cl28          -2.8261    -4.5560    -3.5561 Cl      
  29 H29           -0.1028    -0.9605     1.3280 H       
  30 H30           -0.6714    -0.6941    -0.3438 H       
  31 H31            2.5184    -0.1731     1.6537 H       
  32 H32            3.4766    -0.2208     0.1533 H       
  33 H33            2.6108     1.8899    -0.5838 H       
  34 H34            3.0018     2.1180     1.1387 H       
  35 H35           -0.5705     5.6096     1.5960 H       
  36 H36            3.0230     7.6994     1.4904 H       
  37 H37            4.2278     5.6231     0.9471 H       
  38 H38           -0.8954    -2.8244    -4.7290 H       
  39 H39           -1.9363    -4.3094    -0.8642 H       
  40 H40           -0.0887    -3.0308     0.1356 H       
@<TRIPOS>BOND
   1    1    2 1
   2    1    3 1
   3    1    8 2
   4    2    4 1
   5    2   29 1
   6    2   30 1
   7    3    6 1
   8    3    9 1
   9    4    5 1
  10    4   16 am
  11    5    6 1
  12    5   31 1
  13    5   32 1
  14    6   33 1
  15    6   34 1
  16    7    8 1
  17    7    9 2
  18    9   10 1
  19   10   11 ar
  20   10   12 ar
  21   11   13 ar
  22   11   35 1
  23   12   15 ar
  24   13   14 ar
  25   14   15 ar
  26   14   36 1
  27   15   37 1
  28   16   17 2
  29   16   18 1
  30   18   19 ar
  31   18   23 ar
  32   19   20 ar
  33   19   24 1
  34   20   21 ar
  35   20   38 1
  36   21   22 ar
  37   21   28 1
  38   22   23 ar
  39   22   39 1
  40   23   40 1
  41   24   25 1
  42   24   26 1
  43   24   27 1

#	End of record

