#	Name: ASD09610092
#	Creating user name:	WinNT
#	Creation time:	15. 06. 2019 21:22

#	Modifying user name:	WinNT
#	Modification time:	15. 06. 2019 21:22

#	Program:	/corina/corina34_cracker 3.40 0067  02.08.2006

@<TRIPOS>MOLECULE
ASD09610092
  62   63    0    0    0
SMALL
NO_CHARGES


@<TRIPOS>ATOM
   1 C1            -2.0029     3.8353    -0.3885 C.2     
   2 N2            -2.2482     1.4342    -0.1361 N.am    
   3 C3            -1.2854     2.5100    -0.3849 C.3     
   4 C4            -0.6140     2.2898    -1.7419 C.3     
   5 C5            -0.0745     0.8601    -1.8180 C.3     
   6 C6            -1.6367     2.5091    -2.8585 C.3     
   7 O7            -3.2005     3.8770    -0.2017 O.2     
   8 N8            -1.3128     4.9746    -0.5938 N.am    
   9 S9            -3.5946     1.2911    -1.0896 S.o2    
  10 O10           -4.6310     0.9417    -0.1824 O.2     
  11 O11           -3.6390     2.5101    -1.8184 O.2     
  12 C12           -3.2210    -0.0980    -2.1948 C.3     
  13 C13           -2.0199     0.4850     0.9562 C.3     
  14 C14           -2.5155     1.0912     2.2706 C.3     
  15 C15           -2.1723     0.1674     3.4108 C.ar    
  16 C16           -0.9647     0.3049     4.0704 C.ar    
  17 C17           -0.6478    -0.5431     5.1189 C.ar    
  18 C18           -1.5472    -1.5325     5.5060 C.ar    
  19 C19           -2.7552    -1.6647     4.8410 C.ar    
  20 C20           -3.0675    -0.8115     3.7985 C.ar    
  21 O21            0.5396    -0.4096     5.7684 O.3     
  22 C22            1.4131     0.6271     5.3166 C.3     
  23 O23           -1.2405    -2.3677     6.5345 O.3     
  24 C24           -2.2111    -3.3590     6.8767 C.3     
  25 C25           -1.7128    -4.1655     8.0029 C.1     
  26 C26           -1.3153    -4.8086     8.9010 C.1     
  27 C27           -0.8306    -5.5931     9.9965 C.ar    
  28 C28           -1.6074    -6.6312    10.5125 C.ar    
  29 C29           -1.1350    -7.3838    11.5676 C.ar    
  30 C30            0.1072    -7.1107    12.1149 C.ar    
  31 C31            0.8825    -6.0819    11.6071 C.ar    
  32 C32            0.4230    -5.3262    10.5485 C.ar    
  33 Cl33           0.6947    -8.0614    13.4434 Cl      
  34 H34           -0.5285     2.5088     0.3995 H       
  35 H35            0.2087     2.9953    -1.8590 H       
  36 H36           -0.8971     0.1547    -1.7009 H       
  37 H37            0.4039     0.7033    -2.7848 H       
  38 H38            0.6541     0.7039    -1.0225 H       
  39 H39           -2.1556     3.4538    -2.6956 H       
  40 H40           -1.1243     2.5372    -3.8202 H       
  41 H41           -2.3588     1.6927    -2.8553 H       
  42 H42           -1.7740     5.8280    -0.5922 H       
  43 H43           -0.3549     4.9412    -0.7432 H       
  44 H44           -2.9903    -0.9827    -1.6012 H       
  45 H45           -4.0845    -0.3006    -2.8284 H       
  46 H46           -2.3637     0.1545    -2.8188 H       
  47 H47           -2.5628    -0.4385     0.7544 H       
  48 H48           -0.9541     0.2703     1.0341 H       
  49 H49           -2.0361     2.0572     2.4287 H       
  50 H50           -3.5963     1.2251     2.2243 H       
  51 H51           -0.2684     1.0731     3.7678 H       
  52 H52           -3.4546    -2.4317     5.1392 H       
  53 H53           -4.0114    -0.9130     3.2836 H       
  54 H54            0.9147     1.5913     5.4163 H       
  55 H55            2.3222     0.6241     5.9181 H       
  56 H56            1.6689     0.4567     4.2708 H       
  57 H57           -3.1429    -2.8715     7.1633 H       
  58 H58           -2.3886    -4.0056     6.0174 H       
  59 H59           -2.5768    -6.8447    10.0868 H       
  60 H60           -1.7353    -8.1875    11.9678 H       
  61 H61            1.8506    -5.8734    12.0380 H       
  62 H62            1.0303    -4.5267    10.1505 H       
@<TRIPOS>BOND
   1    1    7 2
   2    1    8 am
   3    1    3 1
   4    2    3 1
   5    2    9 am
   6    2   13 1
   7    3    4 1
   8    3   34 1
   9    4    5 1
  10    4    6 1
  11    4   35 1
  12    5   36 1
  13    5   37 1
  14    5   38 1
  15    6   39 1
  16    6   40 1
  17    6   41 1
  18    8   42 1
  19    8   43 1
  20    9   10 2
  21    9   11 2
  22    9   12 1
  23   12   44 1
  24   12   45 1
  25   12   46 1
  26   13   14 1
  27   13   47 1
  28   13   48 1
  29   14   15 1
  30   14   49 1
  31   14   50 1
  32   15   16 ar
  33   15   20 ar
  34   16   17 ar
  35   16   51 1
  36   17   18 ar
  37   17   21 1
  38   18   19 ar
  39   18   23 1
  40   19   20 ar
  41   19   52 1
  42   20   53 1
  43   21   22 1
  44   22   54 1
  45   22   55 1
  46   22   56 1
  47   23   24 1
  48   24   25 1
  49   24   57 1
  50   24   58 1
  51   25   26 3
  52   26   27 1
  53   27   28 ar
  54   27   32 ar
  55   28   29 ar
  56   28   59 1
  57   29   30 ar
  58   29   60 1
  59   30   31 ar
  60   30   33 1
  61   31   32 ar
  62   31   61 1
  63   32   62 1

#	End of record

