#	Name: ASD04590692
#	Creating user name:	WinNT
#	Creation time:	15. 06. 2019 20:51

#	Modifying user name:	WinNT
#	Modification time:	15. 06. 2019 20:51

#	Program:	/corina/corina34_cracker 3.40 0067  02.08.2006

@<TRIPOS>MOLECULE
ASD04590692
  77   82    0    0    0
SMALL
NO_CHARGES


@<TRIPOS>ATOM
   1 N1            -2.3783    -2.7059     0.0202 N.ar    
   2 C2            -1.2117    -2.0738     0.0039 C.ar    
   3 N3            -0.0574    -2.7202    -0.0183 N.ar    
   4 C4            -0.0260    -4.0496    -0.0246 C.ar    
   5 C5            -1.2488    -4.7506    -0.0072 C.ar    
   6 C6            -2.4371    -4.0274     0.0154 C.ar    
   7 N7             0.9973    -4.9640    -0.0458 N.pl3   
   8 C8             0.4930    -6.2538    -0.0430 C.ar    
   9 C9            -0.9096    -6.1793    -0.0192 C.ar    
  10 N10           -1.2020    -0.6888     0.0098 N.pl3   
  11 C11           -2.4014     0.0175    -0.0802 C.ar    
  12 C12            2.4221    -4.6237    -0.0689 C.3     
  13 C13            2.7452    -3.7927    -1.3231 C.3     
  14 C14            1.0885    -7.5120    -0.0585 C.ar    
  15 N15            0.3453    -8.6019    -0.0508 N.ar    
  16 C16           -0.9759    -8.5583    -0.0285 C.ar    
  17 C17           -1.6449    -7.3655    -0.0125 C.ar    
  18 C18            3.2827    -2.4350    -0.8257 C.3     
  19 C19            3.8159    -2.7357     0.5971 C.3     
  20 C20            2.7745    -3.7419     1.1468 C.3     
  21 N21           -3.5341    -0.6390    -0.2721 N.ar    
  22 C22           -4.6919    -0.0125    -0.3630 C.ar    
  23 C23           -4.7607     1.3687    -0.2594 C.ar    
  24 C24           -3.5876     2.0943    -0.0570 C.ar    
  25 C25           -2.3938     1.4030     0.0385 C.ar    
  26 N26           -5.9927     2.0262    -0.3574 N.3     
  27 F27            2.4352    -7.6176    -0.0820 F       
  28 C28           -5.9960     2.9803    -1.4875 C.3     
  29 C29           -6.8666     4.1781    -1.0650 C.3     
  30 C30           -7.3245     3.8560     0.3760 C.3     
  31 C31           -6.2615     2.8370     0.8578 C.3     
  32 O32           -7.3027     5.0316     1.1882 O.3     
  33 Si33          -8.7145     5.8479     1.2118 Si      
  34 C34           -8.5457     7.3490     2.3023 C.3     
  35 C35           -9.1513     6.3832    -0.5183 C.3     
  36 C36          -10.0590     4.7440     1.8785 C.3     
  37 C37           -7.4415     8.2555     1.7548 C.3     
  38 C38           -9.8701     8.1148     2.3244 C.3     
  39 C39           -8.1870     6.9094     3.7232 C.3     
  40 H40           -3.3900    -4.5355     0.0295 H       
  41 H41           -0.3610    -0.2099     0.0766 H       
  42 H42            3.0231    -5.5329    -0.0584 H       
  43 H43            3.5037    -4.2983    -1.9208 H       
  44 H44            1.8420    -3.6427    -1.9145 H       
  45 H45           -1.5369    -9.4811    -0.0232 H       
  46 H46           -2.7245    -7.3419     0.0057 H       
  47 H47            4.0897    -2.0852    -1.4695 H       
  48 H48            2.4800    -1.6988    -0.7845 H       
  49 H49            4.8054    -3.1906     0.5506 H       
  50 H50            3.8343    -1.8294     1.2023 H       
  51 H51            1.8897    -3.2167     1.5065 H       
  52 H52            3.2107    -4.3458     1.9425 H       
  53 H53           -5.5961    -0.5817    -0.5202 H       
  54 H54           -3.6112     3.1708     0.0271 H       
  55 H55           -1.4660     1.9332     0.1956 H       
  56 H56           -4.9793     3.3147    -1.6941 H       
  57 H57           -6.4208     2.5063    -2.3724 H       
  58 H58           -6.2793     5.0963    -1.0790 H       
  59 H59           -7.7295     4.2700    -1.7246 H       
  60 H60           -8.3172     3.4059     0.3738 H       
  61 H61           -6.6616     2.2122     1.6563 H       
  62 H62           -5.3574     3.3501     1.1856 H       
  63 H63           -9.2501     5.5049    -1.1563 H       
  64 H64          -10.0948     6.9287    -0.5026 H       
  65 H65           -8.3646     7.0290    -0.9084 H       
  66 H66           -9.8035     4.4309     2.8908 H       
  67 H67          -11.0026     5.2896     1.8942 H       
  68 H68          -10.1578     3.8658     1.2405 H       
  69 H69           -7.6971     8.5687     0.7425 H       
  70 H70           -7.3428     9.1338     2.3928 H       
  71 H71           -6.4980     7.7100     1.7390 H       
  72 H72          -10.6568     7.4689     2.7145 H       
  73 H73           -9.7714     8.9930     2.9624 H       
  74 H74          -10.1257     8.4279     1.3121 H       
  75 H75           -7.2435     6.3638     3.7074 H       
  76 H76           -8.0882     7.7876     4.3612 H       
  77 H77           -8.9736     6.2635     4.1132 H       
@<TRIPOS>BOND
   1    1    2 ar
   2    1    6 ar
   3    2    3 ar
   4    2   10 1
   5    3    4 ar
   6    4    5 ar
   7    4    7 1
   8    5    6 ar
   9    5    9 1
  10    6   40 1
  11    7    8 1
  12    7   12 1
  13    8    9 ar
  14    8   14 ar
  15    9   17 ar
  16   10   11 1
  17   10   41 1
  18   11   21 ar
  19   11   25 ar
  20   12   13 1
  21   12   20 1
  22   12   42 1
  23   13   18 1
  24   13   43 1
  25   13   44 1
  26   14   15 ar
  27   14   27 1
  28   15   16 ar
  29   16   17 ar
  30   16   45 1
  31   17   46 1
  32   18   19 1
  33   18   47 1
  34   18   48 1
  35   19   20 1
  36   19   49 1
  37   19   50 1
  38   20   51 1
  39   20   52 1
  40   21   22 ar
  41   22   23 ar
  42   22   53 1
  43   23   24 ar
  44   23   26 1
  45   24   25 ar
  46   24   54 1
  47   25   55 1
  48   26   28 1
  49   26   31 1
  50   28   29 1
  51   28   56 1
  52   28   57 1
  53   29   30 1
  54   29   58 1
  55   29   59 1
  56   30   31 1
  57   30   32 1
  58   30   60 1
  59   31   61 1
  60   31   62 1
  61   32   33 1
  62   33   34 1
  63   33   35 1
  64   33   36 1
  65   34   37 1
  66   34   38 1
  67   34   39 1
  68   35   63 1
  69   35   64 1
  70   35   65 1
  71   36   66 1
  72   36   67 1
  73   36   68 1
  74   37   69 1
  75   37   70 1
  76   37   71 1
  77   38   72 1
  78   38   73 1
  79   38   74 1
  80   39   75 1
  81   39   76 1
  82   39   77 1

#	End of record

