#	Name: ASD01880158
#	Creating user name:	WinNT
#	Creation time:	15. 06. 2019 19:40

#	Modifying user name:	WinNT
#	Modification time:	15. 06. 2019 19:40

#	Program:	/corina/corina34_cracker 3.40 0067  02.08.2006

@<TRIPOS>MOLECULE
ASD01880158
  67   70    0    0    0
SMALL
NO_CHARGES


@<TRIPOS>ATOM
   1 C1            -0.0167     1.3793     0.0096 C.ar    
   2 C2             0.0021    -0.0041     0.0020 C.ar    
   3 C3            -1.1890    -0.7269     0.0100 C.ar    
   4 C4            -2.3907    -0.0801     0.0254 C.ar    
   5 C5            -2.4290     1.3171     0.0333 C.ar    
   6 C6            -1.2310     2.0518     0.0306 C.ar    
   7 O7             1.1902    -0.6622    -0.0138 O.3     
   8 C8             1.1406    -2.0903    -0.0209 C.3     
   9 C9             2.5645    -2.6499    -0.0386 C.3     
  10 C10            2.5115    -4.1790    -0.0463 C.3     
  11 C11            3.9354    -4.7386    -0.0640 C.3     
  12 O12            3.8859    -6.1667    -0.0711 O.3     
  13 C13            5.0739    -6.8249    -0.0870 C.ar    
  14 C14            5.0966    -8.2135    -0.0946 C.ar    
  15 C15            6.3003    -8.8847    -0.1111 C.ar    
  16 C16            7.4973    -8.1673    -0.1201 C.ar    
  17 C17            7.4707    -6.7720    -0.1124 C.ar    
  18 C18            6.2631    -6.1075    -0.1012 C.ar    
  19 C19            8.7912    -8.8841    -0.1373 C.2     
  20 N20            8.9630   -10.1895    -0.1461 N.2     
  21 N21           10.2142   -10.4781    -0.1614 N.2     
  22 N22           10.9236    -9.4020    -0.1634 N.2     
  23 N23           10.0250    -8.3209    -0.1530 N.pl3   
  24 C24            1.2764     2.1532     0.0014 C.3     
  25 C25            1.7002     2.4229    -1.4437 C.3     
  26 C26            3.0130     3.2086    -1.4521 C.3     
  27 C27           -3.5162     2.2988     0.0495 C.2     
  28 N28           -2.9750     3.4784     0.0504 N.2     
  29 O29           -1.5667     3.3577     0.0396 O.3     
  30 C30           -4.9922     1.9948     0.0618 C.3     
  31 C31           -5.4779     1.8835     1.5084 C.3     
  32 C32           -5.2234     3.2058     2.2350 C.3     
  33 C33           -6.9764     1.5749     1.5210 C.3     
  34 C34           -4.7195     0.7587     2.2159 C.3     
  35 H35           -1.1611    -1.8066     0.0035 H       
  36 H36           -3.3101    -0.6467     0.0312 H       
  37 H37            0.6238    -2.4404     0.8726 H       
  38 H38            0.6054    -2.4309    -0.9073 H       
  39 H39            3.0814    -2.2998    -0.9321 H       
  40 H40            3.0998    -2.3094     0.8477 H       
  41 H41            1.9946    -4.5291     0.8472 H       
  42 H42            1.9762    -4.5196    -0.9326 H       
  43 H43            4.4523    -4.3885    -0.9575 H       
  44 H44            4.4707    -4.3980     0.8223 H       
  45 H45            4.1699    -8.7681    -0.0873 H       
  46 H46            6.3172    -9.9646    -0.1167 H       
  47 H47            8.3950    -6.2136    -0.1193 H       
  48 H48            6.2417    -5.0278    -0.0955 H       
  49 H49           10.2410    -7.3752    -0.1521 H       
  50 H50            1.1360     3.1007     0.5217 H       
  51 H51            2.0500     1.5734     0.5048 H       
  52 H52            1.8405     1.4754    -1.9640 H       
  53 H53            0.9265     3.0027    -1.9471 H       
  54 H54            2.8726     4.1561    -0.9318 H       
  55 H55            3.7867     2.6288    -0.9487 H       
  56 H56            3.3149     3.4007    -2.4816 H       
  57 H57           -5.5325     2.7962    -0.4422 H       
  58 H58           -5.1735     1.0528    -0.4558 H       
  59 H59           -5.7637     4.0071     1.7310 H       
  60 H60           -5.5694     3.1265     3.2656 H       
  61 H61           -4.1558     3.4257     2.2260 H       
  62 H62           -7.1576     0.6329     1.0034 H       
  63 H63           -7.3224     1.4956     2.5516 H       
  64 H64           -7.5166     2.3762     1.0170 H       
  65 H65           -3.6520     0.9786     2.2070 H       
  66 H66           -5.0655     0.6794     3.2465 H       
  67 H67           -4.9008    -0.1833     1.6983 H       
@<TRIPOS>BOND
   1    1    2 ar
   2    1   24 1
   3    1    6 ar
   4    2    3 ar
   5    2    7 1
   6    3    4 ar
   7    3   35 1
   8    4    5 ar
   9    4   36 1
  10    5    6 ar
  11    5   27 1
  12    6   29 1
  13    7    8 1
  14    8    9 1
  15    8   37 1
  16    8   38 1
  17    9   10 1
  18    9   39 1
  19    9   40 1
  20   10   11 1
  21   10   41 1
  22   10   42 1
  23   11   12 1
  24   11   43 1
  25   11   44 1
  26   12   13 1
  27   13   14 ar
  28   13   18 ar
  29   14   15 ar
  30   14   45 1
  31   15   16 ar
  32   15   46 1
  33   16   17 ar
  34   16   19 1
  35   17   18 ar
  36   17   47 1
  37   18   48 1
  38   19   20 2
  39   19   23 1
  40   20   21 1
  41   21   22 2
  42   22   23 1
  43   23   49 1
  44   24   25 1
  45   24   50 1
  46   24   51 1
  47   25   26 1
  48   25   52 1
  49   25   53 1
  50   26   54 1
  51   26   55 1
  52   26   56 1
  53   27   28 2
  54   27   30 1
  55   28   29 1
  56   30   31 1
  57   30   57 1
  58   30   58 1
  59   31   32 1
  60   31   33 1
  61   31   34 1
  62   32   59 1
  63   32   60 1
  64   32   61 1
  65   33   62 1
  66   33   63 1
  67   33   64 1
  68   34   65 1
  69   34   66 1
  70   34   67 1

#	End of record

