#	Name: ASD06120004
#	Creating user name:	WinNT
#	Creation time:	15. 06. 2019 21:05

#	Modifying user name:	WinNT
#	Modification time:	15. 06. 2019 21:05

#	Program:	/corina/corina34_cracker 3.40 0067  02.08.2006

@<TRIPOS>MOLECULE
ASD06120004
  56   58    0    0    0
SMALL
NO_CHARGES


@<TRIPOS>ATOM
   1 P1            -0.0474     1.2010     0.1573 P.3     
   2 P2            -0.8784     1.1231    -2.6868 P.3     
   3 C3            -2.9074     1.4084    -6.8568 C.3     
   4 O4            -2.7509     1.6085    -5.4506 O.3     
   5 C5            -2.7910     2.7537    -7.5783 C.3     
   6 O6            -3.8419     3.6200    -7.1458 O.3     
   7 C7            -1.4363     3.3868    -7.2462 C.3     
   8 O8            -1.3488     4.6760    -7.8563 O.3     
   9 C9            -1.3107     3.5295    -5.7263 C.3     
  10 O10           -2.3224     4.4164    -5.2447 O.3     
  11 C11           -1.4843     2.1543    -5.0763 C.3     
  12 C12           -1.5706     4.1336     4.9973 C.3     
  13 N13           -3.0291     4.2589     4.9396 N.am    
  14 O14           -0.0304    -0.2771     0.2308 O.2     
  15 O15            0.4826     0.7261    -3.1116 O.2     
  16 C16           -3.6877     4.8510     5.9525 C.2     
  17 C17           -1.1628     3.0769     6.0477 C.3     
  18 O18           -3.0639     5.2764     6.9055 O.2     
  19 O19            1.4641     1.7533     0.1080 O.3     
  20 O20           -1.8602    -0.1500    -2.7726 O.3     
  21 O21           -2.1931     2.9189     7.0252 O.3     
  22 C22           -0.9912     1.7788     5.2274 C.3     
  23 N23           -5.0272     4.9794     5.9254 N.am    
  24 O24           -0.8313     1.6633    -1.1709 O.3     
  25 O25           -1.4243     2.2880    -3.6549 O.3     
  26 O26           -1.9103     0.7796     5.6732 O.3     
  27 C27           -5.7335     4.5134     4.8756 C.2     
  28 C28           -1.3157     2.2049     3.7784 C.3     
  29 O29           -6.9455     4.6296     4.8501 O.2     
  30 O30           -1.0597     3.6259     3.7455 O.3     
  31 C31           -5.0530     3.8883     3.8030 C.2     
  32 C32           -0.4014     1.4760     2.7915 C.3     
  33 O33           -0.7936     1.7942     1.4547 O.3     
  34 C34           -3.7083     3.7777     3.8535 C.2     
  35 H35           -2.1302     0.7344    -7.2169 H       
  36 H36           -3.8868     0.9731    -7.0553 H       
  37 H37           -2.8672     2.5977    -8.6544 H       
  38 H38           -4.7298     3.2790    -7.3205 H       
  39 H39           -0.6347     2.7506    -7.6215 H       
  40 H40           -1.4275     4.6613    -8.8199 H       
  41 H41           -0.3276     3.9293    -5.4779 H       
  42 H42           -2.3023     4.5535    -4.2877 H       
  43 H43           -0.6885     1.4900    -5.4130 H       
  44 H44           -1.1167     5.0965     5.2317 H       
  45 H45           -0.2238     3.3560     6.5257 H       
  46 H46            1.5294     2.7168     0.0590 H       
  47 H47           -2.7713     0.0374    -2.5080 H       
  48 H48           -1.9894     2.2668     7.7095 H       
  49 H49            0.0332     1.4137     5.3000 H       
  50 H50           -5.4864     5.4087     6.6642 H       
  51 H51           -1.7902     0.5185     6.5965 H       
  52 H52           -2.3617     2.0023     3.5485 H       
  53 H53           -5.6018     3.5089     2.9537 H       
  54 H54            0.6300     1.7898     2.9520 H       
  55 H55           -0.4825     0.4003     2.9476 H       
  56 H56           -3.1716     3.3080     3.0425 H       
@<TRIPOS>BOND
   1    1   14 2
   2    1   19 1
   3    1   24 1
   4    1   33 1
   5    2   15 2
   6    2   20 1
   7    2   24 1
   8    2   25 1
   9    3    4 1
  10    3    5 1
  11    3   35 1
  12    3   36 1
  13    4   11 1
  14    5    6 1
  15    5    7 1
  16    5   37 1
  17    6   38 1
  18    7    8 1
  19    7    9 1
  20    7   39 1
  21    8   40 1
  22    9   10 1
  23    9   11 1
  24    9   41 1
  25   10   42 1
  26   11   25 1
  27   11   43 1
  28   12   13 1
  29   12   17 1
  30   12   30 1
  31   12   44 1
  32   13   16 am
  33   13   34 1
  34   16   18 2
  35   16   23 am
  36   17   21 1
  37   17   22 1
  38   17   45 1
  39   19   46 1
  40   20   47 1
  41   21   48 1
  42   22   26 1
  43   22   28 1
  44   22   49 1
  45   23   27 am
  46   23   50 1
  47   26   51 1
  48   27   29 2
  49   27   31 1
  50   28   30 1
  51   28   32 1
  52   28   52 1
  53   31   34 2
  54   31   53 1
  55   32   33 1
  56   32   54 1
  57   32   55 1
  58   34   56 1

#	End of record

