#	Name: ASD02448193
#	Creating user name:	WinNT
#	Creation time:	15. 06. 2019 20:22

#	Modifying user name:	WinNT
#	Modification time:	15. 06. 2019 20:22

#	Program:	/corina/corina34_cracker 3.40 0067  02.08.2006

@<TRIPOS>MOLECULE
ASD02448193
  71   75    0    0    0
SMALL
NO_CHARGES


@<TRIPOS>ATOM
   1 C1             0.2434     1.1930    -0.1998 C.ar    
   2 C2             0.2272    -0.1872    -0.1416 C.ar    
   3 C3             1.4205    -0.8955    -0.0811 C.ar    
   4 C4             2.6294    -0.2161    -0.0791 C.ar    
   5 C5             2.6429     1.1708    -0.1376 C.ar    
   6 C6             1.4459     1.8734    -0.1980 C.ar    
   7 N7             3.8584     1.8589    -0.1354 N.am    
   8 C8             4.1398     3.1955    -0.6752 C.3     
   9 C9             5.5718     3.5730    -0.4727 C.2     
  10 N10            6.3146     2.6457     0.1480 N.am    
  11 S11            5.3213     1.3539     0.4876 S.o2    
  12 O12            6.0262     4.6353    -0.8415 O.2     
  13 O13            5.1842     1.2905     1.9005 O.2     
  14 O14            5.7581     0.2665    -0.3163 O.2     
  15 N15            1.4028    -2.2962    -0.0215 N.pl3   
  16 C16            2.0299    -3.1536    -0.8857 C.2     
  17 C17            0.7648    -3.0552     0.9079 C.2     
  18 N18            0.9746    -4.3138     0.6404 N.2     
  19 C19            1.7502    -4.4124    -0.4584 C.2     
  20 C20            2.2150    -5.6723    -1.0891 C.ar    
  21 C21            1.8516    -6.9036    -0.5436 C.ar    
  22 C22            3.0113    -5.6297    -2.2315 C.ar    
  23 C23            3.4414    -6.8046    -2.8146 C.ar    
  24 C24            3.0827    -8.0241    -2.2669 C.ar    
  25 C25            2.2873    -8.0730    -1.1349 C.ar    
  26 C26           -0.0518    -2.5281     2.0596 C.3     
  27 C27            0.8100    -2.4531     3.2936 C.ar    
  28 C28            1.5969    -1.3374     3.5173 C.ar    
  29 C29            0.8066    -3.4977     4.2006 C.ar    
  30 C30            1.5930    -3.4350     5.3326 C.ar    
  31 C31            2.3929    -2.3149     5.5615 C.ar    
  32 C32            2.3882    -1.2625     4.6451 C.ar    
  33 C33            3.2378    -2.2411     6.7721 C.2     
  34 Cl34           3.6268    -9.4977    -3.0060 Cl      
  35 Cl35           0.8542    -6.9657     0.8759 Cl      
  36 C36            4.5585    -2.2237     6.6586 C.2     
  37 C37            5.4217    -2.2890     7.8921 C.3     
  38 C38            6.3381    -3.5114     7.8093 C.3     
  39 C39            7.2145    -3.5776     9.0616 C.3     
  40 C40            8.1309    -4.8000     8.9788 C.3     
  41 C41            2.5979    -2.1855     8.1353 C.3     
  42 H42           -0.6858     1.7411    -0.2514 H       
  43 H43           -0.7144    -0.7160    -0.1428 H       
  44 H44            3.5584    -0.7648    -0.0317 H       
  45 H45            1.4553     2.9524    -0.2436 H       
  46 H46            3.9157     3.2042    -1.7418 H       
  47 H47            3.5039     3.9245    -0.1728 H       
  48 H48            7.2580     2.7160     0.3627 H       
  49 H49            2.6303    -2.8817    -1.7413 H       
  50 H50            3.2914    -4.6789    -2.6604 H       
  51 H51            4.0587    -6.7722    -3.7002 H       
  52 H52            2.0104    -9.0271    -0.7111 H       
  53 H53           -0.4243    -1.5332     1.8156 H       
  54 H54           -0.8932    -3.1960     2.2441 H       
  55 H55            1.5920    -0.5235     2.8075 H       
  56 H56            0.1867    -4.3640     4.0225 H       
  57 H57            1.5891    -4.2510     6.0401 H       
  58 H58            3.0054    -0.3930     4.8165 H       
  59 H59            5.0158    -2.1629     5.6821 H       
  60 H60            6.0270    -1.3850     7.9602 H       
  61 H61            4.7879    -2.3692     8.7753 H       
  62 H62            5.7328    -4.4153     7.7411 H       
  63 H63            6.9719    -3.4311     6.9261 H       
  64 H64            7.8198    -2.6737     9.1297 H       
  65 H65            6.5807    -3.6578     9.9448 H       
  66 H66            7.5256    -5.7039     8.9107 H       
  67 H67            8.7647    -4.7197     8.0956 H       
  68 H68            8.7553    -4.8471     9.8710 H       
  69 H69            2.5478    -3.1905     8.5544 H       
  70 H70            3.1923    -1.5481     8.7900 H       
  71 H71            1.5909    -1.7778     8.0476 H       
@<TRIPOS>BOND
   1    1    2 ar
   2    1    6 ar
   3    1   42 1
   4    2    3 ar
   5    2   43 1
   6    3    4 ar
   7    3   15 1
   8    4    5 ar
   9    4   44 1
  10    5    6 ar
  11    5    7 1
  12    6   45 1
  13    7    8 1
  14    7   11 am
  15    8    9 1
  16    8   46 1
  17    8   47 1
  18    9   10 am
  19    9   12 2
  20   10   11 am
  21   10   48 1
  22   11   13 2
  23   11   14 2
  24   15   16 1
  25   15   17 1
  26   16   19 2
  27   16   49 1
  28   17   18 2
  29   17   26 1
  30   18   19 1
  31   19   20 1
  32   20   21 ar
  33   20   22 ar
  34   21   35 1
  35   21   25 ar
  36   22   23 ar
  37   22   50 1
  38   23   24 ar
  39   23   51 1
  40   24   25 ar
  41   24   34 1
  42   25   52 1
  43   26   27 1
  44   26   53 1
  45   26   54 1
  46   27   28 ar
  47   27   29 ar
  48   28   32 ar
  49   28   55 1
  50   29   30 ar
  51   29   56 1
  52   30   31 ar
  53   30   57 1
  54   31   32 ar
  55   31   33 1
  56   32   58 1
  57   33   36 2
  58   33   41 1
  59   36   37 1
  60   36   59 1
  61   37   38 1
  62   37   60 1
  63   37   61 1
  64   38   39 1
  65   38   62 1
  66   38   63 1
  67   39   40 1
  68   39   64 1
  69   39   65 1
  70   40   66 1
  71   40   67 1
  72   40   68 1
  73   41   69 1
  74   41   70 1
  75   41   71 1

#	End of record

