#	Name: ASD01200038
#	Creating user name:	WinNT
#	Creation time:	15. 06. 2019 19:08

#	Modifying user name:	WinNT
#	Modification time:	15. 06. 2019 19:08

#	Program:	/corina/corina34_cracker 3.40 0067  02.08.2006

@<TRIPOS>MOLECULE
ASD01200038
  25   26    0    0    0
SMALL
NO_CHARGES


@<TRIPOS>ATOM
   1 C1            -0.0167     1.3803     0.0096 C.ar    
   2 C2             0.0021    -0.0041     0.0020 C.ar    
   3 C3            -1.1831    -0.7180     0.0100 C.ar    
   4 C4            -2.3921    -0.0541     0.0255 C.ar    
   5 C5            -2.4189     1.3418     0.0333 C.ar    
   6 C6            -1.2204     2.0569     0.0305 C.ar    
   7 C7            -3.7110     2.0592     0.0495 C.2     
   8 N8            -3.7336     3.4067     0.0570 N.am    
   9 C9            -4.9479     4.0809     0.0722 C.2     
  10 N10           -5.0813     5.3704     0.0804 N.2     
  11 C11           -6.3134     5.8435     0.0948 C.2     
  12 C12           -7.2664     4.9094     0.0989 C.2     
  13 S13           -6.4844     3.3310     0.0755 S.3     
  14 O14           -4.7534     1.4338     0.0561 O.2     
  15 C15           -6.6192     7.3191     0.1056 C.3     
  16 Cl16           1.4757     2.2671     0.0001 Cl      
  17 H17            0.9459    -0.5289    -0.0105 H       
  18 H18           -1.1616    -1.7978     0.0036 H       
  19 H19           -3.3162    -0.6130     0.0313 H       
  20 H20           -1.2343     3.1368     0.0365 H       
  21 H21           -2.9019     3.9058     0.0517 H       
  22 H22           -8.3312     5.0896     0.1101 H       
  23 H23           -6.7032     7.6803    -0.9193 H       
  24 H24           -7.5592     7.4915     0.6298 H       
  25 H25           -5.8164     7.8528     0.6143 H       
@<TRIPOS>BOND
   1    1    2 ar
   2    1   16 1
   3    1    6 ar
   4    2    3 ar
   5    2   17 1
   6    3    4 ar
   7    3   18 1
   8    4    5 ar
   9    4   19 1
  10    5    6 ar
  11    5    7 1
  12    6   20 1
  13    7    8 am
  14    7   14 2
  15    8    9 1
  16    8   21 1
  17    9   10 2
  18    9   13 1
  19   10   11 1
  20   11   12 2
  21   11   15 1
  22   12   13 1
  23   12   22 1
  24   15   23 1
  25   15   24 1
  26   15   25 1

#	End of record

