#	Name: ASD05300028
#	Creating user name:	WinNT
#	Creation time:	15. 06. 2019 20:58

#	Modifying user name:	WinNT
#	Modification time:	15. 06. 2019 20:58

#	Program:	/corina/corina34_cracker 3.40 0067  02.08.2006

@<TRIPOS>MOLECULE
ASD05300028
  64   66    0    0    0
SMALL
NO_CHARGES


@<TRIPOS>ATOM
   1 C1             8.1827    -3.2144    -2.9578 C.3     
   2 C2             7.2675    -2.0594    -2.5460 C.3     
   3 N3             5.9547    -2.5878    -2.1672 N.am    
   4 C4             5.7549    -3.0687    -0.9241 C.2     
   5 O5             4.7551    -3.7083    -0.6748 O.2     
   6 N6             6.6662    -2.8388     0.0419 N.am    
   7 C7             7.6767    -1.9698    -0.1777 C.2     
   8 C8             8.9269    -2.3738    -0.1590 C.2     
   9 C9            10.0165    -1.3948    -0.3397 C.2     
  10 C10            9.7392    -0.1276    -0.5533 C.2     
  11 C11            8.3363     0.3177    -0.6130 C.2     
  12 C12            7.3652    -0.5510    -0.4361 C.2     
  13 C13            5.9622    -0.1064    -0.4967 C.2     
  14 O14            5.1577    -0.5267     0.3077 O.2     
  15 N15            5.5726     0.7674    -1.4459 N.am    
  16 C16            6.5216     1.7545    -1.9668 C.3     
  17 C17            7.0265     2.6315    -0.8193 C.3     
  18 C18            7.7043     1.0323    -2.6153 C.3     
  19 C19            4.2001     0.7301    -1.9569 C.3     
  20 C20            3.5273     2.0820    -1.7107 C.3     
  21 C21            4.2227     0.4376    -3.4585 C.3     
  22 C22            9.2556    -3.7950    -0.0089 C.2     
  23 C23            8.6386    -4.6336     0.7608 C.2     
  24 C24            7.4999    -4.3099     1.6280 C.2     
  25 C25            6.5641    -3.4734     1.2293 C.2     
  26 C26            5.3882    -3.2242     2.0863 C.2     
  27 C27            5.2956    -3.7986     3.2652 C.2     
  28 C28            6.3680    -4.6939     3.7324 C.2     
  29 C29            7.4061    -4.9330     2.9626 C.2     
  30 C30            4.8590    -2.5935    -3.1397 C.3     
  31 C31            4.8780    -3.9084    -3.9217 C.3     
  32 H32            8.3437    -3.8725    -2.1040 H       
  33 H33            7.7165    -3.7765    -3.7670 H       
  34 H34            9.1397    -2.8169    -3.2958 H       
  35 H35            7.7058    -1.5332    -1.6980 H       
  36 H36            7.1541    -1.3698    -3.3824 H       
  37 H37           11.0453    -1.7205    -0.2961 H       
  38 H38           10.5390     0.5862    -0.6844 H       
  39 H39            8.1058     1.3558    -0.8015 H       
  40 H40            6.0253     2.3787    -2.7099 H       
  41 H41            6.8465     2.1269     0.1300 H       
  42 H42            8.0954     2.8079    -0.9400 H       
  43 H43            6.4975     3.5844    -0.8303 H       
  44 H44            7.5751     1.0227    -3.6975 H       
  45 H45            8.6291     1.5517    -2.3643 H       
  46 H46            7.7512     0.0078    -2.2459 H       
  47 H47            3.6421    -0.0524    -1.4427 H       
  48 H48            2.5373     2.0836    -2.1666 H       
  49 H49            3.4336     2.2513    -0.6380 H       
  50 H50            4.1318     2.8744    -2.1521 H       
  51 H51            4.7919    -0.4735    -3.6427 H       
  52 H52            3.2022     0.3076    -3.8187 H       
  53 H53            4.6901     1.2705    -3.9839 H       
  54 H54           10.0827    -4.1747    -0.5904 H       
  55 H55            8.9904    -5.6547     0.7647 H       
  56 H56            4.6019    -2.5678     1.7440 H       
  57 H57            4.4346    -3.6140     3.8905 H       
  58 H58            6.3030    -5.1525     4.7081 H       
  59 H59            8.1915    -5.5898     3.3063 H       
  60 H60            3.9080    -2.4959    -2.6161 H       
  61 H61            4.9812    -1.7586    -3.8297 H       
  62 H62            4.7558    -4.7433    -3.2318 H       
  63 H63            4.0628    -3.9127    -4.6453 H       
  64 H64            5.8291    -4.0060    -4.4453 H       
@<TRIPOS>BOND
   1    1    2 1
   2    1   32 1
   3    1   33 1
   4    1   34 1
   5    2    3 1
   6    2   35 1
   7    2   36 1
   8    3    4 am
   9    3   30 1
  10    4    5 2
  11    4    6 am
  12    6    7 1
  13    6   25 1
  14    7    8 2
  15    7   12 1
  16    8    9 1
  17    8   22 1
  18    9   10 2
  19    9   37 1
  20   10   11 1
  21   10   38 1
  22   11   12 2
  23   11   39 1
  24   12   13 1
  25   13   14 2
  26   13   15 am
  27   15   16 1
  28   15   19 1
  29   16   17 1
  30   16   18 1
  31   16   40 1
  32   17   41 1
  33   17   42 1
  34   17   43 1
  35   18   44 1
  36   18   45 1
  37   18   46 1
  38   19   20 1
  39   19   21 1
  40   19   47 1
  41   20   48 1
  42   20   49 1
  43   20   50 1
  44   21   51 1
  45   21   52 1
  46   21   53 1
  47   22   23 2
  48   22   54 1
  49   23   24 1
  50   23   55 1
  51   24   25 2
  52   24   29 1
  53   25   26 1
  54   26   27 2
  55   26   56 1
  56   27   28 1
  57   27   57 1
  58   28   29 2
  59   28   58 1
  60   29   59 1
  61   30   31 1
  62   30   60 1
  63   30   61 1
  64   31   62 1
  65   31   63 1
  66   31   64 1

#	End of record

