#	Name: ASD04881015
#	Creating user name:	WinNT
#	Creation time:	15. 06. 2019 20:53

#	Modifying user name:	WinNT
#	Modification time:	15. 06. 2019 20:53

#	Program:	/corina/corina34_cracker 3.40 0067  02.08.2006

@<TRIPOS>MOLECULE
ASD04881015
  85   89    0    0    0
SMALL
NO_CHARGES


@<TRIPOS>ATOM
   1 C1             0.1419     1.4694     0.5863 C.2     
   2 C2             0.1729    -0.0042     0.5980 C.2     
   3 O3            -0.7089    -0.6266     1.1587 O.2     
   4 N4             1.1783    -0.6620    -0.0127 N.am    
   5 C5             1.2534    -2.0587     0.0692 C.ar    
   6 C6             2.4879    -2.7017    -0.0602 C.ar    
   7 C7             2.5639    -4.0871     0.0204 C.ar    
   8 C8             1.4236    -4.8316     0.2284 C.ar    
   9 C9             0.1864    -4.1953     0.3587 C.ar    
  10 C10            0.1081    -2.8014     0.2837 C.ar    
  11 C11           -1.0347    -4.9928     0.5805 C.2     
  12 O12           -2.1109    -4.4382     0.6937 O.2     
  13 N13           -0.9575    -6.3361     0.6576 N.am    
  14 C14           -2.1701    -7.1281     0.8779 C.3     
  15 C15           -1.8075    -8.6138     0.9247 C.3     
  16 N16            3.6431    -1.9532    -0.2706 N.3     
  17 C17            4.6140    -2.1689     0.8097 C.3     
  18 C18            5.8044    -1.2252     0.6235 C.3     
  19 C19            6.4562    -1.4957    -0.7354 C.3     
  20 C20            5.4114    -1.3112    -1.8395 C.3     
  21 C21            4.2325    -2.2524    -1.5819 C.3     
  22 N22            1.0545     2.2926     0.0022 N.2     
  23 C23            0.6881     3.5228     0.2041 C.2     
  24 O24           -0.4507     3.5343     0.9112 O.3     
  25 C25           -0.8079     2.2628     1.1527 C.2     
  26 C26            1.4272     4.7438    -0.2797 C.3     
  27 C27           -3.0739    -9.4409     1.1547 C.3     
  28 N28           -2.7266   -10.8635     1.1996 N.am    
  29 C29           -2.3640   -11.5892     2.4225 C.3     
  30 C30           -1.6748   -12.8860     1.9432 C.3     
  31 C31           -2.2909   -13.0691     0.5368 C.3     
  32 C32           -2.7048   -11.6730     0.1267 C.2     
  33 N33            7.5605    -0.5559    -0.9443 N.am    
  34 C34            8.5746    -0.8808    -1.7704 C.2     
  35 O35            9.5895    -0.0172    -1.9625 O.3     
  36 O36            8.5730    -1.9532    -2.3419 O.2     
  37 C37           10.6474    -0.4336    -2.8656 C.3     
  38 C38           10.0598    -0.6928    -4.2543 C.3     
  39 C39           11.7038     0.6694    -2.9566 C.3     
  40 C40           11.2933    -1.7161    -2.3376 C.3     
  41 O41           -2.9751   -11.3330    -1.0057 O.2     
  42 C42            0.6832     5.6930    -1.2211 C.3     
  43 C43            0.9496     6.1058     0.2279 C.3     
  44 H44            1.8498    -0.1685    -0.5090 H       
  45 H45            3.5189    -4.5812    -0.0807 H       
  46 H46            1.4858    -5.9080     0.2906 H       
  47 H47           -0.8461    -2.3065     0.3884 H       
  48 H48           -0.0990    -6.7786     0.5673 H       
  49 H49           -2.6282    -6.8360     1.8228 H       
  50 H50           -2.8726    -6.9511     0.0635 H       
  51 H51           -1.3494    -8.9059    -0.0202 H       
  52 H52           -1.1050    -8.7908     1.7391 H       
  53 H53            4.1390    -1.9692     1.7702 H       
  54 H54            4.9619    -3.2016     0.7845 H       
  55 H55            5.4592    -0.1921     0.6624 H       
  56 H56            6.5321    -1.3965     1.4167 H       
  57 H57            6.8361    -2.5170    -0.7603 H       
  58 H58            5.0601    -0.2794    -1.8393 H       
  59 H59            5.8584    -1.5439    -2.8060 H       
  60 H60            4.5821    -3.2847    -1.5959 H       
  61 H61            3.4804    -2.1133    -2.3584 H       
  62 H62           -1.6814     1.9325     1.6952 H       
  63 H63            2.4974     4.6129    -0.4395 H       
  64 H64           -3.5320    -9.1488     2.0997 H       
  65 H65           -3.7764    -9.2639     0.3403 H       
  66 H66           -1.6748   -10.9956     3.0231 H       
  67 H67           -3.2580   -11.8279     2.9986 H       
  68 H68           -0.5946   -12.7539     1.8817 H       
  69 H69           -1.9274   -13.7247     2.5920 H       
  70 H70           -1.5497   -13.4691    -0.1552 H       
  71 H71           -3.1619   -13.7228     0.5841 H       
  72 H72            7.5618     0.3001    -0.4881 H       
  73 H73            9.5997     0.2209    -4.6305 H       
  74 H74           10.8540    -1.0054    -4.9323 H       
  75 H75            9.3072    -1.4786    -4.1895 H       
  76 H76           12.1224     0.8541    -1.9673 H       
  77 H77           12.4980     0.3568    -3.6346 H       
  78 H78           11.2437     1.5831    -3.3327 H       
  79 H79           10.5407    -2.5019    -2.2728 H       
  80 H80           12.0875    -2.0287    -3.0156 H       
  81 H81           11.7119    -1.5315    -1.3483 H       
  82 H82            1.2641     6.1869    -2.0000 H       
  83 H83           -0.3408     5.4344    -1.4906 H       
  84 H84            0.1008     6.1188     0.9116 H       
  85 H85            1.7057     6.8713     0.4022 H       
@<TRIPOS>BOND
   1    1    2 1
   2    1   22 1
   3    1   25 2
   4    2    3 2
   5    2    4 am
   6    4    5 1
   7    4   44 1
   8    5    6 ar
   9    5   10 ar
  10    6    7 ar
  11    6   16 1
  12    7    8 ar
  13    7   45 1
  14    8    9 ar
  15    8   46 1
  16    9   10 ar
  17    9   11 1
  18   10   47 1
  19   11   12 2
  20   11   13 am
  21   13   14 1
  22   13   48 1
  23   14   15 1
  24   14   49 1
  25   14   50 1
  26   15   27 1
  27   15   51 1
  28   15   52 1
  29   16   17 1
  30   16   21 1
  31   17   18 1
  32   17   53 1
  33   17   54 1
  34   18   19 1
  35   18   55 1
  36   18   56 1
  37   19   20 1
  38   19   33 1
  39   19   57 1
  40   20   21 1
  41   20   58 1
  42   20   59 1
  43   21   60 1
  44   21   61 1
  45   22   23 2
  46   23   24 1
  47   23   26 1
  48   24   25 1
  49   25   62 1
  50   26   42 1
  51   26   43 1
  52   26   63 1
  53   27   28 1
  54   27   64 1
  55   27   65 1
  56   28   29 1
  57   28   32 am
  58   29   30 1
  59   29   66 1
  60   29   67 1
  61   30   31 1
  62   30   68 1
  63   30   69 1
  64   31   32 1
  65   31   70 1
  66   31   71 1
  67   32   41 2
  68   33   34 am
  69   33   72 1
  70   34   35 1
  71   34   36 2
  72   35   37 1
  73   37   38 1
  74   37   39 1
  75   37   40 1
  76   38   73 1
  77   38   74 1
  78   38   75 1
  79   39   76 1
  80   39   77 1
  81   39   78 1
  82   40   79 1
  83   40   80 1
  84   40   81 1
  85   42   43 1
  86   42   82 1
  87   42   83 1
  88   43   84 1
  89   43   85 1

#	End of record

