#	Name: ASD01900789
#	Creating user name:	WinNT
#	Creation time:	15. 06. 2019 19:52

#	Modifying user name:	WinNT
#	Modification time:	15. 06. 2019 19:52

#	Program:	/corina/corina34_cracker 3.40 0067  02.08.2006

@<TRIPOS>MOLECULE
ASD01900789
  58   63    0    0    0
SMALL
NO_CHARGES


@<TRIPOS>ATOM
   1 C1             0.5222     1.6448     0.2184 C.ar    
   2 C2             0.6155     0.3441     0.6977 C.ar    
   3 C3            -0.5219    -0.3854     0.9780 C.ar    
   4 C4            -1.7758     0.1781     0.7822 C.ar    
   5 C5            -1.8677     1.4888     0.2945 C.ar    
   6 O6            -2.8953    -0.5235     1.0644 O.3     
   7 C7            -4.1030    -0.1373     0.6191 C.2     
   8 C8            -4.3431     1.1045     0.1341 C.2     
   9 C9            -3.2218     2.0608     0.0822 C.2     
  10 C10           -5.2149    -1.1077     0.6597 C.2     
  11 N11           -6.4556    -0.7239     0.2067 N.2     
  12 C12           -7.5502    -1.2673     0.6837 C.2     
  13 C13           -7.3273    -2.3192     1.7036 C.3     
  14 C14           -6.1931    -3.2534     1.1600 C.3     
  15 C15           -4.9842    -2.3604     1.1394 C.2     
  16 C16           -0.7214     2.2227     0.0204 C.ar    
  17 C17           -8.4009    -3.1664     2.2462 C.2     
  18 C18           -8.0032    -4.3286     2.7758 C.2     
  19 S19           -6.2311    -4.4361     2.5562 S.3     
  20 O20            1.6513     2.3527    -0.0512 O.3     
  21 C21            2.8952     1.6588     0.0649 C.3     
  22 C22            3.9429     2.3346    -0.8239 C.3     
  23 C23            3.3695     1.6988     1.5202 C.3     
  24 C24            4.7306     1.0075     1.6272 C.3     
  25 N25            5.6979     1.6913     0.7593 N.3     
  26 C26            5.2874     1.6248    -0.6491 C.3     
  27 C27            6.9756     1.1714     0.9309 C.ar    
  28 C28            8.0353     1.6897     0.1939 C.ar    
  29 N29            7.1741     0.1908     1.7984 N.ar    
  30 C30            8.3706    -0.3306     1.9913 C.ar    
  31 C31            9.4662     0.1322     1.2901 C.ar    
  32 C32            9.3017     1.1629     0.3746 C.ar    
  33 N33           -3.4090     3.3396    -0.1386 N.2     
  34 O34           -2.3235     4.2427    -0.0329 O.3     
  35 H35            1.5875    -0.1005     0.8522 H       
  36 H36           -0.4367    -1.3959     1.3496 H       
  37 H37           -5.3289     1.3865    -0.2050 H       
  38 H38           -8.5367    -0.9709     0.3588 H       
  39 H39           -6.8916    -1.8154     2.5664 H       
  40 H40           -6.4101    -3.6997     0.1895 H       
  41 H41           -4.0129    -2.6845     1.4830 H       
  42 H42           -0.7986     3.2336    -0.3517 H       
  43 H43           -9.4391    -2.8700     2.2190 H       
  44 H44           -8.6353    -5.0660     3.2484 H       
  45 H45            2.7651     0.6230    -0.2484 H       
  46 H46            3.6310     2.2715    -1.8665 H       
  47 H47            4.0438     3.3811    -0.5364 H       
  48 H48            3.4613     2.7353     1.8447 H       
  49 H49            2.6479     1.1815     2.1525 H       
  50 H50            5.0778     1.0468     2.6596 H       
  51 H51            4.6351    -0.0327     1.3157 H       
  52 H52            5.1893     0.5817    -0.9499 H       
  53 H53            6.0390     2.1125    -1.2698 H       
  54 H54            7.8717     2.4922    -0.5101 H       
  55 H55            8.4948    -1.1296     2.7074 H       
  56 H56           10.4420    -0.3003     1.4551 H       
  57 H57           10.1429     1.5426    -0.1864 H       
  58 H58           -2.5586     5.1631    -0.2133 H       
@<TRIPOS>BOND
   1    1    2 ar
   2    1   20 1
   3    1   16 ar
   4    2    3 ar
   5    2   35 1
   6    3    4 ar
   7    3   36 1
   8    4    5 ar
   9    4    6 1
  10    5   16 ar
  11    5    9 1
  12    6    7 1
  13    7    8 2
  14    7   10 1
  15    8    9 1
  16    8   37 1
  17    9   33 2
  18   10   11 1
  19   10   15 2
  20   11   12 2
  21   12   13 1
  22   12   38 1
  23   13   14 1
  24   13   17 1
  25   13   39 1
  26   14   15 1
  27   14   19 1
  28   14   40 1
  29   15   41 1
  30   16   42 1
  31   17   18 2
  32   17   43 1
  33   18   19 1
  34   18   44 1
  35   20   21 1
  36   21   22 1
  37   21   23 1
  38   21   45 1
  39   22   26 1
  40   22   46 1
  41   22   47 1
  42   23   24 1
  43   23   48 1
  44   23   49 1
  45   24   25 1
  46   24   50 1
  47   24   51 1
  48   25   26 1
  49   25   27 1
  50   26   52 1
  51   26   53 1
  52   27   28 ar
  53   27   29 ar
  54   28   32 ar
  55   28   54 1
  56   29   30 ar
  57   30   31 ar
  58   30   55 1
  59   31   32 ar
  60   31   56 1
  61   32   57 1
  62   33   34 1
  63   34   58 1

#	End of record

