#	Name: ASD02198111
#	Creating user name:	WinNT
#	Creation time:	15. 06. 2019 20:18

#	Modifying user name:	WinNT
#	Modification time:	15. 06. 2019 20:18

#	Program:	/corina/corina34_cracker 3.40 0067  02.08.2006

@<TRIPOS>MOLECULE
ASD02198111
  50   52    0    0    0
SMALL
NO_CHARGES


@<TRIPOS>ATOM
   1 C1            -1.9826     1.9043     0.8865 C.2     
   2 C2            -1.6279     0.5844     0.7070 C.2     
   3 C3            -2.4106    -0.5085     1.2005 C.1     
   4 S4            -0.8335     2.9441     0.1757 S.3     
   5 C5             0.1450     1.5937    -0.3752 C.2     
   6 C6            -0.4382     0.4098     0.0015 C.2     
   7 C7             1.3509     1.7089    -1.0982 C.2     
   8 C8             1.8074     3.0307    -1.5645 C.2     
   9 O9             2.0159     0.7145    -1.3376 O.2     
  10 N10            0.1017    -0.8345    -0.2898 N.pl3   
  11 N11           -3.1145     2.3257     1.5454 N.pl3   
  12 N12           -3.0315    -1.3755     1.5920 N.1     
  13 C13            1.1375     4.2097    -1.4714 C.2     
  14 C14           -3.3566     3.7568     1.7437 C.3     
  15 C15           -4.7970     4.0707     1.4310 C.2     
  16 C16           -3.0579     4.1280     3.1976 C.3     
  17 O17           -5.2495     5.3294     1.5439 O.3     
  18 O18            1.8729     5.1941    -2.0046 O.3     
  19 C19            3.0497     4.7288    -2.4718 C.ar    
  20 C20            3.0894     3.3490    -2.2232 C.ar    
  21 C21            4.1312     5.3377    -3.0971 C.ar    
  22 C22            5.2240     4.5850    -3.4703 C.ar    
  23 C23            5.2583     3.2197    -3.2287 C.ar    
  24 C24            4.1982     2.5994    -2.6031 C.ar    
  25 O25           -5.5446     3.1893     1.0786 O.2     
  26 C26           -6.6478     5.5582     1.2265 C.3     
  27 C27           -1.5604     3.9675     3.4676 C.3     
  28 C28           -0.7777     4.9618     2.6076 C.3     
  29 C29           -1.2769     4.2385     4.9464 C.3     
  30 H30            0.9338    -0.8985    -0.7843 H       
  31 H31           -0.3528    -1.6406     0.0009 H       
  32 H32           -3.7522     1.6751     1.8787 H       
  33 H33            0.1582     4.3341    -1.0333 H       
  34 H34           -2.7078     4.3303     1.0816 H       
  35 H35           -3.3503     5.1628     3.3759 H       
  36 H36           -3.6193     3.4720     3.8628 H       
  37 H37            4.1152     6.4000    -3.2909 H       
  38 H38            6.0618     5.0632    -3.9560 H       
  39 H39            6.1206     2.6418    -3.5266 H       
  40 H40            4.2253     1.5362    -2.4152 H       
  41 H41           -7.2734     4.9614     1.8902 H       
  42 H42           -6.8822     6.6145     1.3585 H       
  43 H43           -6.8374     5.2704     0.1924 H       
  44 H44           -1.2533     2.9516     3.2190 H       
  45 H45           -1.0147     5.9785     2.9211 H       
  46 H46            0.2909     4.7842     2.7284 H       
  47 H47           -1.0517     4.8312     1.5608 H       
  48 H48           -1.8345     3.5301     5.5591 H       
  49 H49           -0.2101     4.1241     5.1388 H       
  50 H50           -1.5840     5.2544     5.1951 H       
@<TRIPOS>BOND
   1    1    2 2
   2    1    4 1
   3    1   11 1
   4    2    3 1
   5    2    6 1
   6    3   12 3
   7    4    5 1
   8    5    6 2
   9    5    7 1
  10    6   10 1
  11    7    8 1
  12    7    9 2
  13    8   13 2
  14    8   20 1
  15   10   30 1
  16   10   31 1
  17   11   14 1
  18   11   32 1
  19   13   18 1
  20   13   33 1
  21   14   16 1
  22   14   15 1
  23   14   34 1
  24   15   25 2
  25   15   17 1
  26   16   27 1
  27   16   35 1
  28   16   36 1
  29   17   26 1
  30   18   19 1
  31   19   20 ar
  32   19   21 ar
  33   20   24 ar
  34   21   22 ar
  35   21   37 1
  36   22   23 ar
  37   22   38 1
  38   23   24 ar
  39   23   39 1
  40   24   40 1
  41   26   41 1
  42   26   42 1
  43   26   43 1
  44   27   28 1
  45   27   29 1
  46   27   44 1
  47   28   45 1
  48   28   46 1
  49   28   47 1
  50   29   48 1
  51   29   49 1
  52   29   50 1

#	End of record

