#	Name: ASD07300183
#	Creating user name:	WinNT
#	Creation time:	15. 06. 2019 21:09

#	Modifying user name:	WinNT
#	Modification time:	15. 06. 2019 21:09

#	Program:	/corina/corina34_cracker 3.40 0067  02.08.2006

@<TRIPOS>MOLECULE
ASD07300183
  62   66    0    0    0
SMALL
NO_CHARGES


@<TRIPOS>ATOM
   1 C1            -0.0169     1.3940     0.0097 C.ar    
   2 C2             0.0021    -0.0041     0.0020 C.ar    
   3 C3             1.2200    -0.6674    -0.0135 C.ar    
   4 C4             2.3808     0.0923    -0.0208 C.ar    
   5 C5             2.2878     1.4714    -0.0125 C.ar    
   6 N6             1.1160     2.0768     0.0026 N.ar    
   7 C7            -2.1140     0.6621     0.0347 C.2     
   8 N8            -1.3544     1.7733     0.0301 N.am    
   9 N9            -1.3235    -0.4280     0.0132 N.am    
  10 O10           -3.3305     0.6451     0.0513 O.2     
  11 C11           -1.7801    -1.8200     0.0103 C.3     
  12 O12           -2.2466    -2.1709     1.3146 O.3     
  13 C13           -3.5709    -1.7161     1.6001 C.3     
  14 C14           -3.9639    -2.1460     3.0149 C.3     
  15 Si15          -5.6904    -1.5531     3.3870 Si      
  16 C16           -6.8797    -2.2947     2.1597 C.3     
  17 C17           -6.1689    -2.0765     5.1097 C.3     
  18 C18           -5.7490     0.3049     3.2637 C.3     
  19 C19           -1.8310     3.0898     0.0441 C.ar    
  20 C20           -3.1994     3.3317     0.0642 C.ar    
  21 C21           -3.6716     4.6266     0.0780 C.ar    
  22 C22           -2.7742     5.6949     0.0718 C.ar    
  23 C23           -1.4010     5.4489     0.0516 C.ar    
  24 C24           -0.9347     4.1518     0.0436 C.ar    
  25 N25           -1.8329     7.6718     1.9037 N.ar    
  26 C26           -1.3582     8.5326     2.7721 C.ar    
  27 C27           -1.8075     9.8502     2.8172 C.ar    
  28 C28           -2.7664    10.2734     1.9414 C.ar    
  29 C29           -3.2724     9.3456     1.0109 C.ar    
  30 C30           -4.2596     9.7101     0.0811 C.ar    
  31 C31           -4.7315     8.7915    -0.8079 C.ar    
  32 C32           -4.2503     7.4874    -0.8140 C.ar    
  33 C33           -3.2784     7.0874     0.0860 C.ar    
  34 C34           -2.7707     8.0216     1.0212 C.ar    
  35 H35            1.2635    -1.7465    -0.0193 H       
  36 H36            3.3476    -0.3890    -0.0325 H       
  37 H37            3.1907     2.0638    -0.0178 H       
  38 H38           -2.5911    -1.9349    -0.7088 H       
  39 H39           -0.9528    -2.4731    -0.2676 H       
  40 H40           -3.6052    -0.6291     1.5279 H       
  41 H41           -4.2668    -2.1501     0.8820 H       
  42 H42           -3.9296    -3.2331     3.0870 H       
  43 H43           -3.2681    -1.7121     3.7329 H       
  44 H44           -6.8454    -3.3818     2.2319 H       
  45 H45           -7.8899    -1.9478     2.3774 H       
  46 H46           -6.5998    -1.9885     1.1518 H       
  47 H47           -5.4731    -1.6426     5.8278 H       
  48 H48           -7.1791    -1.7296     5.3274 H       
  49 H49           -6.1347    -3.1636     5.1819 H       
  50 H50           -5.4690     0.6111     2.2557 H       
  51 H51           -6.7591     0.6518     3.4814 H       
  52 H52           -5.0532     0.7388     3.9817 H       
  53 H53           -3.8935     2.5043     0.0686 H       
  54 H54           -4.7351     4.8140     0.0932 H       
  55 H55           -0.7041     6.2739     0.0464 H       
  56 H56            0.1282     3.9607     0.0328 H       
  57 H57           -0.5996     8.2112     3.4704 H       
  58 H58           -1.3984    10.5363     3.5441 H       
  59 H59           -3.1268    11.2913     1.9623 H       
  60 H60           -4.6452    10.7189     0.0708 H       
  61 H61           -5.4910     9.0812    -1.5190 H       
  62 H62           -4.6407     6.7778    -1.5284 H       
@<TRIPOS>BOND
   1    1    2 ar
   2    1    6 ar
   3    1    8 1
   4    2    3 ar
   5    2    9 1
   6    3    4 ar
   7    3   35 1
   8    4    5 ar
   9    4   36 1
  10    5    6 ar
  11    5   37 1
  12    7    8 am
  13    7    9 am
  14    7   10 2
  15    8   19 1
  16    9   11 1
  17   11   12 1
  18   11   38 1
  19   11   39 1
  20   12   13 1
  21   13   14 1
  22   13   40 1
  23   13   41 1
  24   14   15 1
  25   14   42 1
  26   14   43 1
  27   15   16 1
  28   15   17 1
  29   15   18 1
  30   16   44 1
  31   16   45 1
  32   16   46 1
  33   17   47 1
  34   17   48 1
  35   17   49 1
  36   18   50 1
  37   18   51 1
  38   18   52 1
  39   19   20 ar
  40   19   24 ar
  41   20   21 ar
  42   20   53 1
  43   21   22 ar
  44   21   54 1
  45   22   23 ar
  46   22   33 1
  47   23   24 ar
  48   23   55 1
  49   24   56 1
  50   25   26 ar
  51   25   34 ar
  52   26   27 ar
  53   26   57 1
  54   27   28 ar
  55   27   58 1
  56   28   29 ar
  57   28   59 1
  58   29   30 ar
  59   29   34 ar
  60   30   31 ar
  61   30   60 1
  62   31   32 ar
  63   31   61 1
  64   32   33 ar
  65   32   62 1
  66   33   34 ar

#	End of record

