#	Name: ASD01881344
#	Creating user name:	WinNT
#	Creation time:	15. 06. 2019 19:42

#	Modifying user name:	WinNT
#	Modification time:	15. 06. 2019 19:42

#	Program:	/corina/corina34_cracker 3.40 0067  02.08.2006

@<TRIPOS>MOLECULE
ASD01881344
  65   67    0    0    0
SMALL
NO_CHARGES


@<TRIPOS>ATOM
   1 C1            -0.0179     1.4705     0.0101 C.2     
   2 C2             0.0021    -0.0041     0.0020 C.ar    
   3 C3             1.2209    -0.6884    -0.0133 C.ar    
   4 C4             1.2351    -2.0651    -0.0209 C.ar    
   5 C5             0.0397    -2.7746    -0.0133 C.ar    
   6 C6            -1.1746    -2.0979     0.0015 C.ar    
   7 C7            -1.1977    -0.7214     0.0154 C.ar    
   8 O8             1.0260     2.0922     0.0035 O.2     
   9 O9            -1.1939     2.1283     0.0193 O.3     
  10 O10            0.0581    -4.1314    -0.0208 O.3     
  11 C11           -1.2062    -4.7974    -0.0124 C.3     
  12 O12           -1.8025    -4.7039    -1.3076 O.3     
  13 C13           -1.2134    -5.5669    -2.2824 C.3     
  14 C14           -1.9268    -5.3836    -3.6235 C.3     
  15 C15           -1.2960    -6.3076    -4.6672 C.3     
  16 C16           -2.0095    -6.1244    -6.0082 C.3     
  17 O17           -1.4203    -6.9873    -6.9830 O.3     
  18 C18           -1.9404    -6.9477    -8.2354 C.ar    
  19 C19           -1.4129    -7.7614    -9.2281 C.ar    
  20 C20           -1.9421    -7.7229   -10.5062 C.ar    
  21 C21           -3.0138    -6.8564   -10.7887 C.ar    
  22 C22           -3.5336    -6.0421    -9.7735 C.ar    
  23 C23           -3.0046    -6.0950    -8.5167 C.ar    
  24 C24           -0.2645    -8.6855    -8.9148 C.3     
  25 O25           -1.4305    -8.5153   -11.4805 O.3     
  26 C26           -3.5833    -6.8053   -12.1374 C.2     
  27 O27           -3.1307    -7.5114   -13.0142 O.2     
  28 C28           -4.7313    -5.8757   -12.4359 C.3     
  29 C29           -5.1328    -6.0168   -13.9055 C.3     
  30 C30           -6.3828    -5.1670   -14.1943 C.3     
  31 C31           -5.9768    -4.1370   -15.2685 C.3     
  32 C32           -4.7654    -4.7883   -15.9808 C.3     
  33 C33           -4.0110    -5.4734   -14.8144 C.3     
  34 H34            2.1501    -0.1380    -0.0195 H       
  35 H35            2.1763    -2.5946    -0.0331 H       
  36 H36           -2.1011    -2.6529     0.0069 H       
  37 H37           -2.1414    -0.1965     0.0321 H       
  38 H38           -1.1564     3.0945     0.0244 H       
  39 H39           -1.0626    -5.8464     0.2466 H       
  40 H40           -1.8594    -4.3278     0.7231 H       
  41 H41           -0.1578    -5.3199    -2.3957 H       
  42 H42           -1.3113    -6.6026    -1.9573 H       
  43 H43           -2.9824    -5.6307    -3.5101 H       
  44 H44           -1.8289    -4.3479    -3.9486 H       
  45 H45           -0.2404    -6.0606    -4.7805 H       
  46 H46           -1.3939    -7.3434    -4.3420 H       
  47 H47           -3.0651    -6.3714    -5.8949 H       
  48 H48           -1.9116    -5.0886    -6.3333 H       
  49 H49           -4.3562    -5.3751    -9.9850 H       
  50 H50           -3.4113    -5.4688    -7.7365 H       
  51 H51           -0.6531    -9.6493    -8.5856 H       
  52 H52            0.3438    -8.8251    -9.8084 H       
  53 H53            0.3464    -8.2507    -8.1237 H       
  54 H54           -1.8542    -9.3822   -11.5453 H       
  55 H55           -5.5799    -6.1309   -11.8012 H       
  56 H56           -4.4269    -4.8477   -12.2395 H       
  57 H57           -5.3303    -7.0629   -14.1396 H       
  58 H58           -7.1865    -5.8006   -14.5693 H       
  59 H59           -6.7033    -4.6542   -13.2874 H       
  60 H60           -6.7935    -3.9784   -15.9728 H       
  61 H61           -5.6849    -3.1955   -14.8032 H       
  62 H62           -5.0976    -5.5254   -16.7118 H       
  63 H63           -4.1407    -4.0296   -16.4521 H       
  64 H64           -3.4015    -4.7478   -14.2758 H       
  65 H65           -3.3929    -6.2902   -15.1873 H       
@<TRIPOS>BOND
   1    1    2 1
   2    1    8 2
   3    1    9 1
   4    2    3 ar
   5    2    7 ar
   6    3    4 ar
   7    3   34 1
   8    4    5 ar
   9    4   35 1
  10    5    6 ar
  11    5   10 1
  12    6    7 ar
  13    6   36 1
  14    7   37 1
  15    9   38 1
  16   10   11 1
  17   11   12 1
  18   11   39 1
  19   11   40 1
  20   12   13 1
  21   13   14 1
  22   13   41 1
  23   13   42 1
  24   14   15 1
  25   14   43 1
  26   14   44 1
  27   15   16 1
  28   15   45 1
  29   15   46 1
  30   16   17 1
  31   16   47 1
  32   16   48 1
  33   17   18 1
  34   18   19 ar
  35   18   23 ar
  36   19   20 ar
  37   19   24 1
  38   20   21 ar
  39   20   25 1
  40   21   22 ar
  41   21   26 1
  42   22   23 ar
  43   22   49 1
  44   23   50 1
  45   24   51 1
  46   24   52 1
  47   24   53 1
  48   25   54 1
  49   26   27 2
  50   26   28 1
  51   28   29 1
  52   28   55 1
  53   28   56 1
  54   29   30 1
  55   29   33 1
  56   29   57 1
  57   30   31 1
  58   30   58 1
  59   30   59 1
  60   31   32 1
  61   31   60 1
  62   31   61 1
  63   32   33 1
  64   32   62 1
  65   32   63 1
  66   33   64 1
  67   33   65 1

#	End of record

