#	Name: ASD01320008
#	Creating user name:	WinNT
#	Creation time:	15. 06. 2019 19:15

#	Modifying user name:	WinNT
#	Modification time:	15. 06. 2019 19:15

#	Program:	/corina/corina34_cracker 3.40 0067  02.08.2006

@<TRIPOS>MOLECULE
ASD01320008
  43   45    0    0    0
SMALL
NO_CHARGES


@<TRIPOS>ATOM
   1 C1            -0.0056     1.6768     0.1787 C.ar    
   2 C2             0.0104     0.2971     0.2612 C.ar    
   3 C3             1.2035    -0.3923     0.1139 C.ar    
   4 C4             2.3852     0.3089    -0.1178 C.ar    
   5 C5             2.3607     1.6937    -0.1998 C.ar    
   6 C6             1.1667     2.3734    -0.0512 C.ar    
   7 O7             1.2212    -1.7492     0.1957 O.3     
   8 C8             0.0410    -2.3913     0.3857 C.ar    
   9 C9            -0.8102    -2.6072    -0.6911 C.ar    
  10 C10           -2.0193    -3.2652    -0.4983 C.ar    
  11 C11           -2.3732    -3.7095     0.7913 C.ar    
  12 C12           -1.5080    -3.4851     1.8612 C.ar    
  13 C13           -0.3086    -2.8355     1.6556 C.ar    
  14 N14            3.5938    -0.3820    -0.2670 N.am    
  15 C15            4.7543     0.2069     0.0836 C.2     
  16 C16            6.0153    -0.5622     0.0415 C.ar    
  17 O17            4.7637     1.3709     0.4346 O.2     
  18 C18            7.2191     0.0450     0.4042 C.ar    
  19 C19            8.3926    -0.6780     0.3634 C.ar    
  20 C20            8.3786    -2.0041    -0.0365 C.ar    
  21 C21            7.1875    -2.6120    -0.3974 C.ar    
  22 C22            6.0069    -1.9008    -0.3555 C.ar    
  23 Cl23           9.8601    -2.9077    -0.0859 Cl      
  24 C24           -2.9295    -3.4974    -1.6402 C.2     
  25 O25           -3.3117    -4.6221    -1.8932 O.2     
  26 O26           -3.3347    -2.4615    -2.4000 O.3     
  27 C27           -3.6545    -4.4089     1.0084 C.2     
  28 O28           -4.4569    -4.5023     0.1011 O.2     
  29 O29           -3.9344    -4.9437     2.2131 O.3     
  30 H30           -0.9371     2.2121     0.2896 H       
  31 H31           -0.9070    -0.2437     0.4409 H       
  32 H32            3.2747     2.2404    -0.3789 H       
  33 H33            1.1489     3.4513    -0.1156 H       
  34 H34           -0.5328    -2.2637    -1.6768 H       
  35 H35           -1.7752    -3.8238     2.8513 H       
  36 H36            0.3587    -2.6637     2.4872 H       
  37 H37            3.5959    -1.2844    -0.6228 H       
  38 H38            7.2312     1.0790     0.7158 H       
  39 H39            9.3244    -0.2093     0.6433 H       
  40 H40            7.1829    -3.6462    -0.7087 H       
  41 H41            5.0787    -2.3760    -0.6368 H       
  42 H42           -3.9295    -2.6627    -3.1353 H       
  43 H43           -4.7860    -5.3920     2.3072 H       
@<TRIPOS>BOND
   1    1    2 ar
   2    1    6 ar
   3    1   30 1
   4    2    3 ar
   5    2   31 1
   6    3    4 ar
   7    3    7 1
   8    4    5 ar
   9    4   14 1
  10    5    6 ar
  11    5   32 1
  12    6   33 1
  13    7    8 1
  14    8    9 ar
  15    8   13 ar
  16    9   10 ar
  17    9   34 1
  18   10   11 ar
  19   10   24 1
  20   11   12 ar
  21   11   27 1
  22   12   13 ar
  23   12   35 1
  24   13   36 1
  25   14   15 am
  26   14   37 1
  27   15   16 1
  28   15   17 2
  29   16   18 ar
  30   16   22 ar
  31   18   19 ar
  32   18   38 1
  33   19   20 ar
  34   19   39 1
  35   20   21 ar
  36   20   23 1
  37   21   22 ar
  38   21   40 1
  39   22   41 1
  40   24   25 2
  41   24   26 1
  42   26   42 1
  43   27   28 2
  44   27   29 1
  45   29   43 1

#	End of record

