#	Name: ASD08170321
#	Creating user name:	WinNT
#	Creation time:	15. 06. 2019 21:17

#	Modifying user name:	WinNT
#	Modification time:	15. 06. 2019 21:17

#	Program:	/corina/corina34_cracker 3.40 0067  02.08.2006

@<TRIPOS>MOLECULE
ASD08170321
  72   75    0    0    0
SMALL
NO_CHARGES


@<TRIPOS>ATOM
   1 C1            -0.0155     1.2910     0.0091 C.2     
   2 N2             0.0021    -0.0041     0.0020 N.2     
   3 N3            -1.1192    -0.5842     0.0100 N.2     
   4 C4            -2.1833     0.1604     0.0246 C.2     
   5 S5            -1.7028     1.8047     0.0357 S.3     
   6 C6             1.1892     2.1964     0.0025 C.3     
   7 C7             1.5828     2.5110    -1.4422 C.3     
   8 C8             2.8059     3.4301    -1.4489 C.3     
   9 C9             3.1995     3.7447    -2.8935 C.3     
  10 C10            4.4042     4.6501    -2.9002 C.2     
  11 S11            4.3803     6.4138    -2.8899 S.3     
  12 C12            6.0933     6.4179    -2.9060 C.2     
  13 N13            6.5124     5.1885    -2.9170 N.2     
  14 N14            5.6433     4.2729    -2.9088 N.2     
  15 N15            6.9013     7.5498    -2.9076 N.am    
  16 C16            8.2428     7.4202    -2.9209 C.2     
  17 C17            9.1183     8.6468    -2.9226 C.3     
  18 O18            8.7453     6.3164    -2.9315 O.2     
  19 C19           10.4638     8.3043    -2.3366 C.ar    
  20 C20           10.6794     8.4354    -0.9774 C.ar    
  21 C21           11.9136     8.1213    -0.4399 C.ar    
  22 C22           12.9321     7.6757    -1.2615 C.ar    
  23 C23           12.7163     7.5438    -2.6205 C.ar    
  24 C24           11.4808     7.8537    -3.1574 C.ar    
  25 C25            9.2988     9.1426    -4.3587 C.3     
  26 O26            8.5041     9.6715    -2.1385 O.3     
  27 C27           10.2863    10.3111    -4.3745 C.3     
  28 N28           -3.4954    -0.3008     0.0352 N.am    
  29 C29           -3.7441    -1.6254     0.0311 C.2     
  30 C30           -5.1658    -2.1252     0.0425 C.3     
  31 O31           -2.8237    -2.4152     0.0182 O.2     
  32 C32           -5.2186    -3.5036    -0.5642 C.ar    
  33 C33           -5.4212    -3.6531    -1.9235 C.ar    
  34 C34           -5.0588    -4.6183     0.2375 C.ar    
  35 C35           -5.1073    -5.8827    -0.3191 C.ar    
  36 C36           -5.3160    -6.0324    -1.6774 C.ar    
  37 C37           -5.4697    -4.9175    -2.4801 C.ar    
  38 O38           -5.9886    -1.2381    -0.7178 O.3     
  39 C39           -5.6745    -2.1828     1.4843 C.3     
  40 C40           -7.0714    -2.8065     1.5077 C.3     
  41 H41            0.9501     3.1232     0.5240 H       
  42 H42            2.0193     1.7002     0.5054 H       
  43 H43            1.8219     1.5842    -1.9637 H       
  44 H44            0.7527     3.0071    -1.9450 H       
  45 H45            2.5668     4.3569    -0.9274 H       
  46 H46            3.6360     2.9340    -0.9460 H       
  47 H47            3.4386     2.8179    -3.4151 H       
  48 H48            2.3694     4.2409    -3.3964 H       
  49 H49            6.4994     8.4326    -2.8990 H       
  50 H50            9.8836     8.7835    -0.3356 H       
  51 H51           12.0823     8.2243     0.6218 H       
  52 H52           13.8966     7.4310    -0.8417 H       
  53 H53           13.5122     7.1960    -3.2624 H       
  54 H54           11.3121     7.7507    -4.2192 H       
  55 H55            9.6848     8.3322    -4.9771 H       
  56 H56            8.3377     9.4738    -4.7522 H       
  57 H57            8.3588     9.4259    -1.2145 H       
  58 H58           11.2474     9.9799    -3.9810 H       
  59 H59           10.4149    10.6643    -5.3977 H       
  60 H60            9.9003    11.1214    -3.7562 H       
  61 H61           -4.2314     0.3309     0.0455 H       
  62 H62           -5.5420    -2.7821    -2.5505 H       
  63 H63           -4.8957    -4.5013     1.2987 H       
  64 H64           -4.9817    -6.7536     0.3072 H       
  65 H65           -5.3535    -7.0203    -2.1123 H       
  66 H66           -5.6328    -5.0345    -3.5413 H       
  67 H67           -5.7237    -1.1526    -1.6439 H       
  68 H68           -4.9960    -2.7885     2.0851 H       
  69 H69           -5.7202    -1.1738     1.8941 H       
  70 H70           -7.7499    -2.2008     0.9070 H       
  71 H71           -7.0257    -3.8155     1.0980 H       
  72 H72           -7.4338    -2.8475     2.5349 H       
@<TRIPOS>BOND
   1    1    2 2
   2    1    6 1
   3    1    5 1
   4    2    3 1
   5    3    4 2
   6    4    5 1
   7    4   28 1
   8    6    7 1
   9    6   41 1
  10    6   42 1
  11    7    8 1
  12    7   43 1
  13    7   44 1
  14    8    9 1
  15    8   45 1
  16    8   46 1
  17    9   10 1
  18    9   47 1
  19    9   48 1
  20   10   11 1
  21   10   14 2
  22   11   12 1
  23   12   13 2
  24   12   15 1
  25   13   14 1
  26   15   16 am
  27   15   49 1
  28   16   17 1
  29   16   18 2
  30   17   19 1
  31   17   25 1
  32   17   26 1
  33   19   20 ar
  34   19   24 ar
  35   20   21 ar
  36   20   50 1
  37   21   22 ar
  38   21   51 1
  39   22   23 ar
  40   22   52 1
  41   23   24 ar
  42   23   53 1
  43   24   54 1
  44   25   27 1
  45   25   55 1
  46   25   56 1
  47   26   57 1
  48   27   58 1
  49   27   59 1
  50   27   60 1
  51   28   29 am
  52   28   61 1
  53   29   30 1
  54   29   31 2
  55   30   32 1
  56   30   38 1
  57   30   39 1
  58   32   33 ar
  59   32   34 ar
  60   33   37 ar
  61   33   62 1
  62   34   35 ar
  63   34   63 1
  64   35   36 ar
  65   35   64 1
  66   36   37 ar
  67   36   65 1
  68   37   66 1
  69   38   67 1
  70   39   40 1
  71   39   68 1
  72   39   69 1
  73   40   70 1
  74   40   71 1
  75   40   72 1

#	End of record

