#	Name: ASD01880839
#	Creating user name:	WinNT
#	Creation time:	15. 06. 2019 19:41

#	Modifying user name:	WinNT
#	Modification time:	15. 06. 2019 19:41

#	Program:	/corina/corina34_cracker 3.40 0067  02.08.2006

@<TRIPOS>MOLECULE
ASD01880839
  60   62    0    0    0
SMALL
NO_CHARGES


@<TRIPOS>ATOM
   1 N1            -0.0158     1.3135     0.0093 N.ar    
   2 C2             0.0021    -0.0041     0.0020 C.ar    
   3 N3             1.1312    -0.6835    -0.0120 N.ar    
   4 C4             2.3010    -0.0614    -0.0198 C.ar    
   5 C5             2.3294     1.3206    -0.0131 C.ar    
   6 C6             1.1167     2.0074     0.0022 C.ar    
   7 C7             3.6391     2.0661    -0.0211 C.3     
   8 O8             4.0409     2.3085    -1.3708 O.3     
   9 C9             5.2085     2.9750    -1.5558 C.ar    
  10 C10            5.6586     3.2442    -2.8447 C.ar    
  11 C11            6.8396     3.9189    -3.0304 C.ar    
  12 C12            7.5955     4.3385    -1.9307 C.ar    
  13 C13            7.1387     4.0659    -0.6383 C.ar    
  14 C14            5.9508     3.3930    -0.4577 C.ar    
  15 C15            7.5943     4.3610    -4.2593 C.3     
  16 N16            8.8002     5.0432    -3.7763 N.am    
  17 C17            8.7969     5.0279    -2.4323 C.2     
  18 O18            9.6623     5.5143    -1.7303 O.2     
  19 C19            7.5908     5.9610     0.8958 C.3     
  20 C20            7.9428     4.5113     0.5559 C.3     
  21 C21            4.0058    -1.1111    -1.4830 C.3     
  22 C22            3.5847    -0.8508    -0.0353 C.3     
  23 C23           -0.0164     5.5091     0.0309 C.3     
  24 F24            0.6808     5.9030    -1.1163 F       
  25 F25            0.7031     5.8915     1.1682 F       
  26 F26           -1.2735     6.1226     0.0462 F       
  27 C27            9.4847     7.1038    -4.9017 C.3     
  28 C28            9.8374     5.6420    -4.6200 C.3     
  29 O29            1.0934     3.3624     0.0092 O.3     
  30 C30           -0.1907     3.9891     0.0249 C.3     
  31 C31           -1.7607    -1.0009    -1.4291 C.3     
  32 C32           -1.3047    -0.7547     0.0105 C.3     
  33 H33            3.5192     3.0167     0.4986 H       
  34 H34            4.3997     1.4698     0.4829 H       
  35 H35            5.0797     2.9226    -3.6978 H       
  36 H36            5.5982     3.1829     0.5413 H       
  37 H37            7.8694     3.4953    -4.8618 H       
  38 H38            6.9848     5.0482    -4.8463 H       
  39 H39            7.8213     6.6002     0.0436 H       
  40 H40            6.5278     6.0322     1.1264 H       
  41 H41            8.1723     6.2832     1.7595 H       
  42 H42            7.7122     3.8721     1.4081 H       
  43 H43            9.0058     4.4400     0.3253 H       
  44 H44            3.2255    -1.6765    -1.9923 H       
  45 H45            4.1578    -0.1602    -1.9937 H       
  46 H46            4.9343    -1.6820    -1.4942 H       
  47 H47            4.3650    -0.2853     0.4741 H       
  48 H48            3.4327    -1.8016     0.4755 H       
  49 H49           10.2564     7.5493    -5.5295 H       
  50 H50            8.5247     7.1534    -5.4157 H       
  51 H51            9.4216     7.6502    -3.9607 H       
  52 H52           10.7973     5.5924    -4.1060 H       
  53 H53            9.9005     5.0956    -5.5611 H       
  54 H54           -0.7339     3.6821     0.9187 H       
  55 H55           -0.7513     3.6911    -0.8612 H       
  56 H56           -1.8937    -0.0455    -1.9365 H       
  57 H57           -1.0073    -1.5889    -1.9533 H       
  58 H58           -2.7058    -1.5438    -1.4230 H       
  59 H59           -1.1716    -1.7101     0.5179 H       
  60 H60           -2.0580    -0.1667     0.5347 H       
@<TRIPOS>BOND
   1    1    2 ar
   2    1    6 ar
   3    2    3 ar
   4    2   32 1
   5    3    4 ar
   6    4    5 ar
   7    4   22 1
   8    5    6 ar
   9    5    7 1
  10    6   29 1
  11    7    8 1
  12    7   33 1
  13    7   34 1
  14    8    9 1
  15    9   10 ar
  16    9   14 ar
  17   10   11 ar
  18   10   35 1
  19   11   12 ar
  20   11   15 1
  21   12   13 ar
  22   12   17 1
  23   13   14 ar
  24   13   20 1
  25   14   36 1
  26   15   16 1
  27   15   37 1
  28   15   38 1
  29   16   17 am
  30   16   28 1
  31   17   18 2
  32   19   20 1
  33   19   39 1
  34   19   40 1
  35   19   41 1
  36   20   42 1
  37   20   43 1
  38   21   22 1
  39   21   44 1
  40   21   45 1
  41   21   46 1
  42   22   47 1
  43   22   48 1
  44   23   24 1
  45   23   25 1
  46   23   26 1
  47   23   30 1
  48   27   28 1
  49   27   49 1
  50   27   50 1
  51   27   51 1
  52   28   52 1
  53   28   53 1
  54   29   30 1
  55   30   54 1
  56   30   55 1
  57   31   32 1
  58   31   56 1
  59   31   57 1
  60   31   58 1
  61   32   59 1
  62   32   60 1

#	End of record

