#	Name: ASD05380029
#	Creating user name:	WinNT
#	Creation time:	15. 06. 2019 20:59

#	Modifying user name:	WinNT
#	Modification time:	15. 06. 2019 20:59

#	Program:	/corina/corina34_cracker 3.40 0067  02.08.2006

@<TRIPOS>MOLECULE
ASD05380029
  50   54    0    0    0
SMALL
NO_CHARGES


@<TRIPOS>ATOM
   1 C1            -0.2699     1.7430    -0.3086 C.ar    
   2 C2            -0.0037     0.3797    -0.5674 C.ar    
   3 C3             0.6319     2.7210    -0.7224 C.ar    
   4 C4             1.7817     2.3480    -1.3840 C.ar    
   5 C5             2.0462     1.0093    -1.6404 C.ar    
   6 C6             1.1684     0.0272    -1.2390 C.ar    
   7 C7             0.3517     4.1762    -0.4489 C.3     
   8 N8            -0.8959    -0.5551    -0.1547 N.2     
   9 C9            -1.9854    -0.2270     0.4706 C.2     
  10 N10           -2.3224     1.0588     0.7613 N.am    
  11 C11           -1.5093     2.0809     0.4062 C.2     
  12 C12           -3.5184     1.3265     1.4391 C.ar    
  13 C13           -4.6877     1.5520     0.7241 C.ar    
  14 C14           -3.5385     1.3613     2.8265 C.ar    
  15 C15           -4.7218     1.6257     3.4929 C.ar    
  16 C16           -5.8843     1.8551     2.7760 C.ar    
  17 C17           -5.8663     1.8155     1.3940 C.ar    
  18 C18           -2.9248    -1.3261     0.8956 C.3     
  19 N19           -2.9256    -2.3860    -0.1158 N.pl3   
  20 C20           -4.0235    -3.2174    -0.2454 C.ar    
  21 N21           -5.0871    -3.0694     0.5392 N.ar    
  22 O22           -1.7979     3.2359     0.6603 O.2     
  23 C23           -4.0454    -4.2343    -1.2118 C.ar    
  24 C24           -5.1861    -5.0533    -1.3042 C.ar    
  25 N25           -6.1998    -4.8294    -0.4697 N.ar    
  26 C26           -6.1376    -3.8608     0.4184 C.ar    
  27 C27           -3.1178    -4.7096    -2.2365 C.2     
  28 C28           -3.7194    -5.7366    -2.8587 C.2     
  29 N29           -4.9571    -5.9517    -2.3097 N.pl3   
  30 C30           -2.4637    -1.9009     2.2364 C.3     
  31 F31           -4.7434     1.6595     4.8433 F       
  32 H32            2.4829     3.1035    -1.7062 H       
  33 H33            2.9520     0.7348    -2.1605 H       
  34 H34            1.3849    -1.0109    -1.4440 H       
  35 H35            0.6716     4.4238     0.5633 H       
  36 H36            0.8979     4.7919    -1.1635 H       
  37 H37           -0.7171     4.3655    -0.5486 H       
  38 H38           -4.6751     1.5217    -0.3554 H       
  39 H39           -2.6317     1.1819     3.3851 H       
  40 H40           -6.8074     2.0614     3.2974 H       
  41 H41           -6.7743     1.9951     0.8375 H       
  42 H42           -3.9320    -0.9229     1.0002 H       
  43 H43           -2.1563    -2.5048    -0.6945 H       
  44 H44           -6.9803    -3.7065     1.0760 H       
  45 H45           -2.1374    -4.3112    -2.4522 H       
  46 H46           -3.2922    -6.3073    -3.6700 H       
  47 H47           -5.5790    -6.6404    -2.5926 H       
  48 H48           -3.1246    -2.7170     2.5284 H       
  49 H49           -1.4446    -2.2755     2.1400 H       
  50 H50           -2.4933    -1.1198     2.9961 H       
@<TRIPOS>BOND
   1    1    2 ar
   2    1    3 ar
   3    1   11 1
   4    2    8 1
   5    2    6 ar
   6    3    4 ar
   7    3    7 1
   8    4    5 ar
   9    4   32 1
  10    5    6 ar
  11    5   33 1
  12    6   34 1
  13    7   35 1
  14    7   36 1
  15    7   37 1
  16    8    9 2
  17    9   10 1
  18    9   18 1
  19   10   11 am
  20   10   12 1
  21   11   22 2
  22   12   13 ar
  23   12   14 ar
  24   13   17 ar
  25   13   38 1
  26   14   15 ar
  27   14   39 1
  28   15   16 ar
  29   15   31 1
  30   16   17 ar
  31   16   40 1
  32   17   41 1
  33   18   19 1
  34   18   30 1
  35   18   42 1
  36   19   20 1
  37   19   43 1
  38   20   21 ar
  39   20   23 ar
  40   21   26 ar
  41   23   24 ar
  42   23   27 1
  43   24   25 ar
  44   24   29 1
  45   25   26 ar
  46   26   44 1
  47   27   28 2
  48   27   45 1
  49   28   29 1
  50   28   46 1
  51   29   47 1
  52   30   48 1
  53   30   49 1
  54   30   50 1

#	End of record

