#	Name: ASD01208524
#	Creating user name:	WinNT
#	Creation time:	15. 06. 2019 19:10

#	Modifying user name:	WinNT
#	Modification time:	15. 06. 2019 19:10

#	Program:	/corina/corina34_cracker 3.40 0067  02.08.2006

@<TRIPOS>MOLECULE
ASD01208524
  59   62    0    0    0
SMALL
NO_CHARGES


@<TRIPOS>ATOM
   1 N1            -0.0833     1.5295    -0.4731 N.pl3   
   2 C2            -0.0817     0.1592    -0.6123 C.2     
   3 C3             1.2330    -0.2619    -0.6682 C.2     
   4 C4             2.0385     0.8696    -0.5612 C.2     
   5 C5             1.2090     1.9642    -0.4418 C.2     
   6 C6            -1.2647    -0.6999    -0.6871 C.2     
   7 O7            -1.1357    -1.9031    -0.8107 O.2     
   8 O8            -2.4980    -0.1570    -0.6189 O.3     
   9 C9             1.6458     3.3695    -0.3033 C.ar    
  10 C10            0.6991     4.3886    -0.1904 C.ar    
  11 C11            1.1128     5.7040    -0.0609 C.ar    
  12 C12            2.4667     6.0093    -0.0439 C.ar    
  13 C13            3.4109     4.9992    -0.1559 C.ar    
  14 C14            3.0058     3.6803    -0.2795 C.ar    
  15 O15            4.7353     5.3034    -0.1386 O.3     
  16 C16            5.6527     4.2078    -0.1368 C.3     
  17 C17            6.9762     4.6518     0.4893 C.3     
  18 C18            5.8983     3.7459    -1.5746 C.3     
  19 O19            7.5815     5.6504    -0.3344 O.3     
  20 C20            8.8300     6.1358     0.1632 C.3     
  21 O21            0.1919     6.6972     0.0492 O.3     
  22 C22           -0.5770     6.7323     1.1673 C.ar    
  23 C23           -1.6165     7.6531     1.2667 C.ar    
  24 C24           -2.3993     7.6907     2.4008 C.ar    
  25 C25           -2.1474     6.8028     3.4506 C.ar    
  26 C26           -1.1032     5.8808     3.3458 C.ar    
  27 C27           -0.3285     5.8455     2.2072 C.ar    
  28 F28           -1.8580     8.5108     0.2511 F       
  29 C29           -2.9826     6.8396     4.6671 C.2     
  30 O30           -2.6718     6.1771     5.6381 O.2     
  31 N31           -4.0896     7.6076     4.7015 N.am    
  32 C32           -5.1718     7.8628     5.6641 C.3     
  33 C33           -6.0767     8.2069     4.4729 C.3     
  34 C34           -4.7434     8.5641     3.7957 C.3     
  35 H35           -0.8715     2.0916    -0.4118 H       
  36 H36            1.5736    -1.2812    -0.7751 H       
  37 H37            3.1184     0.8863    -0.5703 H       
  38 H38           -3.2156    -0.8026    -0.6769 H       
  39 H39           -0.3545     4.1519    -0.2043 H       
  40 H40            2.7859     7.0361     0.0565 H       
  41 H41            3.7416     2.8940    -0.3618 H       
  42 H42            5.2346     3.3848     0.4428 H       
  43 H43            6.7889     5.0635     1.4810 H       
  44 H44            7.6446     3.7948     0.5719 H       
  45 H45            6.3164     4.5689    -2.1542 H       
  46 H46            6.5980     2.9102    -1.5733 H       
  47 H47            4.9554     3.4296    -2.0207 H       
  48 H48            9.2242     6.8899    -0.5180 H       
  49 H49            8.6812     6.5783     1.1482 H       
  50 H50            9.5369     5.3096     0.2391 H       
  51 H51           -3.2055     8.4051     2.4783 H       
  52 H52           -0.9061     5.1934     4.1552 H       
  53 H53            0.4760     5.1296     2.1246 H       
  54 H54           -5.4887     6.9723     6.2070 H       
  55 H55           -4.9776     8.7107     6.3208 H       
  56 H56           -6.5873     7.3482     4.0368 H       
  57 H57           -6.7327     9.0608     4.6420 H       
  58 H58           -4.4362     9.5970     3.9600 H       
  59 H59           -4.6953     8.2712     2.7469 H       
@<TRIPOS>BOND
   1    1    2 1
   2    1    5 1
   3    1   35 1
   4    2    3 2
   5    2    6 1
   6    3    4 1
   7    3   36 1
   8    4    5 2
   9    4   37 1
  10    5    9 1
  11    6    7 2
  12    6    8 1
  13    8   38 1
  14    9   10 ar
  15    9   14 ar
  16   10   11 ar
  17   10   39 1
  18   11   12 ar
  19   11   21 1
  20   12   13 ar
  21   12   40 1
  22   13   14 ar
  23   13   15 1
  24   14   41 1
  25   15   16 1
  26   16   17 1
  27   16   18 1
  28   16   42 1
  29   17   19 1
  30   17   43 1
  31   17   44 1
  32   18   45 1
  33   18   46 1
  34   18   47 1
  35   19   20 1
  36   20   48 1
  37   20   49 1
  38   20   50 1
  39   21   22 1
  40   22   23 ar
  41   22   27 ar
  42   23   24 ar
  43   23   28 1
  44   24   25 ar
  45   24   51 1
  46   25   26 ar
  47   25   29 1
  48   26   27 ar
  49   26   52 1
  50   27   53 1
  51   29   30 2
  52   29   31 am
  53   31   32 1
  54   31   34 1
  55   32   33 1
  56   32   54 1
  57   32   55 1
  58   33   34 1
  59   33   56 1
  60   33   57 1
  61   34   58 1
  62   34   59 1

#	End of record

