#	Name: ASD01412076
#	Creating user name:	WinNT
#	Creation time:	15. 06. 2019 19:20

#	Modifying user name:	WinNT
#	Modification time:	15. 06. 2019 19:20

#	Program:	/corina/corina34_cracker 3.40 0067  02.08.2006

@<TRIPOS>MOLECULE
ASD01412076
  47   49    0    0    0
SMALL
NO_CHARGES


@<TRIPOS>ATOM
   1 C1             0.2110     1.3566     1.2455 C.ar    
   2 C2             0.1849    -0.0193     1.0661 C.ar    
   3 C3             1.3366    -0.7102     0.7303 C.ar    
   4 C4             2.5388    -0.0328     0.5678 C.ar    
   5 C5             2.5802     1.3639     0.7470 C.ar    
   6 C6             1.4023     2.0600     1.0886 C.ar    
   7 C7             1.2863    -2.2044     0.5406 C.3     
   8 N8             3.8162    -0.4425     0.2441 N.pl3   
   9 C9             4.6530     0.6319     0.2140 C.2     
  10 C10            3.9593     1.7536     0.5113 C.2     
  11 C11            6.1324     0.6481    -0.0951 C.3     
  12 O12            6.5159     2.0024    -0.3652 O.3     
  13 C13            6.1070     2.9431     0.6314 C.3     
  14 C14            4.5831     3.1247     0.5688 C.3     
  15 C15            6.9172     0.1188     1.1069 C.3     
  16 C16            8.4152     0.1666     0.7991 C.3     
  17 C17            9.2049    -0.2424     2.0440 C.3     
  18 C18            6.4136    -0.2229    -1.3211 C.3     
  19 C19            1.4312     3.4798     1.2726 C.1     
  20 N20            1.4542     4.6062     1.4186 N.1     
  21 O21           -0.9840    -0.6959     1.2223 O.3     
  22 C22           -2.1373     0.0731     1.5694 C.3     
  23 C23            5.6736     0.3311    -2.5113 C.2     
  24 O24            5.0749     1.3763    -2.4174 O.2     
  25 O25            5.6797    -0.3367    -3.6756 O.3     
  26 H26           -0.6959     1.8835     1.5030 H       
  27 H27            1.0637    -2.4310    -0.5021 H       
  28 H28            2.2500    -2.6373     0.8088 H       
  29 H29            0.5088    -2.6256     1.1780 H       
  30 H30            4.0791    -1.3588     0.0648 H       
  31 H31            6.3887     2.5734     1.6174 H       
  32 H32            6.5949     3.9006     0.4493 H       
  33 H33            4.3149     3.6902    -0.3236 H       
  34 H34            4.2369     3.6510     1.4583 H       
  35 H35            6.7057     0.7366     1.9796 H       
  36 H36            6.6207    -0.9103     1.3098 H       
  37 H37            8.6407    -0.5206    -0.0163 H       
  38 H38            8.6941     1.1794     0.5084 H       
  39 H39            8.9259    -1.2552     2.3348 H       
  40 H40           10.2721    -0.2083     1.8247 H       
  41 H41            8.9794     0.4448     2.8595 H       
  42 H42            7.4839    -0.2250    -1.5275 H       
  43 H43            6.0790    -1.2420    -1.1273 H       
  44 H44           -1.9636     0.5805     2.5183 H       
  45 H45           -2.3286     0.8125     0.7917 H       
  46 H46           -2.9995    -0.5871     1.6630 H       
  47 H47            5.1909     0.0580    -4.4107 H       
@<TRIPOS>BOND
   1    1    2 ar
   2    1    6 ar
   3    1   26 1
   4    2    3 ar
   5    2   21 1
   6    3    4 ar
   7    3    7 1
   8    4    5 ar
   9    4    8 1
  10    5    6 ar
  11    5   10 1
  12    6   19 1
  13    7   27 1
  14    7   28 1
  15    7   29 1
  16    8    9 1
  17    8   30 1
  18    9   10 2
  19    9   11 1
  20   10   14 1
  21   11   12 1
  22   11   15 1
  23   11   18 1
  24   12   13 1
  25   13   14 1
  26   13   31 1
  27   13   32 1
  28   14   33 1
  29   14   34 1
  30   15   16 1
  31   15   35 1
  32   15   36 1
  33   16   17 1
  34   16   37 1
  35   16   38 1
  36   17   39 1
  37   17   40 1
  38   17   41 1
  39   18   23 1
  40   18   42 1
  41   18   43 1
  42   19   20 3
  43   21   22 1
  44   22   44 1
  45   22   45 1
  46   22   46 1
  47   23   24 2
  48   23   25 1
  49   25   47 1

#	End of record

