#	Name: ASD04910038
#	Creating user name:	WinNT
#	Creation time:	15. 06. 2019 20:55

#	Modifying user name:	WinNT
#	Modification time:	15. 06. 2019 20:55

#	Program:	/corina/corina34_cracker 3.40 0067  02.08.2006

@<TRIPOS>MOLECULE
ASD04910038
  63   65    0    0    0
SMALL
NO_CHARGES


@<TRIPOS>ATOM
   1 C1             0.9487     1.3055     0.9576 C.2     
   2 C2             0.8534    -0.1011     0.8394 C.2     
   3 C3             1.9721    -0.8524     0.8120 C.2     
   4 O4             2.0405     1.8370     1.0344 O.2     
   5 O5            -0.1711     2.0581     0.9794 O.3     
   6 C6             2.9983    -2.9676     0.6700 C.2     
   7 C7             2.8988    -4.4368     0.5465 C.ar    
   8 C8             4.0556    -5.2180     0.5178 C.ar    
   9 C9             3.9555    -6.5890     0.4029 C.ar    
  10 C10            2.7123    -7.1903     0.3162 C.ar    
  11 C11            1.5618    -6.4219     0.3436 C.ar    
  12 C12            1.6474    -5.0504     0.4640 C.ar    
  13 O13            4.0888    -2.4368     0.7467 O.2     
  14 N14            1.8797    -2.2164     0.6974 N.am    
  15 C15            2.6108    -8.6886     0.1909 C.3     
  16 C16            2.2838    -9.2937     1.5576 C.3     
  17 C17            2.3035   -10.8203     1.4573 C.3     
  18 C18            1.9765   -11.4254     2.8240 C.3     
  19 N19            1.5495    -9.0283    -0.7601 N.pl3   
  20 C20            1.5856   -10.2486    -1.4413 C.ar    
  21 C21            0.5793   -10.5708    -2.3431 C.ar    
  22 C22            0.6155   -11.7756    -3.0158 C.ar    
  23 C23            1.6575   -12.6653    -2.7912 C.ar    
  24 C24            2.6633   -12.3437    -1.8895 C.ar    
  25 C25            2.6307   -11.1367    -1.2207 C.ar    
  26 N26            1.6940   -13.8899    -3.4752 N.pl3   
  27 N27            0.6776   -14.8536    -3.4951 N.2     
  28 C28            1.0771   -15.8544    -4.2384 C.2     
  29 C29            2.3590   -15.5611    -4.7154 C.2     
  30 C30            2.7139   -14.3459    -4.2364 C.2     
  31 C31            3.1949   -16.4403    -5.6094 C.3     
  32 F32            2.4910   -17.6139    -5.8995 F       
  33 F33            3.4786   -15.7605    -6.7988 F       
  34 F34            4.3913   -16.7626    -4.9597 F       
  35 C35            3.7935   -13.3101    -1.6453 C.3     
  36 C36           -0.4763   -12.1256    -3.9938 C.3     
  37 H37           -0.1157    -0.5729     0.7712 H       
  38 H38            2.9412    -0.3806     0.8802 H       
  39 H39           -0.0056     3.0072     1.0627 H       
  40 H40            5.0266    -4.7500     0.5850 H       
  41 H41            4.8495    -7.1945     0.3802 H       
  42 H42            0.5946    -6.8975     0.2752 H       
  43 H43            0.7486    -4.4522     0.4897 H       
  44 H44            1.0093    -2.6401     0.6361 H       
  45 H45            3.5600    -9.0885    -0.1658 H       
  46 H46            3.0260    -8.9678     2.2862 H       
  47 H47            1.2945    -8.9631     1.8740 H       
  48 H48            1.5613   -11.1462     0.7287 H       
  49 H49            3.2928   -11.1509     1.1409 H       
  50 H50            2.7188   -11.0995     3.5526 H       
  51 H51            0.9872   -11.0948     3.1404 H       
  52 H52            1.9906   -12.5130     2.7526 H       
  53 H53            0.8217    -8.4065    -0.9172 H       
  54 H54           -0.2315    -9.8790    -2.5176 H       
  55 H55            3.4156   -10.8845    -0.5230 H       
  56 H56            0.5141   -16.7521    -4.4470 H       
  57 H57            3.6455   -13.8336    -4.4264 H       
  58 H58            4.5673   -13.1620    -2.3985 H       
  59 H59            4.2129   -13.1359    -0.6544 H       
  60 H60            3.4178   -14.3315    -1.7064 H       
  61 H61           -0.2234   -11.7301    -4.9775 H       
  62 H62           -0.5776   -13.2092    -4.0528 H       
  63 H63           -1.4177   -11.6904    -3.6584 H       
@<TRIPOS>BOND
   1    1    2 1
   2    1    4 2
   3    1    5 1
   4    2    3 2
   5    2   37 1
   6    3   14 1
   7    3   38 1
   8    5   39 1
   9    6    7 1
  10    6   13 2
  11    6   14 am
  12    7    8 ar
  13    7   12 ar
  14    8    9 ar
  15    8   40 1
  16    9   10 ar
  17    9   41 1
  18   10   11 ar
  19   10   15 1
  20   11   12 ar
  21   11   42 1
  22   12   43 1
  23   14   44 1
  24   15   16 1
  25   15   19 1
  26   15   45 1
  27   16   17 1
  28   16   46 1
  29   16   47 1
  30   17   18 1
  31   17   48 1
  32   17   49 1
  33   18   50 1
  34   18   51 1
  35   18   52 1
  36   19   20 1
  37   19   53 1
  38   20   21 ar
  39   20   25 ar
  40   21   22 ar
  41   21   54 1
  42   22   23 ar
  43   22   36 1
  44   23   24 ar
  45   23   26 1
  46   24   25 ar
  47   24   35 1
  48   25   55 1
  49   26   27 1
  50   26   30 1
  51   27   28 2
  52   28   29 1
  53   28   56 1
  54   29   30 2
  55   29   31 1
  56   30   57 1
  57   31   32 1
  58   31   33 1
  59   31   34 1
  60   35   58 1
  61   35   59 1
  62   35   60 1
  63   36   61 1
  64   36   62 1
  65   36   63 1

#	End of record

