#	Name: ASD04598001
#	Creating user name:	WinNT
#	Creation time:	15. 06. 2019 20:52

#	Modifying user name:	WinNT
#	Modification time:	15. 06. 2019 20:52

#	Program:	/corina/corina34_cracker 3.40 0067  02.08.2006

@<TRIPOS>MOLECULE
ASD04598001
  30   31    0    0    0
SMALL
NO_CHARGES


@<TRIPOS>ATOM
   1 C1            -0.0167     1.3797     0.0096 C.ar    
   2 C2             0.0021    -0.0041     0.0020 C.ar    
   3 C3             1.2037    -0.6807    -0.0126 C.ar    
   4 C4             2.4042     0.0345    -0.0202 C.ar    
   5 C5             2.3774     1.4316    -0.0129 C.ar    
   6 C6             1.1682     2.0946     0.0022 C.ar    
   7 S7            -1.5569     2.2355     0.0215 S.o2    
   8 O8            -1.3031     3.5257    -0.5171 O.2     
   9 O9            -2.5172     1.3409    -0.5232 O.2     
  10 N10           -1.9779     2.4649     1.6066 N.am    
  11 N11            3.5994    -0.6296    -0.0343 N.2     
  12 N12            4.7057     0.0337    -0.0412 N.2     
  13 C13            7.1144     0.0935    -0.0630 C.2     
  14 C14            5.8928    -0.6259    -0.0552 C.2     
  15 C15            5.9266    -2.0237    -0.0616 C.2     
  16 C16            7.1555    -2.6679    -0.0755 C.2     
  17 C17            8.3209    -1.9285    -0.0826 C.2     
  18 N18            8.2860    -0.5696    -0.0764 N.am    
  19 O19            7.1039     1.3126    -0.0626 O.2     
  20 O20            9.5122    -2.5638    -0.0956 O.3     
  21 H21           -0.9266    -0.5554     0.0079 H       
  22 H22            1.2169    -1.7606    -0.0178 H       
  23 H23            3.3014     1.9908    -0.0184 H       
  24 H24            1.1459     3.1743     0.0078 H       
  25 H25           -2.5056     3.2380     1.8612 H       
  26 H26           -1.6968     1.8263     2.2804 H       
  27 H27            5.0094    -2.5938    -0.0556 H       
  28 H28            7.2001    -3.7469    -0.0802 H       
  29 H29            9.1176    -0.0702    -0.0816 H       
  30 H30           10.2749    -1.9693    -0.0999 H       
@<TRIPOS>BOND
   1    1    2 ar
   2    1    6 ar
   3    1    7 1
   4    2    3 ar
   5    2   21 1
   6    3    4 ar
   7    3   22 1
   8    4    5 ar
   9    4   11 1
  10    5    6 ar
  11    5   23 1
  12    6   24 1
  13    7    8 2
  14    7    9 2
  15    7   10 am
  16   10   25 1
  17   10   26 1
  18   11   12 2
  19   12   14 1
  20   13   14 1
  21   13   18 am
  22   13   19 2
  23   14   15 2
  24   15   16 1
  25   15   27 1
  26   16   17 2
  27   16   28 1
  28   17   18 1
  29   17   20 1
  30   18   29 1
  31   20   30 1

#	End of record

