#	Name: ASD08150082
#	Creating user name:	WinNT
#	Creation time:	15. 06. 2019 21:15

#	Modifying user name:	WinNT
#	Modification time:	15. 06. 2019 21:15

#	Program:	/corina/corina34_cracker 3.40 0067  02.08.2006

@<TRIPOS>MOLECULE
ASD08150082
  27   27    0    0    0
SMALL
NO_CHARGES


@<TRIPOS>ATOM
   1 O1            -0.0453     1.5390    -0.2436 O.3     
   2 C2            -0.2205     0.2134    -0.2837 C.2     
   3 N3             0.9047    -0.4881    -0.0902 N.am    
   4 C4             2.0206     0.4484     0.1130 C.3     
   5 C5             1.3591     1.8360     0.0060 C.3     
   6 O6            -1.3014    -0.3070    -0.4771 O.2     
   7 C7             3.0769     0.2709    -0.9795 C.3     
   8 C8             1.5191     2.6090     1.3166 C.3     
   9 C9             0.8706     3.9878     1.1780 C.3     
  10 C10            1.1481     4.8109     2.4376 C.3     
  11 C11            1.4551     4.7062    -0.0398 C.3     
  12 O12           -0.5403     3.8358     1.0096 O.3     
  13 H13            0.9723    -1.4558    -0.0850 H       
  14 H14            2.4620     0.3098     1.0999 H       
  15 H15            1.7842     2.3989    -0.8251 H       
  16 H16            2.6215     0.4372    -1.9558 H       
  17 H17            3.8818     0.9899    -0.8269 H       
  18 H18            3.4800    -0.7408    -0.9343 H       
  19 H19            1.0352     2.0593     2.1240 H       
  20 H20            2.5791     2.7270     1.5417 H       
  21 H21            2.2241     4.9318     2.5628 H       
  22 H22            0.6811     5.7910     2.3413 H       
  23 H23            0.7367     4.2961     3.3059 H       
  24 H24            1.2574     4.1199    -0.9371 H       
  25 H25            0.9930     5.6885    -0.1385 H       
  26 H26            2.5313     4.8222     0.0887 H       
  27 H27           -0.7902     3.3231     0.2287 H       
@<TRIPOS>BOND
   1    1    2 1
   2    1    5 1
   3    2    3 am
   4    2    6 2
   5    3    4 1
   6    3   13 1
   7    4    5 1
   8    4    7 1
   9    4   14 1
  10    5    8 1
  11    5   15 1
  12    7   16 1
  13    7   17 1
  14    7   18 1
  15    8    9 1
  16    8   19 1
  17    8   20 1
  18    9   10 1
  19    9   11 1
  20    9   12 1
  21   10   21 1
  22   10   22 1
  23   10   23 1
  24   11   24 1
  25   11   25 1
  26   11   26 1
  27   12   27 1

#	End of record

