#	Name: ASD02508486
#	Creating user name:	WinNT
#	Creation time:	15. 06. 2019 20:24

#	Modifying user name:	WinNT
#	Modification time:	15. 06. 2019 20:24

#	Program:	/corina/corina34_cracker 3.40 0067  02.08.2006

@<TRIPOS>MOLECULE
ASD02508486
  30   32    0    0    0
SMALL
NO_CHARGES


@<TRIPOS>ATOM
   1 C1             1.1560     1.8301     0.1170 C.2     
   2 C2             2.0237     0.7481     0.3028 C.2     
   3 C3             1.3321    -0.3886     0.0574 C.2     
   4 N4             0.0631    -0.0342    -0.2742 N.pl3   
   5 N5            -0.0168     1.3637    -0.2280 N.2     
   6 C6            -0.9742    -0.9059    -0.6017 C.2     
   7 S7             1.9632    -2.0311     0.1502 S.o2    
   8 N8             2.0541    -2.6096    -1.3988 N.am    
   9 C9             2.9314    -2.0222    -2.3133 C.ar    
  10 C10            3.0164    -0.6389    -2.4061 C.ar    
  11 O11            3.3009    -1.9212     0.6167 O.2     
  12 O12            0.9711    -2.8054     0.8101 O.2     
  13 C13            3.7247    -2.8202    -3.1277 C.ar    
  14 C14            4.5918    -2.2367    -4.0309 C.ar    
  15 C15            4.6713    -0.8598    -4.1250 C.ar    
  16 C16            3.8858    -0.0611    -3.3117 C.ar    
  17 Cl17           3.9890     1.6676    -3.4334 Cl      
  18 N18           -2.2090    -0.5562    -0.7798 N.2     
  19 C19           -3.0631    -1.5129    -1.0865 C.2     
  20 C20           -2.5241    -2.7318    -1.1719 C.2     
  21 S21           -0.8008    -2.5909    -0.8340 S.3     
  22 H22            1.4098     2.8724     0.2418 H       
  23 H23            3.0628     0.8096     0.5908 H       
  24 H24            1.4982    -3.3564    -1.6710 H       
  25 H25            2.4036    -0.0157    -1.7717 H       
  26 H26            3.6639    -3.8960    -3.0545 H       
  27 H27            5.2087    -2.8570    -4.6641 H       
  28 H28            5.3506    -0.4062    -4.8315 H       
  29 H29           -4.1135    -1.3260    -1.2546 H       
  30 H30           -3.0515    -3.6436    -1.4104 H       
@<TRIPOS>BOND
   1    1    2 1
   2    1    5 2
   3    1   22 1
   4    2    3 2
   5    2   23 1
   6    3    4 1
   7    3    7 1
   8    4    5 1
   9    4    6 1
  10    6   18 2
  11    6   21 1
  12    7    8 am
  13    7   11 2
  14    7   12 2
  15    8    9 1
  16    8   24 1
  17    9   13 ar
  18    9   10 ar
  19   10   16 ar
  20   10   25 1
  21   13   14 ar
  22   13   26 1
  23   14   15 ar
  24   14   27 1
  25   15   16 ar
  26   15   28 1
  27   16   17 1
  28   18   19 1
  29   19   20 2
  30   19   29 1
  31   20   21 1
  32   20   30 1

#	End of record

