#	Name: ASD03200065
#	Creating user name:	WinNT
#	Creation time:	15. 06. 2019 20:34

#	Modifying user name:	WinNT
#	Modification time:	15. 06. 2019 20:34

#	Program:	/corina/corina34_cracker 3.40 0067  02.08.2006

@<TRIPOS>MOLECULE
ASD03200065
  49   52    0    0    0
SMALL
NO_CHARGES


@<TRIPOS>ATOM
   1 C1             0.9662    -1.0291    -0.1620 C.3     
   2 N2            -0.0317     0.0366    -0.0040 N.3     
   3 C3             0.2998     0.9109     1.1283 C.3     
   4 C4             1.6481     1.5886     0.8736 C.3     
   5 C5             2.7277     0.5168     0.6989 C.3     
   6 C6             2.3343    -0.4093    -0.4553 C.3     
   7 C7            -1.3130    -0.4951     0.1338 C.ar    
   8 C8            -2.0182    -0.3607     1.3271 C.ar    
   9 C9            -3.2844    -0.9013     1.4241 C.ar    
  10 N10           -3.8303    -1.5393     0.4061 N.ar    
  11 C11           -3.1991    -1.6905    -0.7431 C.ar    
  12 C12           -1.9273    -1.1733    -0.9258 C.ar    
  13 N13           -1.2613    -1.3367    -2.1479 N.am    
  14 C14           -1.4467    -2.4583    -2.8718 C.2     
  15 C15           -0.8511    -2.5764    -4.2058 C.2     
  16 O16           -2.1089    -3.3734    -2.4177 O.2     
  17 C17           -1.0041    -3.6951    -4.9931 C.2     
  18 S18           -0.1681    -3.4541    -6.4653 S.3     
  19 C19            0.3436    -1.8552    -5.9392 C.2     
  20 N20           -0.1247    -1.6111    -4.7558 N.2     
  21 C21            1.1778    -0.9273    -6.7305 C.ar    
  22 N22           -1.7152    -4.8266    -4.6500 N.pl3   
  23 C23            1.6192    -1.3036    -8.0023 C.ar    
  24 C24            2.4004    -0.4208    -8.7309 C.ar    
  25 C25            2.7146     0.8071    -8.1659 C.ar    
  26 C26            2.2439     1.1142    -6.9022 C.ar    
  27 N27            1.4986     0.2608    -6.2306 N.ar    
  28 N28            1.9893     2.4467     2.0160 N.3     
  29 F29            1.2894    -2.5100    -8.5133 F       
  30 H30            1.0216    -1.6137     0.7563 H       
  31 H31            0.6767    -1.6780    -0.9886 H       
  32 H32           -0.4735     1.6709     1.2389 H       
  33 H33            0.3584     0.3171     2.0405 H       
  34 H34            1.5862     2.1935    -0.0310 H       
  35 H35            3.6816     0.9939     0.4743 H       
  36 H36            2.8168    -0.0634     1.6173 H       
  37 H37            3.0777    -1.1999    -0.5570 H       
  38 H38            2.2832     0.1642    -1.3808 H       
  39 H39           -1.5798     0.1594     2.1660 H       
  40 H40           -3.8365    -0.8009     2.3468 H       
  41 H41           -3.6815    -2.2195    -1.5517 H       
  42 H42           -0.6668    -0.6425    -2.4728 H       
  43 H43           -2.1600    -4.8776    -3.7895 H       
  44 H44           -1.7704    -5.5711    -5.2694 H       
  45 H45            2.7570    -0.6827    -9.7161 H       
  46 H46            3.3218     1.5168    -8.7082 H       
  47 H47            2.4877     2.0694    -6.4612 H       
  48 H48            2.8762     2.9056     1.8714 H       
  49 H49            1.2587     3.1196     2.1937 H       
@<TRIPOS>BOND
   1    1    2 1
   2    1    6 1
   3    1   30 1
   4    1   31 1
   5    2    3 1
   6    2    7 1
   7    3    4 1
   8    3   32 1
   9    3   33 1
  10    4    5 1
  11    4   28 1
  12    4   34 1
  13    5    6 1
  14    5   35 1
  15    5   36 1
  16    6   37 1
  17    6   38 1
  18    7    8 ar
  19    7   12 ar
  20    8    9 ar
  21    8   39 1
  22    9   10 ar
  23    9   40 1
  24   10   11 ar
  25   11   12 ar
  26   11   41 1
  27   12   13 1
  28   13   14 am
  29   13   42 1
  30   14   15 1
  31   14   16 2
  32   15   17 2
  33   15   20 1
  34   17   18 1
  35   17   22 1
  36   18   19 1
  37   19   20 2
  38   19   21 1
  39   21   23 ar
  40   21   27 ar
  41   22   43 1
  42   22   44 1
  43   23   24 ar
  44   23   29 1
  45   24   25 ar
  46   24   45 1
  47   25   26 ar
  48   25   46 1
  49   26   27 ar
  50   26   47 1
  51   28   48 1
  52   28   49 1

#	End of record

