#	Name: ASD01914235
#	Creating user name:	WinNT
#	Creation time:	15. 06. 2019 20:03

#	Modifying user name:	WinNT
#	Modification time:	15. 06. 2019 20:03

#	Program:	/corina/corina34_cracker 3.40 0067  02.08.2006

@<TRIPOS>MOLECULE
ASD01914235
  35   37    0    0    0
SMALL
NO_CHARGES


@<TRIPOS>ATOM
   1 C1            -0.0170     1.4059     0.0098 C.2     
   2 C2             0.0021    -0.0041     0.0020 C.2     
   3 C3             1.1977    -0.6541    -0.0129 C.2     
   4 C4             2.3917     0.0857    -0.0203 C.2     
   5 C5             2.3571     1.4347    -0.0123 C.2     
   6 N6             1.1649     2.0997     0.0022 N.pl3   
   7 N7            -1.0090     2.2850     0.0293 N.2     
   8 C8            -0.5005     3.5194     0.0282 C.2     
   9 C9             0.8477     3.4306     0.0124 C.2     
  10 C10           -1.2972     4.7985     0.0469 C.3     
  11 C11           -2.2871     4.7998    -1.1197 C.3     
  12 C12           -3.0653     6.0491    -1.1014 C.1     
  13 C13           -3.6859     7.0456    -1.0869 C.1     
  14 C14           -4.4430     8.2610    -1.0691 C.ar    
  15 C15           -5.4140     8.4862    -2.0456 C.ar    
  16 C16           -6.1369     9.6653    -2.0148 C.ar    
  17 C17           -5.8666    10.5827    -1.0087 C.ar    
  18 C18           -4.8904    10.2954    -0.0726 C.ar    
  19 N19           -4.2193     9.1628    -0.1203 N.ar    
  20 C20           -4.5940    11.2893     1.0208 C.3     
  21 F21           -5.4077    11.0221     2.1270 F       
  22 Br22          -1.6167    -0.9815     0.0128 Br      
  23 H23            1.2282    -1.7337    -0.0186 H       
  24 H24            3.3419    -0.4275    -0.0321 H       
  25 H25            3.2812     1.9935    -0.0178 H       
  26 H26            1.5445     4.2558     0.0105 H       
  27 H27           -1.8435     4.8725     0.9871 H       
  28 H28           -0.6217     5.6486    -0.0488 H       
  29 H29           -1.7407     4.7258    -2.0600 H       
  30 H30           -2.9625     3.9496    -1.0241 H       
  31 H31           -5.5982     7.7506    -2.8147 H       
  32 H32           -6.8946     9.8678    -2.7574 H       
  33 H33           -6.4135    11.5125    -0.9577 H       
  34 H34           -3.5468    11.2076     1.3119 H       
  35 H35           -4.7928    12.2979     0.6587 H       
@<TRIPOS>BOND
   1    1    2 1
   2    1    6 1
   3    1    7 2
   4    2    3 2
   5    2   22 1
   6    3    4 1
   7    3   23 1
   8    4    5 2
   9    4   24 1
  10    5    6 1
  11    5   25 1
  12    6    9 1
  13    7    8 1
  14    8    9 2
  15    8   10 1
  16    9   26 1
  17   10   11 1
  18   10   27 1
  19   10   28 1
  20   11   12 1
  21   11   29 1
  22   11   30 1
  23   12   13 3
  24   13   14 1
  25   14   15 ar
  26   14   19 ar
  27   15   16 ar
  28   15   31 1
  29   16   17 ar
  30   16   32 1
  31   17   18 ar
  32   17   33 1
  33   18   19 ar
  34   18   20 1
  35   20   21 1
  36   20   34 1
  37   20   35 1

#	End of record

