#	Name: ASD03740050
#	Creating user name:	WinNT
#	Creation time:	15. 06. 2019 20:46

#	Modifying user name:	WinNT
#	Modification time:	15. 06. 2019 20:46

#	Program:	/corina/corina34_cracker 3.40 0067  02.08.2006

@<TRIPOS>MOLECULE
ASD03740050
  51   52    0    0    0
SMALL
NO_CHARGES


@<TRIPOS>ATOM
   1 C1            -0.0168     1.3854     0.0097 C.ar    
   2 C2             0.0021    -0.0041     0.0020 C.ar    
   3 C3            -1.1615    -0.7194     0.0093 C.ar    
   4 C4            -2.3848    -0.0533     0.0250 C.ar    
   5 C5            -2.4054     1.3545     0.0332 C.ar    
   6 C6            -1.2006     2.0645     0.0303 C.ar    
   7 N7            -3.6909    -0.4684     0.0354 N.pl3   
   8 N8            -4.5286     0.6514     0.0499 N.2     
   9 C9            -3.8150     1.7443     0.0492 C.2     
  10 C10           -4.1383    -1.8634     0.0314 C.3     
  11 C11           -4.2777    -2.3504     1.4507 C.ar    
  12 C12           -5.4815    -2.2081     2.1151 C.ar    
  13 C13           -5.6094    -2.6547     3.4171 C.ar    
  14 C14           -4.5336    -3.2440     4.0544 C.ar    
  15 C15           -3.3300    -3.3870     3.3897 C.ar    
  16 C16           -3.2034    -2.9444     2.0863 C.ar    
  17 O17           -4.2955     3.0158     0.0615 O.3     
  18 C18           -5.7158     3.1726     0.0762 C.3     
  19 C19           -6.0643     4.6623     0.0886 C.3     
  20 C20           -7.5850     4.8302     0.1043 C.3     
  21 N21           -7.9197     6.2605     0.1161 N.3     
  22 C22           -9.3569     6.4667    -0.1069 C.3     
  23 C23           -7.4854     6.8924     1.3692 C.3     
  24 C24            1.2821     2.1495     0.0014 C.3     
  25 H25            0.9482    -0.5247    -0.0102 H       
  26 H26           -1.1332    -1.7990     0.0025 H       
  27 H27           -1.2069     3.1445     0.0365 H       
  28 H28           -5.1017    -1.9345    -0.4734 H       
  29 H29           -3.4069    -2.4781    -0.4934 H       
  30 H30           -6.3221    -1.7477     1.6171 H       
  31 H31           -6.5497    -2.5429     3.9364 H       
  32 H32           -4.6333    -3.5922     5.0719 H       
  33 H33           -2.4894    -3.8471     3.8878 H       
  34 H34           -2.2631    -3.0561     1.5669 H       
  35 H35           -6.1419     2.7071    -0.8126 H       
  36 H36           -6.1247     2.6964     0.9673 H       
  37 H37           -5.6382     5.1278     0.9773 H       
  38 H38           -5.6554     5.1386    -0.8025 H       
  39 H39           -8.0111     4.3647    -0.7845 H       
  40 H40           -7.9939     4.3539     0.9954 H       
  41 H41           -9.9220     5.9690     0.6812 H       
  42 H42           -9.5772     7.5342    -0.0933 H       
  43 H43           -9.6380     6.0501    -1.0741 H       
  44 H44           -6.4058     6.7851     1.4750 H       
  45 H45           -7.7454     7.9508     1.3515 H       
  46 H46           -7.9827     6.4101     2.2107 H       
  47 H47            1.5854     2.3393    -1.0282 H       
  48 H48            1.1489     3.0981     0.5216 H       
  49 H49            2.0514     1.5640     0.5047 H       
  50 Cl50           7.0514    12.9508    10.0719 Cl      
  51 H51            7.0514    14.3208    10.0719 H       
@<TRIPOS>BOND
   1    1    2 ar
   2    1   24 1
   3    1    6 ar
   4    2    3 ar
   5    2   25 1
   6    3    4 ar
   7    3   26 1
   8    4    5 ar
   9    4    7 1
  10    5    6 ar
  11    5    9 1
  12    6   27 1
  13    7    8 1
  14    7   10 1
  15    8    9 2
  16    9   17 1
  17   10   11 1
  18   10   28 1
  19   10   29 1
  20   11   12 ar
  21   11   16 ar
  22   12   13 ar
  23   12   30 1
  24   13   14 ar
  25   13   31 1
  26   14   15 ar
  27   14   32 1
  28   15   16 ar
  29   15   33 1
  30   16   34 1
  31   17   18 1
  32   18   19 1
  33   18   35 1
  34   18   36 1
  35   19   20 1
  36   19   37 1
  37   19   38 1
  38   20   21 1
  39   20   39 1
  40   20   40 1
  41   21   23 1
  42   21   22 1
  43   22   41 1
  44   22   42 1
  45   22   43 1
  46   23   44 1
  47   23   45 1
  48   23   46 1
  49   24   47 1
  50   24   48 1
  51   24   49 1
  52   50   51 1

#	End of record

