#	Name: ASD01840341
#	Creating user name:	WinNT
#	Creation time:	15. 06. 2019 19:37

#	Modifying user name:	WinNT
#	Modification time:	15. 06. 2019 19:37

#	Program:	/corina/corina34_cracker 3.40 0067  02.08.2006

@<TRIPOS>MOLECULE
ASD01840341
  50   53    0    0    0
SMALL
NO_CHARGES


@<TRIPOS>ATOM
   1 C1             2.5025     1.8831    -2.3636 C.3     
   2 O2             2.2324     0.5069    -2.0892 O.3     
   3 C3             0.8421     0.2011    -1.9645 C.3     
   4 C4             0.6749    -1.2688    -1.6773 C.ar    
   5 N5             0.5542    -2.1174    -2.6775 N.ar    
   6 C6             0.4058    -3.4163    -2.4786 C.ar    
   7 C7             0.2515    -4.5551    -3.4565 C.3     
   8 N8             0.1221    -5.7941    -2.6832 N.am    
   9 C9             0.1955    -5.4212    -1.2667 C.3     
  10 C10            0.3726    -3.9269    -1.1966 C.ar    
  11 C11            0.4963    -3.0662    -0.1164 C.ar    
  12 C12            0.4647    -3.5913     1.2957 C.3     
  13 C13            0.6557    -1.7109    -0.3665 C.ar    
  14 Cl14           0.8225    -0.5864     0.9455 Cl      
  15 C15           -0.0351    -7.0374    -3.1791 C.2     
  16 O16           -0.1308    -7.9831    -2.4258 O.2     
  17 C17           -0.0918    -7.2526    -4.6696 C.3     
  18 C18           -0.2739    -8.7431    -4.9631 C.3     
  19 C19           -1.7462    -9.1898    -5.0109 C.3     
  20 N20           -1.3602    -9.9963    -6.1898 N.3     
  21 C21           -0.2227    -9.0901    -6.4620 C.3     
  22 C22           -2.3248    -9.9052    -7.1963 C.ar    
  23 C23           -2.9634    -8.6950    -7.4557 C.ar    
  24 C24           -3.9128    -8.6548    -8.4638 C.ar    
  25 C25           -4.1933    -9.8073    -9.1736 C.ar    
  26 N26           -3.5709   -10.9382    -8.9034 N.ar    
  27 C27           -2.6572   -11.0192    -7.9571 C.ar    
  28 H28            3.5791     2.0331    -2.4437 H       
  29 H29            2.0253     2.1671    -3.3015 H       
  30 H30            2.1091     2.4988    -1.5547 H       
  31 H31            0.4142     0.7819    -1.1474 H       
  32 H32            0.3305     0.4502    -2.8941 H       
  33 H33           -0.6417    -4.4031    -4.0625 H       
  34 H34            1.1298    -4.6112    -4.0996 H       
  35 H35           -0.7262    -5.7083    -0.7606 H       
  36 H36            1.0457    -5.9165    -0.7977 H       
  37 H37            1.4775    -3.8375     1.6146 H       
  38 H38            0.0504    -2.8304     1.9571 H       
  39 H39           -0.1568    -4.4859     1.3369 H       
  40 H40           -0.9312    -6.6952    -5.0854 H       
  41 H41            0.8362    -6.9037    -5.1226 H       
  42 H42            0.3593    -9.3785    -4.3438 H       
  43 H43           -2.0521    -9.7866    -4.1516 H       
  44 H44           -2.4427    -8.3832    -5.2396 H       
  45 H45           -0.4735    -8.2543    -7.1151 H       
  46 H46            0.6887    -9.6073    -6.7621 H       
  47 H47           -2.7245    -7.8098    -6.8849 H       
  48 H48           -4.4281    -7.7336    -8.6923 H       
  49 H49           -4.9329    -9.7814    -9.9602 H       
  50 H50           -2.1652   -11.9618    -7.7682 H       
@<TRIPOS>BOND
   1    1    2 1
   2    1   28 1
   3    1   29 1
   4    1   30 1
   5    2    3 1
   6    3    4 1
   7    3   31 1
   8    3   32 1
   9    4   13 ar
  10    4    5 ar
  11    5    6 ar
  12    6   10 ar
  13    6    7 1
  14    7    8 1
  15    7   33 1
  16    7   34 1
  17    8    9 1
  18    8   15 am
  19    9   10 1
  20    9   35 1
  21    9   36 1
  22   10   11 ar
  23   11   12 1
  24   11   13 ar
  25   12   37 1
  26   12   38 1
  27   12   39 1
  28   13   14 1
  29   15   16 2
  30   15   17 1
  31   17   18 1
  32   17   40 1
  33   17   41 1
  34   18   21 1
  35   18   19 1
  36   18   42 1
  37   19   20 1
  38   19   43 1
  39   19   44 1
  40   20   21 1
  41   20   22 1
  42   21   45 1
  43   21   46 1
  44   22   27 ar
  45   22   23 ar
  46   23   24 ar
  47   23   47 1
  48   24   25 ar
  49   24   48 1
  50   25   26 ar
  51   25   49 1
  52   26   27 ar
  53   27   50 1

#	End of record

