#	Name: ASD01883420
#	Creating user name:	WinNT
#	Creation time:	15. 06. 2019 19:46

#	Modifying user name:	WinNT
#	Modification time:	15. 06. 2019 19:46

#	Program:	/corina/corina34_cracker 3.40 0067  02.08.2006

@<TRIPOS>MOLECULE
ASD01883420
  59   61    0    0    0
SMALL
NO_CHARGES


@<TRIPOS>ATOM
   1 N1            -0.0162     1.3424     0.0094 N.am    
   2 C2             0.0021    -0.0041     0.0020 C.2     
   3 C3            -1.2200    -0.7260     0.0103 C.2     
   4 C4            -2.4186    -0.0172     0.0260 C.2     
   5 C5            -2.3789     1.3778     0.0331 C.2     
   6 C6            -1.1865     2.0253     0.0299 C.2     
   7 O7             1.0648    -0.6011    -0.0121 O.2     
   8 C8            -1.2204    -2.1580     0.0021 C.1     
   9 N9            -1.2207    -3.2939    -0.0043 N.1     
  10 C10           -3.7381    -0.7452     0.0347 C.3     
  11 C11           -4.5225    -0.3677     1.2944 C.3     
  12 C12           -5.8859    -1.0622     1.2677 C.3     
  13 N13           -6.6239    -0.6485     0.0674 N.3     
  14 C14           -5.9127    -1.0426    -1.1554 C.3     
  15 C15           -4.5501    -0.3475    -1.2010 C.3     
  16 C16           -7.9907    -1.1869     0.0782 C.3     
  17 C17           -8.7902    -0.5500    -1.0291 C.ar    
  18 C18           -8.8189    -1.1307    -2.2829 C.ar    
  19 C19           -9.5524    -0.5464    -3.2988 C.ar    
  20 C20          -10.2574     0.6183    -3.0604 C.ar    
  21 C21          -10.2294     1.1988    -1.8059 C.ar    
  22 C22           -9.4996     0.6122    -0.7892 C.ar    
  23 C23            1.2492     2.0805     0.0013 C.3     
  24 C24            1.6760     2.3452    -1.4439 C.3     
  25 C25            2.9975     3.1162    -1.4524 C.3     
  26 C26            3.4877     3.2723    -2.8933 C.3     
  27 C27            2.7852     4.4991    -0.8333 C.3     
  28 C28           -9.5829    -1.1791    -4.6662 C.3     
  29 F29          -10.6463    -2.0854    -4.7371 F       
  30 F30           -9.7518    -0.1852    -5.6362 F       
  31 F31           -8.3789    -1.8540    -4.8947 F       
  32 H32           -3.2991     1.9430     0.0453 H       
  33 H33           -1.1699     3.1052     0.0358 H       
  34 H34           -3.5608    -1.8206     0.0246 H       
  35 H35           -3.9687    -0.6870     2.1772 H       
  36 H36           -4.6648     0.7125     1.3244 H       
  37 H37           -5.7429    -2.1427     1.2516 H       
  38 H38           -6.4526    -0.7842     2.1563 H       
  39 H39           -5.7696    -2.1231    -1.1601 H       
  40 H40           -6.4989    -0.7502    -2.0266 H       
  41 H41           -4.6929     0.7331    -1.2103 H       
  42 H42           -4.0160    -0.6523    -2.1010 H       
  43 H43           -7.9573    -2.2660    -0.0721 H       
  44 H44           -8.4599    -0.9680     1.0374 H       
  45 H45           -8.2681    -2.0408    -2.4692 H       
  46 H46          -10.8297     1.0752    -3.8541 H       
  47 H47          -10.7799     2.1090    -1.6197 H       
  48 H48           -9.4778     1.0656     0.1908 H       
  49 H49            1.1196     3.0296     0.5215 H       
  50 H50            2.0163     1.4921     0.5047 H       
  51 H51            1.8056     1.3962    -1.9641 H       
  52 H52            0.9088     2.9337    -1.9473 H       
  53 H53            3.7411     2.5690    -0.8730 H       
  54 H54            2.7441     3.8195    -3.4728 H       
  55 H55            4.4292     3.8215    -2.8994 H       
  56 H56            3.6389     2.2870    -3.3344 H       
  57 H57            2.4360     4.3879     0.1933 H       
  58 H58            3.7267     5.0483    -0.8393 H       
  59 H59            2.0416     5.0463    -1.4127 H       
@<TRIPOS>BOND
   1    1    2 am
   2    1   23 1
   3    1    6 1
   4    2    3 1
   5    2    7 2
   6    3    4 2
   7    3    8 1
   8    4    5 1
   9    4   10 1
  10    5    6 2
  11    5   32 1
  12    6   33 1
  13    8    9 3
  14   10   11 1
  15   10   15 1
  16   10   34 1
  17   11   12 1
  18   11   35 1
  19   11   36 1
  20   12   13 1
  21   12   37 1
  22   12   38 1
  23   13   14 1
  24   13   16 1
  25   14   15 1
  26   14   39 1
  27   14   40 1
  28   15   41 1
  29   15   42 1
  30   16   17 1
  31   16   43 1
  32   16   44 1
  33   17   18 ar
  34   17   22 ar
  35   18   19 ar
  36   18   45 1
  37   19   20 ar
  38   19   28 1
  39   20   21 ar
  40   20   46 1
  41   21   22 ar
  42   21   47 1
  43   22   48 1
  44   23   24 1
  45   23   49 1
  46   23   50 1
  47   24   25 1
  48   24   51 1
  49   24   52 1
  50   25   26 1
  51   25   27 1
  52   25   53 1
  53   26   54 1
  54   26   55 1
  55   26   56 1
  56   27   57 1
  57   27   58 1
  58   27   59 1
  59   28   29 1
  60   28   30 1
  61   28   31 1

#	End of record

