#	Name: ASD00170746
#	Creating user name:	WinNT
#	Creation time:	15. 06. 2019 18:32

#	Modifying user name:	WinNT
#	Modification time:	15. 06. 2019 18:32

#	Program:	/corina/corina34_cracker 3.40 0067  02.08.2006

@<TRIPOS>MOLECULE
ASD00170746
  39   41    0    0    0
SMALL
NO_CHARGES


@<TRIPOS>ATOM
   1 C1            -0.0165     1.2108     0.0012 C.2     
   2 O2             0.6163     1.0892    -1.0323 O.2     
   3 C3             0.5111     0.6460     1.2622 C.ar    
   4 C4             1.6756    -0.1239     1.2520 C.ar    
   5 C5             2.1630    -0.6475     2.4309 C.ar    
   6 C6             1.4996    -0.4108     3.6236 C.ar    
   7 C7             0.3438     0.3524     3.6399 C.ar    
   8 C8            -0.1502     0.8856     2.4680 C.ar    
   9 Cl9            2.1189    -1.0737     5.1037 Cl      
  10 C10           -1.4077     3.2842     0.1054 C.2     
  11 C11           -1.2941     1.9199    -0.0036 C.2     
  12 C12           -2.5834     1.2572    -0.1248 C.2     
  13 C13           -3.6101     2.1134    -0.1049 C.2     
  14 S14           -3.0418     3.7645     0.0629 S.3     
  15 C15           -2.7419    -0.2106    -0.2568 C.ar    
  16 C16           -3.6330    -0.8953     0.5685 C.ar    
  17 C17           -3.7764    -2.2618     0.4410 C.ar    
  18 C18           -3.0380    -2.9524    -0.5033 C.ar    
  19 C19           -2.1520    -2.2785    -1.3247 C.ar    
  20 C20           -2.0048    -0.9111    -1.2106 C.ar    
  21 C21           -1.3507    -3.0382    -2.3502 C.3     
  22 F22           -1.6737    -4.3976    -2.2808 F       
  23 F23           -1.6488    -2.5528    -3.6280 F       
  24 F24            0.0142    -2.8695    -2.0940 F       
  25 C25           -4.7387    -3.0035     1.3326 C.3     
  26 F26           -5.9974    -3.0496     0.7238 F       
  27 F27           -4.2729    -4.3062     1.5399 F       
  28 F28           -4.8391    -2.3430     2.5618 F       
  29 N29           -0.3414     4.1496     0.2376 N.pl3   
  30 H30            2.1934    -0.3094     0.3226 H       
  31 H31            3.0636    -1.2436     2.4242 H       
  32 H32           -0.1692     0.5336     4.5728 H       
  33 H33           -1.0492     1.4839     2.4825 H       
  34 H34           -4.6486     1.8272    -0.1820 H       
  35 H35           -4.2097    -0.3573     1.3064 H       
  36 H36           -3.1535    -4.0219    -0.5995 H       
  37 H37           -1.3166    -0.3854    -1.8559 H       
  38 H38            0.5582     3.7998     0.3339 H       
  39 H39           -0.4913     5.1080     0.2344 H       
@<TRIPOS>BOND
   1    1    2 2
   2    1    3 1
   3    1   11 1
   4    3    4 ar
   5    3    8 ar
   6    4    5 ar
   7    4   30 1
   8    5    6 ar
   9    5   31 1
  10    6    7 ar
  11    6    9 1
  12    7    8 ar
  13    7   32 1
  14    8   33 1
  15   10   11 2
  16   10   14 1
  17   10   29 1
  18   11   12 1
  19   12   13 2
  20   12   15 1
  21   13   14 1
  22   13   34 1
  23   15   16 ar
  24   15   20 ar
  25   16   17 ar
  26   16   35 1
  27   17   18 ar
  28   17   25 1
  29   18   19 ar
  30   18   36 1
  31   19   20 ar
  32   19   21 1
  33   20   37 1
  34   21   22 1
  35   21   23 1
  36   21   24 1
  37   25   26 1
  38   25   27 1
  39   25   28 1
  40   29   38 1
  41   29   39 1

#	End of record

