#	Name: ASD01940485
#	Creating user name:	WinNT
#	Creation time:	15. 06. 2019 20:12

#	Modifying user name:	WinNT
#	Modification time:	15. 06. 2019 20:12

#	Program:	/corina/corina34_cracker 3.40 0067  02.08.2006

@<TRIPOS>MOLECULE
ASD01940485
  46   48    0    0    0
SMALL
NO_CHARGES


@<TRIPOS>ATOM
   1 C1             0.5222     1.5101     0.0900 C.ar    
   2 C2             0.3498     0.1566     0.1788 C.ar    
   3 C3             1.4006    -0.7082    -0.1131 C.ar    
   4 C4             2.6370    -0.2095    -0.4975 C.ar    
   5 C5             2.8245     1.1576    -0.5911 C.ar    
   6 C6             1.7589     2.0250    -0.2954 C.ar    
   7 C7             1.9908     3.4762    -0.4041 C.2     
   8 O8             4.0154     1.6825    -0.9630 O.3     
   9 C9             4.1927     3.0087    -1.0530 C.2     
  10 N10            3.2193     3.8938    -0.7840 N.am    
  11 O11            1.1051     4.2729    -0.1604 O.2     
  12 O12            5.2819     3.4277    -1.3910 O.2     
  13 C13            3.4914     5.3283    -0.9043 C.3     
  14 C14            3.9928     5.8569     0.4148 C.ar    
  15 C15            5.3160     5.6764     0.7734 C.ar    
  16 C16            3.1306     6.5271     1.2633 C.ar    
  17 C17            3.5868     7.0146     2.4741 C.ar    
  18 C18            4.9064     6.8338     2.8412 C.ar    
  19 C19            5.7769     6.1654     1.9911 C.ar    
  20 O20            1.2145    -2.0499    -0.0205 O.3     
  21 C21            1.7318    -2.6644     1.0558 C.2     
  22 O22            2.2490    -2.0135     1.9326 O.2     
  23 F23            6.1595     5.0257    -0.0574 F       
  24 N24            7.1145     5.9855     2.3576 N.am    
  25 S25            7.5108     5.7304     3.9451 S.o     
  26 O26            7.0721     4.3983     4.1741 O.2     
  27 O27            9.0256     5.5892     3.9014 O.3     
  28 N28            9.6391     5.3513     5.2080 N.3     
  29 C29           11.0979     5.2258     5.0897 C.3     
  30 C30            1.6672    -4.1657     1.1700 C.3     
  31 H31           -0.2974     2.1771     0.3132 H       
  32 H32           -0.6077    -0.2440     0.4776 H       
  33 H33            3.4489    -0.8853    -0.7220 H       
  34 H34            4.2475     5.4915    -1.6722 H       
  35 H35            2.5749     5.8500    -1.1802 H       
  36 H36            2.0986     6.6705     0.9792 H       
  37 H37            2.9106     7.5378     3.1339 H       
  38 H38            5.2613     7.2154     3.7872 H       
  39 H39            7.8100     6.0101     1.6820 H       
  40 H40            9.3906     6.0785     5.8619 H       
  41 H41           11.3386     4.3896     4.4332 H       
  42 H42           11.5091     6.1451     4.6727 H       
  43 H43           11.5286     5.0495     6.0754 H       
  44 H44            1.1691    -4.5757     0.2914 H       
  45 H45            2.6777    -4.5689     1.2360 H       
  46 H46            1.1080    -4.4382     2.0650 H       
@<TRIPOS>BOND
   1    1    2 ar
   2    1    6 ar
   3    1   31 1
   4    2    3 ar
   5    2   32 1
   6    3    4 ar
   7    3   20 1
   8    4    5 ar
   9    4   33 1
  10    5    6 ar
  11    5    8 1
  12    6    7 1
  13    7   10 am
  14    7   11 2
  15    8    9 1
  16    9   10 am
  17    9   12 2
  18   10   13 1
  19   13   14 1
  20   13   34 1
  21   13   35 1
  22   14   16 ar
  23   14   15 ar
  24   15   19 ar
  25   15   23 1
  26   16   17 ar
  27   16   36 1
  28   17   18 ar
  29   17   37 1
  30   18   19 ar
  31   18   38 1
  32   19   24 1
  33   20   21 1
  34   21   22 2
  35   21   30 1
  36   24   25 am
  37   24   39 1
  38   25   26 2
  39   25   27 1
  40   27   28 1
  41   28   29 1
  42   28   40 1
  43   29   41 1
  44   29   42 1
  45   29   43 1
  46   30   44 1
  47   30   45 1
  48   30   46 1

#	End of record

