#	Name: ASD00844836
#	Creating user name:	WinNT
#	Creation time:	15. 06. 2019 18:51

#	Modifying user name:	WinNT
#	Modification time:	15. 06. 2019 18:51

#	Program:	/corina/corina34_cracker 3.40 0067  02.08.2006

@<TRIPOS>MOLECULE
ASD00844836
  89   94    0    0    0
SMALL
NO_CHARGES


@<TRIPOS>ATOM
   1 F1             5.6875    -2.0441    -2.1391 F       
   2 C2             0.6734     1.3169    -0.6067 C.ar    
   3 C3             0.9460    -0.0233    -0.8386 C.ar    
   4 C4             0.8505    -0.9381     0.2003 C.ar    
   5 C5             0.4844    -0.5125     1.4623 C.ar    
   6 C6             0.2127     0.8240     1.6908 C.ar    
   7 C7             0.3076     1.7376     0.6575 C.ar    
   8 C8             1.1454    -2.3949    -0.0483 C.3     
   9 C9             0.8499    -3.2145     1.1897 C.2     
  10 C10            0.3330    -2.9094    -1.2382 C.3     
  11 C11           -1.1291    -2.6255    -1.0087 C.2     
  12 N12           -2.0460    -3.0483    -1.9014 N.am    
  13 O13           -1.4807    -2.0165    -0.0206 O.2     
  14 C14           -3.4601    -2.6775    -1.7549 C.3     
  15 C15           -4.3090    -3.9524    -1.7768 C.3     
  16 C16           -3.9960    -4.7472    -3.0466 C.3     
  17 C17           -2.5195    -5.1499    -3.0475 C.3     
  18 C18           -1.6494    -3.8839    -3.0431 C.3     
  19 C19           -4.8672    -6.0042    -3.0890 C.3     
  20 C20           -6.3449    -5.6028    -3.0900 C.3     
  21 C21           -7.2101    -6.8608    -3.1939 C.3     
  22 N22           -6.8798    -7.5830    -4.4291 N.3     
  23 C23           -5.4778    -8.0198    -4.4300 C.3     
  24 C24           -4.5609    -6.7964    -4.3630 C.3     
  25 H25           -7.5022    -8.3648    -4.5683 H       
  26 O26           -0.2272    -3.3338     1.7346 O.2     
  27 N27            2.0047    -3.7858     1.5712 N.am    
  28 C28            2.6239    -2.6032    -0.2831 C.ar    
  29 C29            3.0653    -3.4474     0.7281 C.ar    
  30 C30            3.4943    -2.1335    -1.2406 C.ar    
  31 C31            4.8295    -2.5030    -1.2018 C.ar    
  32 C32            5.2814    -3.3445    -0.1980 C.ar    
  33 C33            4.4083    -3.8157     0.7624 C.ar    
  34 Cl34           6.9535    -3.8087    -0.1475 Cl      
  35 C35            1.8589    -6.4243     2.3403 C.ar    
  36 C36            0.6075    -6.7830     1.8612 C.ar    
  37 C37            2.8757    -7.3588     2.3808 C.ar    
  38 C38            2.6470    -8.6503     1.9439 C.ar    
  39 C39            1.4004    -9.0104     1.4658 C.ar    
  40 C40            0.3804    -8.0800     1.4237 C.ar    
  41 H41            1.2242   -10.0200     1.1251 H       
  42 O42           -0.3944    -5.8657     1.8207 O.3     
  43 C43           -1.6566    -6.3055     1.3152 C.3     
  44 C44           -2.6515    -5.1436     1.3466 C.3     
  45 S45            2.1534    -4.7763     2.8899 S.o2    
  46 O46            3.5185    -4.7217     3.2810 O.2     
  47 O47            1.0813    -4.4466     3.7623 O.2     
  48 O48            1.3056    -0.4396    -2.0812 O.3     
  49 C49            1.2851     0.5373    -3.1239 C.3     
  50 C50            1.8004    -0.0900    -4.4208 C.3     
  51 F51            3.0758    -0.6234    -4.2062 F       
  52 F52            0.9305    -1.1089    -4.8237 F       
  53 H53            0.7514     2.0316    -1.4126 H       
  54 H54            0.4099    -1.2242     2.2712 H       
  55 H55           -0.0741     1.1547     2.6781 H       
  56 H56            0.0949     2.7808     0.8385 H       
  57 H57            0.6623    -2.4067    -2.1476 H       
  58 H58            0.4824    -3.9841    -1.3427 H       
  59 H59           -3.6053    -2.1580    -0.8077 H       
  60 H60           -3.7548    -2.0280    -2.5791 H       
  61 H61           -4.0770    -4.5591    -0.9015 H       
  62 H62           -5.3659    -3.6860    -1.7656 H       
  63 H63           -4.2049    -4.1312    -3.9213 H       
  64 H64           -2.3044    -5.7453    -2.1602 H       
  65 H65           -2.3028    -5.7358    -3.9407 H       
  66 H66           -1.7978    -3.3353    -3.9732 H       
  67 H67           -0.6002    -4.1619    -2.9438 H       
  68 H68           -4.6581    -6.6219    -2.2157 H       
  69 H69           -6.5793    -5.0753    -2.1654 H       
  70 H70           -6.5448    -4.9523    -3.9415 H       
  71 H71           -7.0199    -7.5044    -2.3350 H       
  72 H72           -8.2625    -6.5775    -3.2092 H       
  73 H73           -5.2957    -8.6580    -3.5653 H       
  74 H74           -5.2720    -8.5784    -5.3431 H       
  75 H75           -4.7326    -6.1647    -5.2345 H       
  76 H76           -3.5206    -7.1217    -4.3479 H       
  77 H77            3.1372    -1.4781    -2.0212 H       
  78 H78            4.7675    -4.4712     1.5419 H       
  79 H79            3.8502    -7.0800     2.7538 H       
  80 H80            3.4434    -9.3791     1.9757 H       
  81 H81           -0.5932    -8.3619     1.0509 H       
  82 H82           -1.5359    -6.6529     0.2891 H       
  83 H83           -2.0312    -7.1214     1.9333 H       
  84 H84           -2.2768    -4.3277     0.7285 H       
  85 H85           -3.6142    -5.4791     0.9610 H       
  86 H86           -2.7721    -4.7962     2.3727 H       
  87 H87            0.2643     0.8899    -3.2714 H       
  88 H88            1.9232     1.3768    -2.8479 H       
  89 H89            1.8516     0.6725    -5.1980 H       
@<TRIPOS>BOND
   1    1   31 1
   2    2    3 ar
   3    2    7 ar
   4    2   53 1
   5    3    4 ar
   6    3   48 1
   7    4    5 ar
   8    4    8 1
   9    5    6 ar
  10    5   54 1
  11    6    7 ar
  12    6   55 1
  13    7   56 1
  14    8    9 1
  15    8   10 1
  16    8   28 1
  17    9   26 2
  18    9   27 am
  19   10   11 1
  20   10   57 1
  21   10   58 1
  22   11   12 am
  23   11   13 2
  24   12   14 1
  25   12   18 1
  26   14   15 1
  27   14   59 1
  28   14   60 1
  29   15   16 1
  30   15   61 1
  31   15   62 1
  32   16   17 1
  33   16   19 1
  34   16   63 1
  35   17   18 1
  36   17   64 1
  37   17   65 1
  38   18   66 1
  39   18   67 1
  40   19   20 1
  41   19   24 1
  42   19   68 1
  43   20   21 1
  44   20   69 1
  45   20   70 1
  46   21   22 1
  47   21   71 1
  48   21   72 1
  49   22   23 1
  50   22   25 1
  51   23   24 1
  52   23   73 1
  53   23   74 1
  54   24   75 1
  55   24   76 1
  56   27   45 am
  57   27   29 1
  58   28   29 ar
  59   28   30 ar
  60   29   33 ar
  61   30   31 ar
  62   30   77 1
  63   31   32 ar
  64   32   33 ar
  65   32   34 1
  66   33   78 1
  67   35   36 ar
  68   35   37 ar
  69   35   45 1
  70   36   42 1
  71   36   40 ar
  72   37   38 ar
  73   37   79 1
  74   38   39 ar
  75   38   80 1
  76   39   40 ar
  77   39   41 1
  78   40   81 1
  79   42   43 1
  80   43   44 1
  81   43   82 1
  82   43   83 1
  83   44   84 1
  84   44   85 1
  85   44   86 1
  86   45   46 2
  87   45   47 2
  88   48   49 1
  89   49   50 1
  90   49   87 1
  91   49   88 1
  92   50   51 1
  93   50   52 1
  94   50   89 1

#	End of record

