#	Name: ASD01720017
#	Creating user name:	WinNT
#	Creation time:	15. 06. 2019 19:23

#	Modifying user name:	WinNT
#	Modification time:	15. 06. 2019 19:23

#	Program:	/corina/corina34_cracker 3.40 0067  02.08.2006

@<TRIPOS>MOLECULE
ASD01720017
  23   22    0    0    0
SMALL
NO_CHARGES


@<TRIPOS>ATOM
   1 O1             0.0021    -0.0041     0.0020 O.2     
   2 C2            -0.0143     1.2034     0.0087 C.2     
   3 C3             1.2804     1.9746     0.0004 C.3     
   4 O4             2.3790     1.0609    -0.0150 O.3     
   5 C5             1.3614     2.8485     1.2537 C.3     
   6 O6             0.2628     3.7622     1.2691 O.3     
   7 C7             2.6759     3.6315     1.2453 C.3     
   8 O8             3.7745     2.7177     1.2299 O.3     
   9 C9             2.7569     4.5054     2.4986 C.3     
  10 O10            3.9275     5.3226     2.4345 O.3     
  11 C11            2.8134     0.6962    -1.3266 C.3     
  12 H12           -0.9568     1.7306     0.0160 H       
  13 H13            1.3211     2.6067    -0.8866 H       
  14 H14            1.3207     2.2164     2.1407 H       
  15 H15            0.2356     4.3574     0.5074 H       
  16 H16            2.7166     4.2636     0.3583 H       
  17 H17            3.8017     2.1225     1.9916 H       
  18 H18            1.8730     5.1406     2.5563 H       
  19 H19            2.8057     3.8694     3.3825 H       
  20 H20            4.0434     5.9041     3.1984 H       
  21 H21            1.9919     0.2205    -1.8623 H       
  22 H22            3.1300     1.5890    -1.8658 H       
  23 H23            3.6496     0.0010    -1.2522 H       
@<TRIPOS>BOND
   1    1    2 2
   2    2    3 1
   3    2   12 1
   4    3    4 1
   5    3    5 1
   6    3   13 1
   7    4   11 1
   8    5    6 1
   9    5    7 1
  10    5   14 1
  11    6   15 1
  12    7    8 1
  13    7    9 1
  14    7   16 1
  15    8   17 1
  16    9   10 1
  17    9   18 1
  18    9   19 1
  19   10   20 1
  20   11   21 1
  21   11   22 1
  22   11   23 1

#	End of record

