#	Name: ASD01880205
#	Creating user name:	WinNT
#	Creation time:	15. 06. 2019 19:40

#	Modifying user name:	WinNT
#	Modification time:	15. 06. 2019 19:40

#	Program:	/corina/corina34_cracker 3.40 0067  02.08.2006

@<TRIPOS>MOLECULE
ASD01880205
  50   54    0    0    0
SMALL
NO_CHARGES


@<TRIPOS>ATOM
   1 C1             0.2608     1.4881    -0.0072 C.2     
   2 C2             0.0239     0.0002     0.0268 C.3     
   3 N3             0.1919    -0.4912     1.4009 N.3     
   4 C4            -0.1289    -1.9389     1.4915 C.3     
   5 C5            -0.4364    -2.1764     2.9856 C.3     
   6 C6            -0.8641    -0.7982     3.5308 C.3     
   7 C7            -0.7790     0.1561     2.3203 C.3     
   8 C8            -1.8693    -1.9502     3.4720 C.3     
   9 H9            -0.5110    -0.4265     4.4927 H       
  10 H10            0.2351    -2.8306     3.5417 H       
  11 C11           -2.2753    -2.6000     4.7963 C.3     
  12 O12           -3.6679    -2.3788     5.0282 O.3     
  13 C13           -4.1928    -2.8951     6.1705 C.ar    
  14 C14           -5.5382    -2.7179     6.4589 C.ar    
  15 C15           -6.0694    -3.2437     7.6208 C.ar    
  16 C16           -5.2613    -3.9459     8.4958 C.ar    
  17 C17           -3.9200    -4.1235     8.2108 C.ar    
  18 C18           -3.3854    -3.6050     7.0473 C.ar    
  19 N19           -0.6730     2.3929     0.0380 N.2     
  20 C20           -0.1109     3.6266    -0.0125 C.ar    
  21 C21            1.2811     3.4448    -0.0950 C.ar    
  22 N22            1.4834     2.0815    -0.0836 N.pl3   
  23 C23           -0.6247     4.9271     0.0018 C.ar    
  24 C24            0.2663     5.9810    -0.0663 C.ar    
  25 C25            1.6259     5.7229    -0.1458 C.ar    
  26 N26            2.0899     4.4906    -0.1574 N.ar    
  27 C27            2.7767     1.3966    -0.1512 C.3     
  28 C28           -5.8434    -4.5184     9.7625 C.3     
  29 F29           -6.3074    -5.8153     9.5179 F       
  30 F30           -4.8570    -4.5552    10.7539 F       
  31 F31           -6.9061    -3.7161    10.1916 F       
  32 H32           -0.9889    -0.2143    -0.3145 H       
  33 H33            0.7405    -0.4968    -0.6271 H       
  34 H34           -1.0013    -2.1739     0.8818 H       
  35 H35            0.7265    -2.5381     1.1796 H       
  36 H36           -0.4132     1.1343     2.6323 H       
  37 H37           -1.7532     0.2490     1.8403 H       
  38 H38           -2.6533    -1.8947     2.7167 H       
  39 H39           -2.0804    -3.6715     4.7500 H       
  40 H40           -1.6973    -2.1603     5.6091 H       
  41 H41           -6.1697    -2.1692     5.7759 H       
  42 H42           -7.1166    -3.1058     7.8460 H       
  43 H43           -3.2908    -4.6718     8.8962 H       
  44 H44           -2.3377    -3.7439     6.8251 H       
  45 H45           -1.6885     5.1029     0.0641 H       
  46 H46           -0.0942     6.9990    -0.0580 H       
  47 H47            2.3189     6.5495    -0.1989 H       
  48 H48            3.1977     1.3154     0.8509 H       
  49 H49            2.6383     0.3995    -0.5691 H       
  50 H50            3.4563     1.9654    -0.7858 H       
@<TRIPOS>BOND
   1    1    2 1
   2    1   19 2
   3    1   22 1
   4    2    3 1
   5    2   32 1
   6    2   33 1
   7    3    4 1
   8    3    7 1
   9    4    5 1
  10    4   34 1
  11    4   35 1
  12    5    6 1
  13    5   10 1
  14    5    8 1
  15    6    7 1
  16    6    9 1
  17    6    8 1
  18    7   36 1
  19    7   37 1
  20    8   11 1
  21    8   38 1
  22   11   12 1
  23   11   39 1
  24   11   40 1
  25   12   13 1
  26   13   14 ar
  27   13   18 ar
  28   14   15 ar
  29   14   41 1
  30   15   16 ar
  31   15   42 1
  32   16   17 ar
  33   16   28 1
  34   17   18 ar
  35   17   43 1
  36   18   44 1
  37   19   20 1
  38   20   21 ar
  39   20   23 ar
  40   21   22 1
  41   21   26 ar
  42   22   27 1
  43   23   24 ar
  44   23   45 1
  45   24   25 ar
  46   24   46 1
  47   25   26 ar
  48   25   47 1
  49   27   48 1
  50   27   49 1
  51   27   50 1
  52   28   29 1
  53   28   30 1
  54   28   31 1

#	End of record

