#	Name: ASD00310358
#	Creating user name:	WinNT
#	Creation time:	15. 06. 2019 18:34

#	Modifying user name:	WinNT
#	Modification time:	15. 06. 2019 18:34

#	Program:	/corina/corina34_cracker 3.40 0067  02.08.2006

@<TRIPOS>MOLECULE
ASD00310358
  42   45    0    0    0
SMALL
NO_CHARGES


@<TRIPOS>ATOM
   1 N1            -0.0310     1.3588    -0.0673 N.pl3   
   2 N2            -0.0240     0.0757    -0.0998 N.2     
   3 C3             1.1992    -0.4100    -0.1184 C.2     
   4 C4             2.1038     0.7481    -0.0937 C.ar    
   5 C5             3.4823     0.9277    -0.0963 C.ar    
   6 C6             4.0002     2.2154    -0.0664 C.ar    
   7 C7             3.1379     3.3189    -0.0340 C.ar    
   8 C8             1.7835     3.1465    -0.0314 C.ar    
   9 C9             1.2434     1.8637    -0.0611 C.ar    
  10 C10            1.5845    -1.8305    -0.1558 C.2     
  11 O11            2.7593    -2.1413    -0.1694 O.2     
  12 O12            0.6342    -2.7863    -0.1752 O.3     
  13 Cl13           3.7988     4.9237     0.0037 Cl      
  14 C14            5.4692     2.4231    -0.0682 C.ar    
  15 C15            6.0488     3.3112    -0.9723 C.ar    
  16 C16            7.4159     3.5005    -0.9696 C.ar    
  17 C17            8.2105     2.8107    -0.0717 C.ar    
  18 C18            7.6406     1.9277     0.8276 C.ar    
  19 C19            6.2739     1.7352     0.8379 C.ar    
  20 C20            9.7026     3.0217    -0.0736 C.3     
  21 C21           10.1164     4.4965     0.0629 C.3     
  22 C22           11.2427     4.0129     0.9915 C.3     
  23 C23           10.3589     2.7923     1.2980 C.3     
  24 C24           10.3938     2.3028    -1.2035 C.2     
  25 N25           10.2377     0.9723    -1.3513 N.am    
  26 O26           11.0906     2.9216    -1.9797 O.2     
  27 H27           -0.8348     1.9016    -0.0531 H       
  28 H28            4.1435     0.0742    -0.1209 H       
  29 H29            1.1304     4.0062    -0.0059 H       
  30 H30            0.9358    -3.7047    -0.1997 H       
  31 H31            5.4294     3.8500    -1.6740 H       
  32 H32            7.8662     4.1882    -1.6701 H       
  33 H33            8.2657     1.3915     1.5262 H       
  34 H34            5.8295     1.0492     1.5437 H       
  35 H35           10.4761     4.9369    -0.8671 H       
  36 H36            9.3717     5.1143     0.5647 H       
  37 H37           12.1648     3.7635     0.4665 H       
  38 H38           11.4067     4.6605     1.8528 H       
  39 H39            9.6805     2.9441     2.1376 H       
  40 H40           10.9144     1.8568     1.3653 H       
  41 H41            9.7415     0.4657    -0.6894 H       
  42 H42           10.6216     0.5213    -2.1195 H       
@<TRIPOS>BOND
   1    1    2 1
   2    1    9 1
   3    1   27 1
   4    2    3 2
   5    3    4 1
   6    3   10 1
   7    4    5 ar
   8    4    9 ar
   9    5    6 ar
  10    5   28 1
  11    6    7 ar
  12    6   14 1
  13    7    8 ar
  14    7   13 1
  15    8    9 ar
  16    8   29 1
  17   10   11 2
  18   10   12 1
  19   12   30 1
  20   14   15 ar
  21   14   19 ar
  22   15   16 ar
  23   15   31 1
  24   16   17 ar
  25   16   32 1
  26   17   18 ar
  27   17   20 1
  28   18   19 ar
  29   18   33 1
  30   19   34 1
  31   20   21 1
  32   20   23 1
  33   20   24 1
  34   21   22 1
  35   21   35 1
  36   21   36 1
  37   22   23 1
  38   22   37 1
  39   22   38 1
  40   23   39 1
  41   23   40 1
  42   24   25 am
  43   24   26 2
  44   25   41 1
  45   25   42 1

#	End of record

