#	Name: ASD01420045
#	Creating user name:	WinNT
#	Creation time:	15. 06. 2019 19:20

#	Modifying user name:	WinNT
#	Modification time:	15. 06. 2019 19:20

#	Program:	/corina/corina34_cracker 3.40 0067  02.08.2006

@<TRIPOS>MOLECULE
ASD01420045
  90   95    0    0    0
SMALL
NO_CHARGES


@<TRIPOS>ATOM
   1 C1            -0.0144     1.2120     0.0087 C.2     
   2 O2             0.2386     0.1773     0.5956 O.2     
   3 C3             0.7515     2.9862    -1.5995 C.3     
   4 N4             0.9291     1.8047    -0.7496 N.am    
   5 C5             2.3298     1.3915    -0.8820 C.3     
   6 C6             3.0024     2.3491    -1.8329 C.ar    
   7 C7             4.3047     2.4076    -2.2966 C.ar    
   8 C8             4.6819     3.4042    -3.1836 C.ar    
   9 C9             3.7505     4.3424    -3.6048 C.ar    
  10 C10            2.4523     4.2803    -3.1396 C.ar    
  11 C11            2.0771     3.2842    -2.2537 C.ar    
  12 O12            5.9610     3.4622    -3.6390 O.3     
  13 C13            6.2779     4.5161    -4.5505 C.3     
  14 C14            7.7518     4.4193    -4.9495 C.3     
  15 C15            8.0911     5.5476    -5.9255 C.3     
  16 N16            9.5062     5.4547    -6.3086 N.3     
  17 C17            9.8125     6.3682    -7.4190 C.3     
  18 C18           11.3059     6.2832    -7.7456 C.3     
  19 O19           11.6458     4.9277    -8.0500 O.3     
  20 C20           11.3612     4.0109    -6.9899 C.3     
  21 C21            9.8684     4.0728    -6.6558 C.3     
  22 C22           -1.3539     1.8143     0.1217 C.ar    
  23 C23           -2.4985     1.0056     0.0481 C.ar    
  24 C24           -3.7533     1.5796     0.1557 C.ar    
  25 C25           -3.8770     2.9496     0.3352 C.ar    
  26 C26           -2.7431     3.7527     0.4083 C.ar    
  27 C27           -1.4901     3.1932     0.3085 C.ar    
  28 C28           -2.8878     5.2400     0.6035 C.3     
  29 C29           -2.1862     5.6552     1.8982 C.3     
  30 C30           -2.2520     5.9737    -0.5790 C.3     
  31 O31           -5.1091     3.5090     0.4394 O.3     
  32 C32           -6.2309     2.6277     0.3554 C.3     
  33 C33           -7.5046     3.4216     0.4908 C.ar    
  34 C34           -8.1199     3.9384    -0.6340 C.ar    
  35 C35           -9.2882     4.6666    -0.5097 C.ar    
  36 C36           -9.8416     4.8777     0.7393 C.ar    
  37 C37           -9.2268     4.3601     1.8641 C.ar    
  38 C38           -8.0608     3.6282     1.7394 C.ar    
  39 O39           -2.3754    -0.3338    -0.1283 O.3     
  40 C40           -3.5841    -1.0933    -0.1938 C.3     
  41 C41           -3.2521    -2.5500    -0.3910 C.ar    
  42 C42           -3.0677    -3.3714     0.7054 C.ar    
  43 C43           -2.7631    -4.7076     0.5245 C.ar    
  44 C44           -2.6432    -5.2224    -0.7529 C.ar    
  45 C45           -2.8285    -4.4011    -1.8493 C.ar    
  46 C46           -3.1374    -3.0659    -1.6683 C.ar    
  47 H47            0.0003     2.7827    -2.3627 H       
  48 H48            0.4405     3.8355    -0.9911 H       
  49 H49            2.8202     1.4312     0.0907 H       
  50 H50            2.3800     0.3784    -1.2809 H       
  51 H51            5.0280     1.6765    -1.9671 H       
  52 H52            4.0409     5.1203    -4.2954 H       
  53 H53            1.7273     5.0106    -3.4675 H       
  54 H54            5.6541     4.4269    -5.4400 H       
  55 H55            6.0934     5.4780    -4.0722 H       
  56 H56            8.3756     4.5084    -4.0601 H       
  57 H57            7.9363     3.4574    -5.4278 H       
  58 H58            7.4673     5.4585    -6.8150 H       
  59 H59            7.9066     6.5095    -5.4472 H       
  60 H60            9.2314     6.0828    -8.2959 H       
  61 H61            9.5605     7.3887    -7.1309 H       
  62 H62           11.5271     6.9157    -8.6052 H       
  63 H63           11.8860     6.6197    -6.8864 H       
  64 H64           11.6224     3.0000    -7.3031 H       
  65 H65           11.9430     4.2813    -6.1087 H       
  66 H66            9.6572     3.4179    -5.8105 H       
  67 H67            9.2882     3.7508    -7.5205 H       
  68 H68           -4.6365     0.9606     0.0996 H       
  69 H69           -0.6123     3.8193     0.3703 H       
  70 H70           -3.9452     5.4972     0.6646 H       
  71 H71           -1.1288     5.3979     1.8370 H       
  72 H72           -2.2909     6.7309     2.0393 H       
  73 H73           -2.6392     5.1324     2.7406 H       
  74 H74           -2.7518     5.6780    -1.5014 H       
  75 H75           -2.3567     7.0495    -0.4379 H       
  76 H76           -1.1945     5.7165    -0.6402 H       
  77 H77           -6.2211     2.1180    -0.6081 H       
  78 H78           -6.1749     1.8910     1.1568 H       
  79 H79           -7.6876     3.7735    -1.6099 H       
  80 H80           -9.7686     5.0710    -1.3885 H       
  81 H81          -10.7540     5.4473     0.8365 H       
  82 H82           -9.6590     4.5253     2.8400 H       
  83 H83           -7.5825     3.2207     2.6178 H       
  84 H84           -4.1414    -0.9702     0.7348 H       
  85 H85           -4.1890    -0.7421    -1.0298 H       
  86 H86           -3.1614    -2.9692     1.7033 H       
  87 H87           -2.6184    -5.3492     1.3810 H       
  88 H88           -2.4045    -6.2662    -0.8942 H       
  89 H89           -2.7345    -4.8033    -2.8472 H       
  90 H90           -3.2858    -2.4251    -2.5249 H       
@<TRIPOS>BOND
   1    1    2 2
   2    1    4 am
   3    1   22 1
   4    3    4 1
   5    3   11 1
   6    3   47 1
   7    3   48 1
   8    4    5 1
   9    5    6 1
  10    5   49 1
  11    5   50 1
  12    6    7 ar
  13    6   11 ar
  14    7    8 ar
  15    7   51 1
  16    8    9 ar
  17    8   12 1
  18    9   10 ar
  19    9   52 1
  20   10   11 ar
  21   10   53 1
  22   12   13 1
  23   13   14 1
  24   13   54 1
  25   13   55 1
  26   14   15 1
  27   14   56 1
  28   14   57 1
  29   15   16 1
  30   15   58 1
  31   15   59 1
  32   16   17 1
  33   16   21 1
  34   17   18 1
  35   17   60 1
  36   17   61 1
  37   18   19 1
  38   18   62 1
  39   18   63 1
  40   19   20 1
  41   20   21 1
  42   20   64 1
  43   20   65 1
  44   21   66 1
  45   21   67 1
  46   22   23 ar
  47   22   27 ar
  48   23   24 ar
  49   23   39 1
  50   24   25 ar
  51   24   68 1
  52   25   26 ar
  53   25   31 1
  54   26   27 ar
  55   26   28 1
  56   27   69 1
  57   28   29 1
  58   28   30 1
  59   28   70 1
  60   29   71 1
  61   29   72 1
  62   29   73 1
  63   30   74 1
  64   30   75 1
  65   30   76 1
  66   31   32 1
  67   32   33 1
  68   32   77 1
  69   32   78 1
  70   33   34 ar
  71   33   38 ar
  72   34   35 ar
  73   34   79 1
  74   35   36 ar
  75   35   80 1
  76   36   37 ar
  77   36   81 1
  78   37   38 ar
  79   37   82 1
  80   38   83 1
  81   39   40 1
  82   40   41 1
  83   40   84 1
  84   40   85 1
  85   41   42 ar
  86   41   46 ar
  87   42   43 ar
  88   42   86 1
  89   43   44 ar
  90   43   87 1
  91   44   45 ar
  92   44   88 1
  93   45   46 ar
  94   45   89 1
  95   46   90 1

#	End of record

