#	Name: ASD09740113
#	Creating user name:	WinNT
#	Creation time:	15. 06. 2019 21:22

#	Modifying user name:	WinNT
#	Modification time:	15. 06. 2019 21:22

#	Program:	/corina/corina34_cracker 3.40 0067  02.08.2006

@<TRIPOS>MOLECULE
ASD09740113
  33   35    0    0    0
SMALL
NO_CHARGES


@<TRIPOS>ATOM
   1 N1            -0.0144     1.2086     0.0087 N.2     
   2 O2             0.0021    -0.0041     0.0020 O.3     
   3 C3             1.2063     1.6794    -0.0004 C.2     
   4 N4             2.0453     0.6225    -0.0141 N.2     
   5 C5             1.2696    -0.4439    -0.0124 C.2     
   6 C6             1.7124    -1.8561    -0.0238 C.ar    
   7 C7             1.5964     3.1117     0.0031 C.ar    
   8 C8             0.6174     4.1027     0.0178 C.ar    
   9 C9             0.9856     5.4330     0.0210 C.ar    
  10 C10            2.3238     5.7828     0.0096 C.ar    
  11 C11            3.2998     4.8028    -0.0055 C.ar    
  12 C12            2.9428     3.4695    -0.0025 C.ar    
  13 C13            3.0739    -2.1825    -0.0381 C.ar    
  14 C14            3.4458    -3.5106    -0.0479 C.ar    
  15 N15            2.5397    -4.4696    -0.0445 N.ar    
  16 C16            1.2432    -4.2082    -0.0311 C.ar    
  17 C17            0.7834    -2.8993    -0.0147 C.ar    
  18 O18            0.3527    -5.2319    -0.0281 O.3     
  19 C19            0.8875    -6.5570    -0.0399 C.3     
  20 C20            2.7197     7.2368     0.0131 C.3     
  21 F21            2.8553     7.6800     1.3331 F       
  22 F22            3.9378     7.3900    -0.6576 F       
  23 F23            1.7337     7.9902    -0.6328 F       
  24 H24           -0.4277     3.8307     0.0264 H       
  25 H25            0.2275     6.2021     0.0320 H       
  26 H26            4.3432     5.0814    -0.0151 H       
  27 H27            3.7057     2.7052    -0.0143 H       
  28 H28            3.8229    -1.4045    -0.0418 H       
  29 H29            4.4943    -3.7693    -0.0589 H       
  30 H30           -0.2761    -2.6901    -0.0039 H       
  31 H31            1.4917    -6.6970    -0.9362 H       
  32 H32            1.5082    -6.7062     0.8436 H       
  33 H33            0.0705    -7.2786    -0.0360 H       
@<TRIPOS>BOND
   1    1    2 1
   2    1    3 2
   3    2    5 1
   4    3    4 1
   5    3    7 1
   6    4    5 2
   7    5    6 1
   8    6   13 ar
   9    6   17 ar
  10    7    8 ar
  11    7   12 ar
  12    8    9 ar
  13    8   24 1
  14    9   10 ar
  15    9   25 1
  16   10   11 ar
  17   10   20 1
  18   11   12 ar
  19   11   26 1
  20   12   27 1
  21   13   14 ar
  22   13   28 1
  23   14   15 ar
  24   14   29 1
  25   15   16 ar
  26   16   17 ar
  27   16   18 1
  28   17   30 1
  29   18   19 1
  30   19   31 1
  31   19   32 1
  32   19   33 1
  33   20   21 1
  34   20   22 1
  35   20   23 1

#	End of record

