#	Name: ASD01028541
#	Creating user name:	WinNT
#	Creation time:	15. 06. 2019 18:57

#	Modifying user name:	WinNT
#	Modification time:	15. 06. 2019 18:57

#	Program:	/corina/corina34_cracker 3.40 0067  02.08.2006

@<TRIPOS>MOLECULE
ASD01028541
  45   49    0    0    0
SMALL
NO_CHARGES


@<TRIPOS>ATOM
   1 N1            -0.0169     1.3921     0.0097 N.2     
   2 N2             0.0021    -0.0041     0.0020 N.pl3   
   3 C3             1.1071     2.0741     0.0026 C.2     
   4 C4             2.3532     1.4123    -0.0128 C.2     
   5 C5             2.4037     0.0542    -0.0206 C.2     
   6 C6             1.2008    -0.6771    -0.0130 C.2     
   7 N7             0.9145    -1.9687    -0.0179 N.2     
   8 N8            -0.3639    -2.1208    -0.0070 N.2     
   9 C9            -0.9586    -0.9539     0.0057 C.2     
  10 C10           -2.4463    -0.7141     0.0210 C.3     
  11 C11            1.0647     3.5571     0.0105 C.ar    
  12 N12           -2.9156    -0.6453     1.4070 N.pl3   
  13 C13           -4.2598    -0.4299     1.6744 C.ar    
  14 C14           -5.1760    -0.2771     0.6469 C.ar    
  15 C15           -6.5154    -0.0625     0.9436 C.ar    
  16 N16           -6.9467     0.0013     2.1819 N.ar    
  17 C17           -6.1174    -0.1376     3.2216 C.ar    
  18 C18           -4.7377    -0.3655     3.0066 C.ar    
  19 C19           -6.5940    -0.0674     4.5439 C.ar    
  20 C20           -5.6940    -0.2180     5.5659 C.ar    
  21 C21           -4.3426    -0.4348     5.2773 C.ar    
  22 N22           -3.9093    -0.5055     4.0425 N.ar    
  23 O23           -6.1132    -0.1564     6.8567 O.3     
  24 C24           -5.1194    -0.3221     7.8701 C.3     
  25 C25           -0.1586     4.2322     0.0253 C.ar    
  26 C26           -0.1442     5.6177     0.0327 C.ar    
  27 C27            1.0701     6.2816     0.0251 C.ar    
  28 N28            2.2087     5.6157     0.0111 N.ar    
  29 C29            2.2443     4.2991     0.0091 C.ar    
  30 Cl30          -1.6328     6.5109     0.0505 Cl      
  31 H31            3.2683     1.9860    -0.0188 H       
  32 H32            3.3547    -0.4576    -0.0324 H       
  33 H33           -2.6681     0.2257    -0.4848 H       
  34 H34           -2.9514    -1.5316    -0.4935 H       
  35 H35           -2.2866    -0.7504     2.1379 H       
  36 H36           -4.8496    -0.3242    -0.3815 H       
  37 H37           -7.2208     0.0553     0.1343 H       
  38 H38           -7.6411     0.1011     4.7475 H       
  39 H39           -3.6414    -0.5522     6.0903 H       
  40 H40           -5.5868    -0.2513     8.8523 H       
  41 H41           -4.6490    -1.2993     7.7613 H       
  42 H42           -4.3646     0.4578     7.7698 H       
  43 H43           -1.0915     3.6880     0.0306 H       
  44 H44            1.0857     7.3615     0.0305 H       
  45 H45            3.1965     3.7898    -0.0022 H       
@<TRIPOS>BOND
   1    1    2 1
   2    1    3 2
   3    2    6 1
   4    2    9 1
   5    3    4 1
   6    3   11 1
   7    4    5 2
   8    4   31 1
   9    5    6 1
  10    5   32 1
  11    6    7 2
  12    7    8 1
  13    8    9 2
  14    9   10 1
  15   10   12 1
  16   10   33 1
  17   10   34 1
  18   11   25 ar
  19   11   29 ar
  20   12   13 1
  21   12   35 1
  22   13   14 ar
  23   13   18 ar
  24   14   15 ar
  25   14   36 1
  26   15   16 ar
  27   15   37 1
  28   16   17 ar
  29   17   18 ar
  30   17   19 ar
  31   18   22 ar
  32   19   20 ar
  33   19   38 1
  34   20   21 ar
  35   20   23 1
  36   21   22 ar
  37   21   39 1
  38   23   24 1
  39   24   40 1
  40   24   41 1
  41   24   42 1
  42   25   26 ar
  43   25   43 1
  44   26   27 ar
  45   26   30 1
  46   27   28 ar
  47   27   44 1
  48   28   29 ar
  49   29   45 1

#	End of record

