#	Name: ASD08151017
#	Creating user name:	WinNT
#	Creation time:	15. 06. 2019 21:16

#	Modifying user name:	WinNT
#	Modification time:	15. 06. 2019 21:16

#	Program:	/corina/corina34_cracker 3.40 0067  02.08.2006

@<TRIPOS>MOLECULE
ASD08151017
  35   37    0    0    0
SMALL
NO_CHARGES


@<TRIPOS>ATOM
   1 N1            -0.0157     1.3074     0.0092 N.ar    
   2 C2             0.0021    -0.0041     0.0020 C.ar    
   3 C3             1.1968    -0.7200    -0.0128 C.ar    
   4 C4             2.3896    -0.0546    -0.0206 C.ar    
   5 C5             2.3651     1.3533    -0.0132 C.ar    
   6 C6             3.5525     2.1030    -0.0200 C.ar    
   7 C7             3.4991     3.4646    -0.0122 C.ar    
   8 C8             2.2808     4.1338     0.0025 C.ar    
   9 C9             1.0882     3.4325     0.0096 C.ar    
  10 C10            1.1144     2.0169     0.0022 C.ar    
  11 C11           -0.2042     4.1560     0.0256 C.ar    
  12 C12           -0.8051     4.4919     1.2412 C.ar    
  13 C13           -2.0111     5.1670     1.2482 C.ar    
  14 C14           -2.6218     5.5088     0.0551 C.ar    
  15 C15           -2.0309     5.1780    -1.1512 C.ar    
  16 C16           -0.8235     4.5099    -1.1723 C.ar    
  17 F17           -0.2093     4.1574     2.4066 F       
  18 C18            2.2588     5.6406     0.0112 C.3     
  19 C19            2.1385     6.1406     1.4522 C.3     
  20 N20            3.4981     6.1505    -0.5807 N.2     
  21 N21            3.6320     7.2551    -0.7399 N.1     
  22 N22            3.7659     8.3597    -0.8991 N.pl3   
  23 H23           -0.9339    -0.5428     0.0081 H       
  24 H24            1.1800    -1.7998    -0.0177 H       
  25 H25            3.3256    -0.5933    -0.0317 H       
  26 H26            4.5083     1.6003    -0.0310 H       
  27 H27            4.4177     4.0326    -0.0171 H       
  28 H28           -2.4776     5.4277     2.1867 H       
  29 H29           -3.5643     6.0360     0.0654 H       
  30 H30           -2.5134     5.4477    -2.0790 H       
  31 H31           -0.3615     4.2572    -2.1152 H       
  32 H32            1.4066     5.9949    -0.5687 H       
  33 H33            2.1226     7.2304     1.4585 H       
  34 H34            1.2164     5.7612     1.8926 H       
  35 H35            2.9907     5.7863     2.0320 H       
@<TRIPOS>BOND
   1    1    2 ar
   2    1   10 ar
   3    2    3 ar
   4    2   23 1
   5    3    4 ar
   6    3   24 1
   7    4    5 ar
   8    4   25 1
   9    5    6 ar
  10    5   10 ar
  11    6    7 ar
  12    6   26 1
  13    7    8 ar
  14    7   27 1
  15    8    9 ar
  16    8   18 1
  17    9   10 ar
  18    9   11 1
  19   11   12 ar
  20   11   16 ar
  21   12   13 ar
  22   12   17 1
  23   13   14 ar
  24   13   28 1
  25   14   15 ar
  26   14   29 1
  27   15   16 ar
  28   15   30 1
  29   16   31 1
  30   18   19 1
  31   18   20 1
  32   18   32 1
  33   19   33 1
  34   19   34 1
  35   19   35 1
  36   20   21 2
  37   21   22 2

#	End of record

