#	Name: ASD01813541
#	Creating user name:	WinNT
#	Creation time:	15. 06. 2019 19:30

#	Modifying user name:	WinNT
#	Modification time:	15. 06. 2019 19:30

#	Program:	/corina/corina34_cracker 3.40 0067  02.08.2006

@<TRIPOS>MOLECULE
ASD01813541
  58   62    0    0    0
SMALL
NO_CHARGES


@<TRIPOS>ATOM
   1 C1            -0.0184     1.5028     0.0103 C.3     
   2 C2             0.0021    -0.0041     0.0020 C.ar    
   3 C3             0.0056    -0.6830    -1.2091 C.ar    
   4 C4            -0.0110     0.0932    -2.5007 C.3     
   5 C5             1.3976     0.4773    -2.8741 C.ar    
   6 C6             1.9290     1.6723    -2.4248 C.ar    
   7 C7             3.2195     2.0273    -2.7657 C.ar    
   8 C8             3.9835     1.1828    -3.5599 C.ar    
   9 C9             3.4473    -0.0165    -4.0091 C.ar    
  10 C10            2.1580    -0.3685    -3.6605 C.ar    
  11 N11            5.2934     1.5405    -3.9080 N.pl3   
  12 C12            6.1389     0.8163    -4.6756 C.2     
  13 C13            7.2993     1.5056    -4.7732 C.2     
  14 C14            7.1594     2.6902    -4.0418 C.2     
  15 N15            5.9563     2.7145    -3.5274 N.2     
  16 C16            0.0247    -2.0606    -1.2402 C.ar    
  17 C17            0.0405    -2.7739    -0.0439 C.ar    
  18 C18            0.0616    -4.2440    -0.0149 C.2     
  19 O19            0.0662    -4.8968    -1.0423 O.2     
  20 N20            0.0763    -4.8430     1.1987 N.am    
  21 C21            0.0714    -4.1007     2.3366 C.2     
  22 N22            0.0525    -2.8025     2.3423 N.2     
  23 C23            0.0369    -2.0864     1.1903 C.ar    
  24 C24            0.0227    -0.6904     1.1957 C.ar    
  25 C25            0.0243     0.0617     2.5015 C.3     
  26 C26            0.0971    -6.3052     1.2862 C.3     
  27 H27            0.0978    -6.7305     0.2826 H       
  28 C28            1.3553    -6.7559     2.0346 C.3     
  29 C29            1.3292    -8.2787     2.1900 C.3     
  30 O30            0.1395    -8.6654     2.8807 O.3     
  31 C31           -1.0688    -8.3120     2.2043 C.3     
  32 C32           -1.1402    -6.7907     2.0476 C.3     
  33 H33           -1.1675    -6.3251     3.0328 H       
  34 O34           -2.3179    -6.4387     1.3188 O.3     
  35 H35            1.0042     1.8801     0.0026 H       
  36 H36           -0.5455     1.8639    -0.8728 H       
  37 H37           -0.5286     1.8543     0.9071 H       
  38 H38           -0.4407    -0.5238    -3.2899 H       
  39 H39           -0.6122     0.9938    -2.3756 H       
  40 H40            1.3342     2.3288    -1.8071 H       
  41 H41            3.6338     2.9610    -2.4152 H       
  42 H42            4.0390    -0.6753    -4.6273 H       
  43 H43            1.7418    -1.3033    -4.0060 H       
  44 H44            5.9265    -0.1407    -5.1289 H       
  45 H45            8.1781     1.1961    -5.3193 H       
  46 H46            7.9133     3.4547    -3.9250 H       
  47 H47            0.0270    -2.5833    -2.1853 H       
  48 H48            0.0835    -4.6170     3.2851 H       
  49 H49           -1.0028     0.2287     2.8259 H       
  50 H50            0.5534    -0.5209     3.2557 H       
  51 H51            0.5236     1.0213     2.3675 H       
  52 H52            2.2400    -6.4625     1.4695 H       
  53 H53            1.3799    -6.2896     3.0195 H       
  54 H54            1.3455    -8.7449     1.2049 H       
  55 H55            2.2011    -8.6010     2.7593 H       
  56 H56           -1.0839    -8.7787     1.2194 H       
  57 H57           -1.9245    -8.6583     2.7840 H       
  58 H58           -3.1410    -6.7160     1.7439 H       
@<TRIPOS>BOND
   1    1    2 1
   2    1   35 1
   3    1   36 1
   4    1   37 1
   5    2   24 ar
   6    2    3 ar
   7    3    4 1
   8    3   16 ar
   9    4    5 1
  10    4   38 1
  11    4   39 1
  12    5   10 ar
  13    5    6 ar
  14    6    7 ar
  15    6   40 1
  16    7    8 ar
  17    7   41 1
  18    8    9 ar
  19    8   11 1
  20    9   10 ar
  21    9   42 1
  22   10   43 1
  23   11   15 1
  24   11   12 1
  25   12   13 2
  26   12   44 1
  27   13   14 1
  28   13   45 1
  29   14   15 2
  30   14   46 1
  31   16   17 ar
  32   16   47 1
  33   17   23 ar
  34   17   18 1
  35   18   19 2
  36   18   20 am
  37   20   21 1
  38   20   26 1
  39   21   22 2
  40   21   48 1
  41   22   23 1
  42   23   24 ar
  43   24   25 1
  44   25   49 1
  45   25   50 1
  46   25   51 1
  47   26   27 1
  48   26   32 1
  49   26   28 1
  50   28   29 1
  51   28   52 1
  52   28   53 1
  53   29   30 1
  54   29   54 1
  55   29   55 1
  56   30   31 1
  57   31   32 1
  58   31   56 1
  59   31   57 1
  60   32   33 1
  61   32   34 1
  62   34   58 1

#	End of record

