#	Name: ASD02198123
#	Creating user name:	WinNT
#	Creation time:	15. 06. 2019 20:18

#	Modifying user name:	WinNT
#	Modification time:	15. 06. 2019 20:18

#	Program:	/corina/corina34_cracker 3.40 0067  02.08.2006

@<TRIPOS>MOLECULE
ASD02198123
  50   53    0    0    0
SMALL
NO_CHARGES


@<TRIPOS>ATOM
   1 C1            -0.0229     1.4368    -1.4178 C.2     
   2 C2            -0.0607     0.0602    -1.3482 C.2     
   3 C3            -1.0165    -0.6553    -0.5577 C.1     
   4 S4             1.2327     1.9597    -2.4458 S.3     
   5 C5             1.7232     0.3098    -2.7947 C.2     
   6 C6             0.9141    -0.5718    -2.1169 C.2     
   7 C7             2.7861    -0.0559    -3.6426 C.2     
   8 C8             3.4945     0.9783    -4.4294 C.ar    
   9 O9             3.1229    -1.2246    -3.7286 O.2     
  10 N10            1.0548    -1.9486    -2.1904 N.pl3   
  11 N11           -0.8867     2.2760    -0.7513 N.pl3   
  12 N12           -1.7747    -1.2230     0.0695 N.1     
  13 C13            2.8163     2.1203    -4.8565 C.ar    
  14 C14           -0.6878     3.6531    -0.7903 C.ar    
  15 C15           -1.7825     4.5123    -0.8259 C.ar    
  16 C16            3.4818     3.0813    -5.5898 C.ar    
  17 C17            4.8190     2.9146    -5.9021 C.ar    
  18 C18            5.4983     1.7833    -5.4819 C.ar    
  19 C19            4.8449     0.8177    -4.7422 C.ar    
  20 C20           -1.5891     5.8744    -0.8644 C.ar    
  21 C21           -0.2918     6.3948    -0.8678 C.ar    
  22 Cl22           7.1763     1.5826    -5.8791 Cl      
  23 C23            0.8054     5.5294    -0.8320 C.ar    
  24 C24            0.6054     4.1685    -0.7878 C.ar    
  25 C25           -0.0809     7.8546    -0.9096 C.2     
  26 O26           -1.0362     8.6062    -0.9411 O.2     
  27 N27            1.1706     8.3548    -0.9127 N.am    
  28 C28            1.3799     9.8042    -0.9542 C.3     
  29 C29            2.7501    10.1674    -0.3398 C.3     
  30 C30            3.3148    11.1686    -1.3732 C.3     
  31 O31            2.6743    10.7953    -2.6290 O.3     
  32 C32            1.4587    10.2842    -2.3872 C.2     
  33 O33            0.5608    10.2166    -3.1928 O.2     
  34 H34            1.7525    -2.3362    -2.7417 H       
  35 H35            0.4555    -2.5247    -1.6905 H       
  36 H36           -1.6340     1.9078    -0.2545 H       
  37 H37            1.7722     2.2519    -4.6139 H       
  38 H38           -2.7846     4.1096    -0.8236 H       
  39 H39            2.9574     3.9654    -5.9211 H       
  40 H40            5.3353     3.6697    -6.4763 H       
  41 H41            5.3753    -0.0643    -4.4148 H       
  42 H42           -2.4388     6.5404    -0.8924 H       
  43 H43            1.8090     5.9285    -0.8348 H       
  44 H44            1.4527     3.4993    -0.7601 H       
  45 H45            1.9326     7.7553    -0.8876 H       
  46 H46            0.5781    10.3180    -0.4238 H       
  47 H47            2.6256    10.6425     0.6333 H       
  48 H48            3.3875     9.2864    -0.2642 H       
  49 H49            3.0487    12.1894    -1.0989 H       
  50 H50            4.3970    11.0645    -1.4521 H       
@<TRIPOS>BOND
   1    1    2 2
   2    1    4 1
   3    1   11 1
   4    2    3 1
   5    2    6 1
   6    3   12 3
   7    4    5 1
   8    5    6 2
   9    5    7 1
  10    6   10 1
  11    7    8 1
  12    7    9 2
  13    8   13 ar
  14    8   19 ar
  15   10   34 1
  16   10   35 1
  17   11   14 1
  18   11   36 1
  19   13   16 ar
  20   13   37 1
  21   14   15 ar
  22   14   24 ar
  23   15   20 ar
  24   15   38 1
  25   16   17 ar
  26   16   39 1
  27   17   18 ar
  28   17   40 1
  29   18   19 ar
  30   18   22 1
  31   19   41 1
  32   20   21 ar
  33   20   42 1
  34   21   23 ar
  35   21   25 1
  36   23   24 ar
  37   23   43 1
  38   24   44 1
  39   25   26 2
  40   25   27 am
  41   27   28 1
  42   27   45 1
  43   28   29 1
  44   28   32 1
  45   28   46 1
  46   29   30 1
  47   29   47 1
  48   29   48 1
  49   30   31 1
  50   30   49 1
  51   30   50 1
  52   31   32 1
  53   32   33 2

#	End of record

