#	Name: ASD03430367
#	Creating user name:	WinNT
#	Creation time:	15. 06. 2019 20:40

#	Modifying user name:	WinNT
#	Modification time:	15. 06. 2019 20:40

#	Program:	/corina/corina34_cracker 3.40 0067  02.08.2006

@<TRIPOS>MOLECULE
ASD03430367
  51   55    0    0    0
SMALL
NO_CHARGES


@<TRIPOS>ATOM
   1 C1            -0.0169     1.3928     0.0097 C.ar    
   2 C2             0.0021    -0.0041     0.0020 C.ar    
   3 C3             1.1908    -0.6691    -0.0092 C.ar    
   4 C4             2.4042     0.0261    -0.0025 C.ar    
   5 C5             2.3958     1.4150    -0.0031 C.ar    
   6 C6             1.1946     2.1061     0.0020 C.ar    
   7 O7             3.4619    -0.8331     0.0177 O.3     
   8 C8             1.5381    -2.1337    -0.0430 C.3     
   9 C9             3.0265    -2.1345    -0.4188 C.3     
  10 C10            0.4082    -3.8526     1.0004 C.ar    
  11 C11            1.2925    -2.8113     1.2719 C.ar    
  12 C12            0.7118    -2.8917    -1.0419 C.2     
  13 N13            0.0888    -3.8728    -0.3592 N.am    
  14 O14            0.6221    -2.6651    -2.2301 O.2     
  15 C15            1.7471    -2.5950     2.5535 C.ar    
  16 C16            1.3279    -3.4162     3.5856 C.ar    
  17 C17            0.4518    -4.4539     3.3272 C.ar    
  18 C18           -0.0073    -4.6744     2.0449 C.ar    
  19 C19           -0.8174    -4.8473    -0.9720 C.3     
  20 C20           -1.0868     2.3929     0.0312 C.2     
  21 N21           -0.5253     3.5630     0.0239 N.2     
  22 O22            0.8804     3.4182     0.0012 O.3     
  23 C23           -2.5676     2.1144     0.0565 C.3     
  24 C24           -2.2480    -4.3059    -0.9364 C.3     
  25 O25           -2.3364    -3.1393    -1.7570 O.3     
  26 C26           -3.6385    -2.5517    -1.7935 C.3     
  27 C27           -3.6156    -1.3171    -2.6969 C.3     
  28 O28           -3.3429    -1.7158    -4.0417 O.3     
  29 C29           -3.2994    -0.6318    -4.9719 C.3     
  30 H30           -0.9258    -0.5567     0.0053 H       
  31 H31            3.3290     1.9585    -0.0070 H       
  32 H32            3.1533    -2.2436    -1.4959 H       
  33 H33            3.5599    -2.9203     0.1160 H       
  34 H34            2.4311    -1.7835     2.7535 H       
  35 H35            1.6848    -3.2469     4.5908 H       
  36 H36            0.1254    -5.0951     4.1326 H       
  37 H37           -0.6921    -5.4867     1.8507 H       
  38 H38           -0.5198    -5.0199    -2.0063 H       
  39 H39           -0.7701    -5.7853    -0.4189 H       
  40 H40           -2.9066     2.0445     1.0901 H       
  41 H41           -3.0981     2.9232    -0.4460 H       
  42 H42           -2.7693     1.1739    -0.4563 H       
  43 H43           -2.9336    -5.0662    -1.3107 H       
  44 H44           -2.5142    -4.0498     0.0891 H       
  45 H45           -4.3529    -3.2756    -2.1856 H       
  46 H46           -3.9335    -2.2592    -0.7858 H       
  47 H47           -4.5839    -0.8183    -2.6550 H       
  48 H48           -2.8391    -0.6321    -2.3564 H       
  49 H49           -4.2611    -0.1189    -4.9772 H       
  50 H50           -2.5163     0.0673    -4.6787 H       
  51 H51           -3.0876    -1.0172    -5.9693 H       
@<TRIPOS>BOND
   1    1    2 ar
   2    1    6 ar
   3    1   20 1
   4    2    3 ar
   5    2   30 1
   6    3    4 ar
   7    3    8 1
   8    4    5 ar
   9    4    7 1
  10    5    6 ar
  11    5   31 1
  12    6   22 1
  13    7    9 1
  14    8    9 1
  15    8   11 1
  16    8   12 1
  17    9   32 1
  18    9   33 1
  19   10   11 ar
  20   10   13 1
  21   10   18 ar
  22   11   15 ar
  23   12   13 am
  24   12   14 2
  25   13   19 1
  26   15   16 ar
  27   15   34 1
  28   16   17 ar
  29   16   35 1
  30   17   18 ar
  31   17   36 1
  32   18   37 1
  33   19   24 1
  34   19   38 1
  35   19   39 1
  36   20   21 2
  37   20   23 1
  38   21   22 1
  39   23   40 1
  40   23   41 1
  41   23   42 1
  42   24   25 1
  43   24   43 1
  44   24   44 1
  45   25   26 1
  46   26   27 1
  47   26   45 1
  48   26   46 1
  49   27   28 1
  50   27   47 1
  51   27   48 1
  52   28   29 1
  53   29   49 1
  54   29   50 1
  55   29   51 1

#	End of record

