#	Name: ASD00450034
#	Creating user name:	WinNT
#	Creation time:	15. 06. 2019 18:36

#	Modifying user name:	WinNT
#	Modification time:	15. 06. 2019 18:36

#	Program:	/corina/corina34_cracker 3.40 0067  02.08.2006

@<TRIPOS>MOLECULE
ASD00450034
  39   41    0    0    0
SMALL
NO_CHARGES


@<TRIPOS>ATOM
   1 C1            -0.1970     1.4564     0.2880 C.ar    
   2 C2            -0.3567     0.0619     0.3149 C.ar    
   3 C3             0.7496    -0.7541     0.4750 C.ar    
   4 C4             2.0131    -0.1997     0.6091 C.ar    
   5 C5             2.1830     1.1737     0.5846 C.ar    
   6 C6             1.0876     2.0095     0.4243 C.ar    
   7 C7            -1.3650     2.3318     0.1124 C.2     
   8 O8            -1.9790     2.7291     1.0846 O.2     
   9 N9            -1.7555     2.6942    -1.1256 N.am    
  10 N10            1.2597     3.3878     0.3990 N.pl3   
  11 C11            2.3393     3.9704     1.0715 C.ar    
  12 C12            2.7565     5.2554     0.7391 C.ar    
  13 C13            2.9931     3.2699     2.0758 C.ar    
  14 C14            4.0592     3.8477     2.7384 C.ar    
  15 C15            4.4760     5.1228     2.4026 C.ar    
  16 C16            3.8238     5.8274     1.4060 C.ar    
  17 F17            3.0860    -1.0057     0.7653 F       
  18 F18            2.1199     5.9429    -0.2342 F       
  19 I19            6.0930     5.9933     3.4109 I       
  20 O20           -1.5916    -0.4841     0.1848 O.3     
  21 C21           -1.7134    -1.8292     0.3345 C.ar    
  22 C22           -1.7003    -2.3913     1.6031 C.ar    
  23 C23           -1.8243    -3.7589     1.7525 C.ar    
  24 C24           -1.9614    -4.5676     0.6393 C.ar    
  25 C25           -1.9743    -4.0101    -0.6259 C.ar    
  26 C26           -1.8569    -2.6424    -0.7806 C.ar    
  27 H27            0.6281    -1.8270     0.4958 H       
  28 H28            3.1714     1.5959     0.6907 H       
  29 H29           -1.2659     2.3774    -1.9007 H       
  30 H30           -2.5261     3.2718    -1.2414 H       
  31 H31            0.6313     3.9463    -0.0849 H       
  32 H32            2.6686     2.2741     2.3394 H       
  33 H33            4.5676     3.3027     3.5200 H       
  34 H34            4.1487     6.8248     1.1491 H       
  35 H35           -1.5929    -1.7601     2.4728 H       
  36 H36           -1.8138    -4.1970     2.7396 H       
  37 H37           -2.0582    -5.6367     0.7583 H       
  38 H38           -2.0808    -4.6440    -1.4938 H       
  39 H39           -1.8670    -2.2074    -1.7690 H       
@<TRIPOS>BOND
   1    1    2 ar
   2    1    6 ar
   3    1    7 1
   4    2    3 ar
   5    2   20 1
   6    3    4 ar
   7    3   27 1
   8    4    5 ar
   9    4   17 1
  10    5    6 ar
  11    5   28 1
  12    6   10 1
  13    7    8 2
  14    7    9 am
  15    9   29 1
  16    9   30 1
  17   10   11 1
  18   10   31 1
  19   11   13 ar
  20   11   12 ar
  21   12   16 ar
  22   12   18 1
  23   13   14 ar
  24   13   32 1
  25   14   15 ar
  26   14   33 1
  27   15   16 ar
  28   15   19 1
  29   16   34 1
  30   20   21 1
  31   21   22 ar
  32   21   26 ar
  33   22   23 ar
  34   22   35 1
  35   23   24 ar
  36   23   36 1
  37   24   25 ar
  38   24   37 1
  39   25   26 ar
  40   25   38 1
  41   26   39 1

#	End of record

