#	Name: ASD03430416
#	Creating user name:	WinNT
#	Creation time:	15. 06. 2019 20:41

#	Modifying user name:	WinNT
#	Modification time:	15. 06. 2019 20:41

#	Program:	/corina/corina34_cracker 3.40 0067  02.08.2006

@<TRIPOS>MOLECULE
ASD03430416
  61   66    0    0    0
SMALL
NO_CHARGES


@<TRIPOS>ATOM
   1 N1            -0.0157     1.4932     0.4901 N.am    
   2 C2             0.0409     0.2263     0.9344 C.2     
   3 C3             1.4805    -0.0488     1.3138 C.3     
   4 C4             2.1944     1.2486     1.0118 C.ar    
   5 C5             3.5068     1.6460     1.1354 C.ar    
   6 C6             3.8770     2.9283     0.7697 C.ar    
   7 C7             2.9262     3.8059     0.2812 C.ar    
   8 C8             1.6107     3.4103     0.1564 C.ar    
   9 C9             1.2302     2.1206     0.5226 C.ar    
  10 O10           -0.8869    -0.5505     1.0164 O.2     
  11 O11            1.8769    -1.2943     6.8005 O.3     
  12 C12            3.2031    -1.3655     7.3281 C.3     
  13 C13            3.8102    -2.7370     7.0777 C.3     
  14 C14            4.0022    -3.0234     5.5967 C.3     
  15 O15            2.7422    -3.0899     4.9257 O.3     
  16 C16            2.2162    -1.8955     4.5237 C.ar    
  17 C17            1.7778    -0.9850     5.4750 C.ar    
  18 C18            2.1203    -1.5938     3.1764 C.ar    
  19 C19            1.5859    -0.3806     2.7800 C.ar    
  20 C20            1.1477     0.5307     3.7287 C.ar    
  21 C21            1.2431     0.2289     5.0801 C.ar    
  22 O22            0.6240     1.7221     3.3344 O.3     
  23 O23            2.0136    -1.1103     0.5193 O.3     
  24 C24           -1.2434     2.1395     0.0197 C.3     
  25 C25           -0.9991     2.7578    -1.3327 C.ar    
  26 C26           -1.5151     4.0065    -1.6251 C.ar    
  27 C27           -1.2910     4.5737    -2.8657 C.ar    
  28 C28           -0.5507     3.8924    -3.8136 C.ar    
  29 C29           -0.0340     2.6442    -3.5209 C.ar    
  30 C30           -0.2543     2.0788    -2.2788 C.ar    
  31 C31           -2.3417     1.1132    -0.0881 C.ar    
  32 C32           -3.4804     1.2356     0.6860 C.ar    
  33 C33           -4.4879     0.2942     0.5871 C.ar    
  34 C34           -4.3568    -0.7692    -0.2863 C.ar    
  35 C35           -3.2185    -0.8911    -1.0611 C.ar    
  36 C36           -2.2129     0.0526    -0.9653 C.ar    
  37 H37            4.2463     0.9579     1.5176 H       
  38 H38            4.9057     3.2431     0.8658 H       
  39 H39            3.2153     4.8067    -0.0038 H       
  40 H40            0.8740     4.1014    -0.2259 H       
  41 H41            3.8212    -0.6065     6.8485 H       
  42 H42            3.1729    -1.1770     8.4012 H       
  43 H43            4.7781    -2.7910     7.5761 H       
  44 H44            3.1537    -3.4966     7.5021 H       
  45 H45            4.6035    -2.2301     5.1528 H       
  46 H46            4.5216    -3.9745     5.4796 H       
  47 H47            2.4615    -2.3031     2.4368 H       
  48 H48            0.9021     0.9381     5.8198 H       
  49 H49           -0.3329     1.7046     3.1961 H       
  50 H50            1.5527    -1.9533     0.6290 H       
  51 H51           -1.5391     2.9153     0.7259 H       
  52 H52           -2.0935     4.5388    -0.8845 H       
  53 H53           -1.6947     5.5490    -3.0944 H       
  54 H54           -0.3762     4.3353    -4.7831 H       
  55 H55            0.5442     2.1118    -4.2616 H       
  56 H56            0.1525     1.1052    -2.0488 H       
  57 H57           -3.5828     2.0665     1.3683 H       
  58 H58           -5.3772     0.3895     1.1924 H       
  59 H59           -5.1436    -1.5051    -0.3630 H       
  60 H60           -3.1159    -1.7221    -1.7431 H       
  61 H61           -1.3252    -0.0405    -1.5733 H       
@<TRIPOS>BOND
   1    1    2 am
   2    1    9 1
   3    1   24 1
   4    2    3 1
   5    2   10 2
   6    3    4 1
   7    3   19 1
   8    3   23 1
   9    4    5 ar
  10    4    9 ar
  11    5    6 ar
  12    5   37 1
  13    6    7 ar
  14    6   38 1
  15    7    8 ar
  16    7   39 1
  17    8    9 ar
  18    8   40 1
  19   11   12 1
  20   11   17 1
  21   12   13 1
  22   12   41 1
  23   12   42 1
  24   13   14 1
  25   13   43 1
  26   13   44 1
  27   14   15 1
  28   14   45 1
  29   14   46 1
  30   15   16 1
  31   16   17 ar
  32   16   18 ar
  33   17   21 ar
  34   18   19 ar
  35   18   47 1
  36   19   20 ar
  37   20   21 ar
  38   20   22 1
  39   21   48 1
  40   22   49 1
  41   23   50 1
  42   24   25 1
  43   24   31 1
  44   24   51 1
  45   25   26 ar
  46   25   30 ar
  47   26   27 ar
  48   26   52 1
  49   27   28 ar
  50   27   53 1
  51   28   29 ar
  52   28   54 1
  53   29   30 ar
  54   29   55 1
  55   30   56 1
  56   31   32 ar
  57   31   36 ar
  58   32   33 ar
  59   32   57 1
  60   33   34 ar
  61   33   58 1
  62   34   35 ar
  63   34   59 1
  64   35   36 ar
  65   35   60 1
  66   36   61 1

#	End of record

