#	Name: ASD02039116
#	Creating user name:	WinNT
#	Creation time:	15. 06. 2019 20:17

#	Modifying user name:	WinNT
#	Modification time:	15. 06. 2019 20:17

#	Program:	/corina/corina34_cracker 3.40 0067  02.08.2006

@<TRIPOS>MOLECULE
ASD02039116
  40   43    0    0    0
SMALL
NO_CHARGES


@<TRIPOS>ATOM
   1 N1             0.0235     1.2846    -0.3610 N.2     
   2 N2             0.0399    -0.0019    -0.3622 N.2     
   3 C3             1.2243     1.7332    -0.0876 C.2     
   4 O4             2.0203     0.6621     0.0883 O.3     
   5 C5             1.2410    -0.4221    -0.0921 C.2     
   6 N6             1.6033     3.0607     0.0028 N.pl3   
   7 C7             0.6404     4.0705    -0.0881 C.ar    
   8 C8             1.6810    -1.8603     0.0018 C.3     
   9 C9             2.1411    -2.3344    -1.3527 C.ar    
  10 C10           -0.6617     3.8292     0.3296 C.ar    
  11 C11            0.9863     5.3185    -0.5911 C.ar    
  12 C12            0.0343     6.3150    -0.6798 C.ar    
  13 C13           -1.2642     6.0723    -0.2684 C.ar    
  14 Cl14          -2.4583     7.3273    -0.3820 Cl      
  15 C15            3.4674    -2.1937    -1.7192 C.ar    
  16 C16            1.2377    -2.9143    -2.2240 C.ar    
  17 C17            1.6558    -3.3506    -3.4663 C.ar    
  18 C18            2.9852    -3.2058    -3.8390 C.ar    
  19 C19            3.8912    -2.6275    -2.9593 C.ar    
  20 N20            3.4152    -3.6447    -5.0950 N.am    
  21 C21            4.7227    -3.8552    -5.3330 C.2     
  22 C22            5.7464    -3.6426    -4.2506 C.3     
  23 C23            5.3336    -2.4701    -3.3646 C.3     
  24 O24            5.0804    -4.2210    -6.4327 O.2     
  25 C25           -1.6120     4.8303     0.2388 C.ar    
  26 F26           -2.8806     4.5955     0.6395 F       
  27 H27            2.5371     3.2910     0.1292 H       
  28 H28            2.5020    -1.9434     0.7140 H       
  29 H29            0.8455    -2.4747     0.3373 H       
  30 H30           -0.9322     2.8610     0.7244 H       
  31 H31            1.9996     5.5094    -0.9123 H       
  32 H32            0.3038     7.2851    -1.0705 H       
  33 H33            4.1717    -1.7439    -1.0350 H       
  34 H34            0.2037    -3.0266    -1.9329 H       
  35 H35            0.9497    -3.8040    -4.1462 H       
  36 H36            2.7664    -3.7988    -5.7994 H       
  37 H37            5.8220    -4.5435    -3.6418 H       
  38 H38            6.7147    -3.4317    -4.7044 H       
  39 H39            5.4544    -1.5379    -3.9164 H       
  40 H40            5.9620    -2.4490    -2.4742 H       
@<TRIPOS>BOND
   1    1    2 1
   2    1    3 2
   3    2    5 2
   4    3    4 1
   5    3    6 1
   6    4    5 1
   7    5    8 1
   8    6    7 1
   9    6   27 1
  10    7   10 ar
  11    7   11 ar
  12    8    9 1
  13    8   28 1
  14    8   29 1
  15    9   15 ar
  16    9   16 ar
  17   10   25 ar
  18   10   30 1
  19   11   12 ar
  20   11   31 1
  21   12   13 ar
  22   12   32 1
  23   13   25 ar
  24   13   14 1
  25   15   19 ar
  26   15   33 1
  27   16   17 ar
  28   16   34 1
  29   17   18 ar
  30   17   35 1
  31   18   19 ar
  32   18   20 1
  33   19   23 1
  34   20   21 am
  35   20   36 1
  36   21   22 1
  37   21   24 2
  38   22   23 1
  39   22   37 1
  40   22   38 1
  41   23   39 1
  42   23   40 1
  43   25   26 1

#	End of record

