#	Name: ASD03240134
#	Creating user name:	WinNT
#	Creation time:	15. 06. 2019 20:34

#	Modifying user name:	WinNT
#	Modification time:	15. 06. 2019 20:34

#	Program:	/corina/corina34_cracker 3.40 0067  02.08.2006

@<TRIPOS>MOLECULE
ASD03240134
  83   91    0    0    0
SMALL
NO_CHARGES


@<TRIPOS>ATOM
   1 C1            -0.0172     1.4160     0.0098 C.ar    
   2 C2             0.0021    -0.0041     0.0020 C.ar    
   3 C3             1.1946     2.1239     0.0021 C.ar    
   4 C4             2.3741     1.3944    -0.0132 C.ar    
   5 C5             2.3167    -0.0171    -0.0203 C.ar    
   6 N6             1.1631    -0.6586    -0.0127 N.ar    
   7 C7             3.5779    -0.7937    -0.0365 C.ar    
   8 C8             3.6833     2.0897    -0.0224 C.ar    
   9 C9             3.9288     3.1071    -0.9434 C.ar    
  10 C10            5.1495     3.7507    -0.9473 C.ar    
  11 C11            6.1285     3.3881    -0.0398 C.ar    
  12 C12            5.8908     2.3791     0.8761 C.ar    
  13 C13            4.6717     1.7325     0.8935 C.ar    
  14 C14            3.6626    -2.0059     0.6480 C.ar    
  15 C15            4.8400    -2.7251     0.6287 C.ar    
  16 C16            5.9351    -2.2460    -0.0678 C.ar    
  17 C17            5.8573    -1.0442    -0.7487 C.ar    
  18 C18            4.6837    -0.3185    -0.7413 C.ar    
  19 C19            7.2182    -3.0361    -0.0844 C.3     
  20 N20           -1.1677    -0.6568     0.0102 N.ar    
  21 C21           -2.3045     0.0121     0.0251 C.ar    
  22 N22           -2.3570     1.3427     0.0327 N.ar    
  23 C23           -1.2608     2.0729     0.0311 C.ar    
  24 N24            7.2075    -3.9635    -1.2236 N.3     
  25 C25            8.5273    -4.5785    -1.4140 C.3     
  26 C26            8.5189    -5.4227    -2.6905 C.3     
  27 C27            7.4426    -6.5055    -2.5734 C.3     
  28 C28            6.0854    -5.8406    -2.3272 C.3     
  29 C29            6.1644    -4.9844    -1.0613 C.3     
  30 C30            7.3887    -7.3023    -3.8514 C.2     
  31 N31            6.6908    -6.9804    -4.9660 N.pl3   
  32 C32            6.9361    -7.9832    -5.8648 C.2     
  33 N33            7.7429    -8.8375    -5.2755 N.2     
  34 N34            8.0115    -8.4267    -4.0872 N.2     
  35 C35            6.3954    -8.0864    -7.2379 C.ar    
  36 C36            6.7402    -9.1759    -8.0371 C.ar    
  37 C37            6.2257    -9.2586    -9.3195 C.ar    
  38 C38            5.3829    -8.2489    -9.7615 C.ar    
  39 C39            5.0824    -7.1963    -8.9156 C.ar    
  40 N40            5.5809    -7.1436    -7.6979 N.ar    
  41 N41           -3.4902    -0.6975     0.0327 N.3     
  42 C42           -3.5377    -1.6346     1.1693 C.3     
  43 C43           -4.9069    -2.2650     1.1971 C.2     
  44 N44           -5.9723    -1.7696     0.5133 N.pl3   
  45 C45           -5.9186    -0.5688    -0.3209 C.3     
  46 C46           -4.6466     0.2095     0.0414 C.3     
  47 N47           -5.3106    -3.3230     1.8283 N.2     
  48 N48           -6.5605    -3.5214     1.5795 N.2     
  49 C49           -7.0050    -2.5894     0.7746 C.2     
  50 H50            1.2083     3.2038     0.0074 H       
  51 H51            3.1653     3.3907    -1.6526 H       
  52 H52            5.3410     4.5388    -1.6605 H       
  53 H53            7.0824     3.8947    -0.0465 H       
  54 H54            6.6591     2.0997     1.5818 H       
  55 H55            4.4872     0.9448     1.6090 H       
  56 H56            2.8084    -2.3808     1.1924 H       
  57 H57            4.9069    -3.6637     1.1587 H       
  58 H58            6.7156    -0.6753    -1.2907 H       
  59 H59            4.6241     0.6195    -1.2732 H       
  60 H60            8.0635    -2.3545    -0.1788 H       
  61 H61            7.3090    -3.6012     0.8433 H       
  62 H62           -1.3157     3.1515     0.0377 H       
  63 H63            9.2829    -3.7976    -1.5000 H       
  64 H64            8.7583    -5.2146    -0.5595 H       
  65 H65            8.3015    -4.7848    -3.5472 H       
  66 H66            9.4939    -5.8915    -2.8232 H       
  67 H67            7.6806    -7.1670    -1.7404 H       
  68 H68            5.8298    -5.2093    -3.1782 H       
  69 H69            5.3219    -6.6081    -2.2004 H       
  70 H70            6.4065    -5.6185    -0.2084 H       
  71 H71            5.2038    -4.4982    -0.8911 H       
  72 H72            6.1314    -6.1994    -5.1001 H       
  73 H73            7.3996    -9.9442    -7.6610 H       
  74 H74            6.4751   -10.0902    -9.9618 H       
  75 H75            4.9655    -8.2842   -10.7570 H       
  76 H76            4.4266    -6.4091    -9.2572 H       
  77 H77           -2.7791    -2.4069     1.0419 H       
  78 H78           -3.3618    -1.0945     2.0996 H       
  79 H79           -5.8887    -0.8528    -1.3728 H       
  80 H80           -6.7954     0.0503    -0.1313 H       
  81 H81           -4.7584     0.6446     1.0345 H       
  82 H82           -4.4889     1.0053    -0.6866 H       
  83 H83           -8.0109    -2.4969     0.3925 H       
@<TRIPOS>BOND
   1    1    2 ar
   2    1    3 ar
   3    1   23 ar
   4    2   20 ar
   5    2    6 ar
   6    3    4 ar
   7    3   50 1
   8    4    5 ar
   9    4    8 1
  10    5    6 ar
  11    5    7 1
  12    7   14 ar
  13    7   18 ar
  14    8    9 ar
  15    8   13 ar
  16    9   10 ar
  17    9   51 1
  18   10   11 ar
  19   10   52 1
  20   11   12 ar
  21   11   53 1
  22   12   13 ar
  23   12   54 1
  24   13   55 1
  25   14   15 ar
  26   14   56 1
  27   15   16 ar
  28   15   57 1
  29   16   17 ar
  30   16   19 1
  31   17   18 ar
  32   17   58 1
  33   18   59 1
  34   19   24 1
  35   19   60 1
  36   19   61 1
  37   20   21 ar
  38   21   22 ar
  39   21   41 1
  40   22   23 ar
  41   23   62 1
  42   24   25 1
  43   24   29 1
  44   25   26 1
  45   25   63 1
  46   25   64 1
  47   26   27 1
  48   26   65 1
  49   26   66 1
  50   27   28 1
  51   27   30 1
  52   27   67 1
  53   28   29 1
  54   28   68 1
  55   28   69 1
  56   29   70 1
  57   29   71 1
  58   30   31 1
  59   30   34 2
  60   31   32 1
  61   31   72 1
  62   32   33 2
  63   32   35 1
  64   33   34 1
  65   35   36 ar
  66   35   40 ar
  67   36   37 ar
  68   36   73 1
  69   37   38 ar
  70   37   74 1
  71   38   39 ar
  72   38   75 1
  73   39   40 ar
  74   39   76 1
  75   41   42 1
  76   41   46 1
  77   42   43 1
  78   42   77 1
  79   42   78 1
  80   43   44 1
  81   43   47 2
  82   44   45 1
  83   44   49 1
  84   45   46 1
  85   45   79 1
  86   45   80 1
  87   46   81 1
  88   46   82 1
  89   47   48 1
  90   48   49 2
  91   49   83 1

#	End of record

