#	Name: ASD02039111
#	Creating user name:	WinNT
#	Creation time:	15. 06. 2019 20:17

#	Modifying user name:	WinNT
#	Modification time:	15. 06. 2019 20:17

#	Program:	/corina/corina34_cracker 3.40 0067  02.08.2006

@<TRIPOS>MOLECULE
ASD02039111
  43   46    0    0    0
SMALL
NO_CHARGES


@<TRIPOS>ATOM
   1 N1             0.0026     1.2785    -0.2070 N.2     
   2 N2             0.0318    -0.0041    -0.3030 N.2     
   3 C3             1.2281     1.7343    -0.1151 C.2     
   4 O4             2.0535     0.6719    -0.1572 O.3     
   5 C5             1.2659    -0.4146    -0.2765 C.2     
   6 N6             1.6033     3.0608     0.0032 N.pl3   
   7 C7             0.6407     4.0702    -0.0872 C.ar    
   8 C8             1.7303    -1.8456    -0.3635 C.3     
   9 C9             1.9512    -2.2151    -1.8077 C.ar    
  10 C10            0.8207     5.2669     0.5949 C.ar    
  11 C11           -0.4954     3.8811    -0.8638 C.ar    
  12 C12           -1.4446     4.8804    -0.9509 C.ar    
  13 C13           -1.2650     6.0683    -0.2660 C.ar    
  14 C14           -0.1324     6.2621     0.5035 C.ar    
  15 C15           -2.3026     7.1568    -0.3638 C.3     
  16 C16            3.1915    -2.0196    -2.3881 C.ar    
  17 C17            0.9154    -2.7542    -2.5480 C.ar    
  18 C18            1.1143    -3.0947    -3.8720 C.ar    
  19 C19            2.3564    -2.8946    -4.4587 C.ar    
  20 C20            3.3963    -2.3576    -3.7108 C.ar    
  21 N21            2.5646    -3.2364    -5.7984 N.am    
  22 C22            3.8124    -3.4005    -6.2745 C.2     
  23 C23            5.0074    -3.2395    -5.3740 C.3     
  24 C24            4.7439    -2.1402    -4.3482 C.3     
  25 O25            3.9760    -3.6818    -7.4429 O.2     
  26 F26           -3.2530     6.9875     0.6488 F       
  27 F27           -1.6852     8.4039    -0.2201 F       
  28 F28           -2.9330     7.0894    -1.6110 F       
  29 H29            2.5345     3.2902     0.1488 H       
  30 H30            2.6640    -1.9587     0.1874 H       
  31 H31            0.9727    -2.5003     0.0672 H       
  32 H32            1.7049     5.4186     1.1963 H       
  33 H33           -0.6361     2.9537    -1.3992 H       
  34 H34           -2.3279     4.7342    -1.5548 H       
  35 H35            0.0046     7.1908     1.0373 H       
  36 H36            3.9999    -1.6020    -1.8063 H       
  37 H37           -0.0505    -2.9095    -2.0905 H       
  38 H38            0.3049    -3.5162    -4.4496 H       
  39 H39            1.8042    -3.3565    -6.3886 H       
  40 H40            5.1976    -4.1782    -4.8536 H       
  41 H41            5.8792    -2.9761    -5.9729 H       
  42 H42            4.7567    -1.1698    -4.8445 H       
  43 H43            5.5180    -2.1660    -3.5813 H       
@<TRIPOS>BOND
   1    1    2 1
   2    1    3 2
   3    2    5 2
   4    3    4 1
   5    3    6 1
   6    4    5 1
   7    5    8 1
   8    6    7 1
   9    6   29 1
  10    7   10 ar
  11    7   11 ar
  12    8    9 1
  13    8   30 1
  14    8   31 1
  15    9   16 ar
  16    9   17 ar
  17   10   14 ar
  18   10   32 1
  19   11   12 ar
  20   11   33 1
  21   12   13 ar
  22   12   34 1
  23   13   14 ar
  24   13   15 1
  25   14   35 1
  26   15   26 1
  27   15   27 1
  28   15   28 1
  29   16   20 ar
  30   16   36 1
  31   17   18 ar
  32   17   37 1
  33   18   19 ar
  34   18   38 1
  35   19   20 ar
  36   19   21 1
  37   20   24 1
  38   21   22 am
  39   21   39 1
  40   22   23 1
  41   22   25 2
  42   23   24 1
  43   23   40 1
  44   23   41 1
  45   24   42 1
  46   24   43 1

#	End of record

