#	Name: ASD03090003
#	Creating user name:	WinNT
#	Creation time:	15. 06. 2019 20:28

#	Modifying user name:	WinNT
#	Modification time:	15. 06. 2019 20:28

#	Program:	/corina/corina34_cracker 3.40 0067  02.08.2006

@<TRIPOS>MOLECULE
ASD03090003
  37   37    0    0    0
SMALL
NO_CHARGES


@<TRIPOS>ATOM
   1 C1             0.0899     1.7195    -0.0815 C.3     
   2 C2            -0.0455     0.2186    -0.0742 C.2     
   3 C3             1.7583    -2.0699    -3.0447 C.3     
   4 C4             1.7726    -0.5649    -3.1223 C.2     
   5 C5             1.2265     0.1621    -2.1376 C.2     
   6 C6             0.4968    -0.5034    -1.0522 C.2     
   7 N7             2.3485     0.0654    -4.2085 N.pl3   
   8 C8             3.0577    -0.7052    -5.2417 C.3     
   9 C9             2.5178    -0.2891    -6.6141 C.3     
  10 N10            2.6286     1.1676    -6.7615 N.4     
  11 C11            1.7670     1.8367    -5.7786 C.3     
  12 C12            2.2648     1.5254    -4.3678 C.3     
  13 C13            4.0232     1.5752    -6.5452 C.3     
  14 C14            2.2138     1.5538    -8.1168 C.3     
  15 H15            1.1457     1.9892    -0.0536 H       
  16 H16           -0.3637     2.1208    -0.9878 H       
  17 H17           -0.4142     2.1341     0.7914 H       
  18 H18           -0.5826    -0.2712     0.7246 H       
  19 H19            0.8510    -2.4493    -3.5149 H       
  20 H20            2.6303    -2.4687    -3.5631 H       
  21 H21            1.7832    -2.3801    -2.0001 H       
  22 H22            1.3236     1.2377    -2.1428 H       
  23 H23            0.3997    -1.5791    -1.0469 H       
  24 H24            4.1255    -0.4930    -5.1886 H       
  25 H25            2.8847    -1.7703    -5.0876 H       
  26 H26            3.0976    -0.7788    -7.3964 H       
  27 H27            1.4719    -0.5844    -6.6979 H       
  28 H28            1.7936     2.9135    -5.9453 H       
  29 H29            0.7438     1.4771    -5.8877 H       
  30 H30            1.5699     1.9361    -3.6353 H       
  31 H31            3.2534     1.9613    -4.2237 H       
  32 H32            4.6629     1.0853    -7.2794 H       
  33 H33            4.1069     2.6565    -6.6544 H       
  34 H34            4.3348     1.2862    -5.5415 H       
  35 H35            1.1804     1.2488    -8.2812 H       
  36 H36            2.2956     2.6350    -8.2275 H       
  37 H37            2.8578     1.0640    -8.8472 H       
@<TRIPOS>BOND
   1    1    2 1
   2    1   15 1
   3    1   16 1
   4    1   17 1
   5    2    6 2
   6    2   18 1
   7    3    4 1
   8    3   19 1
   9    3   20 1
  10    3   21 1
  11    4    5 2
  12    4    7 1
  13    5    6 1
  14    5   22 1
  15    6   23 1
  16    7    8 1
  17    7   12 1
  18    8    9 1
  19    8   24 1
  20    8   25 1
  21    9   10 1
  22    9   26 1
  23    9   27 1
  24   10   11 1
  25   10   13 1
  26   10   14 1
  27   11   12 1
  28   11   28 1
  29   11   29 1
  30   12   30 1
  31   12   31 1
  32   13   32 1
  33   13   33 1
  34   13   34 1
  35   14   35 1
  36   14   36 1
  37   14   37 1

#	End of record

