#	Name: ASD05740234
#	Creating user name:	WinNT
#	Creation time:	15. 06. 2019 21:03

#	Modifying user name:	WinNT
#	Modification time:	15. 06. 2019 21:03

#	Program:	/corina/corina34_cracker 3.40 0067  02.08.2006

@<TRIPOS>MOLECULE
ASD05740234
  62   66    0    0    0
SMALL
NO_CHARGES


@<TRIPOS>ATOM
   1 C1             0.9531    -0.8272    -0.0439 C.3     
   2 N2             0.0371    -0.1445     0.8805 N.3     
   3 C3            -1.2685    -0.6286     0.7416 C.ar    
   4 C4            -2.2886    -0.1107     1.5289 C.ar    
   5 C5            -3.5768    -0.5884     1.3918 C.ar    
   6 C6            -3.8523    -1.5871     0.4671 C.ar    
   7 C7            -2.8322    -2.1053    -0.3199 C.ar    
   8 C8            -1.5452    -1.6230    -0.1876 C.ar    
   9 N9            -5.1590    -2.0720     0.3283 N.pl3   
  10 C10           -6.2334    -1.2225     0.5064 C.ar    
  11 N11           -6.0003     0.0714     0.6975 N.ar    
  12 N12           -7.4577    -1.7281     0.4747 N.ar    
  13 C13           -8.5129    -0.9414     0.6420 C.ar    
  14 C14           -8.3033     0.4392     0.8533 C.ar    
  15 C15           -6.9916     0.9266     0.8729 C.ar    
  16 N16           -9.7918    -1.4348     0.6140 N.am    
  17 C17          -10.8502    -0.6228     0.7846 C.2     
  18 C18          -10.6974     0.7621     0.9983 C.2     
  19 C19           -9.4567     1.3145     1.0386 C.2     
  20 C20          -10.0085    -2.8670     0.3948 C.3     
  21 O21          -11.9724    -1.0973     0.7530 O.2     
  22 C22          -10.0274    -3.5812     1.7217 C.ar    
  23 C23          -11.2244    -3.7423     2.4079 C.ar    
  24 C24            0.5017    -0.2736     2.2688 C.3     
  25 C25            1.8991     0.3378     2.3951 C.3     
  26 N26            2.8150    -0.3448     1.4707 N.3     
  27 C27            2.3504    -0.2158     0.0825 C.3     
  28 C28          -11.2374    -4.4016     3.6317 C.ar    
  29 C29          -10.0618    -4.8945     4.1621 C.ar    
  30 C30           -8.8709    -4.7334     3.4779 C.ar    
  31 C31           -8.8538    -4.0822     2.2555 C.ar    
  32 S32          -12.7231    -3.1118     1.7290 S.3     
  33 F33           -7.6887    -3.9268     1.5894 F       
  34 C34            4.1856     0.1634     1.6165 C.3     
  35 C35          -13.9597    -3.5688     2.9750 C.3     
  36 H36            0.9963    -1.8877     0.2040 H       
  37 H37            0.5945    -0.7067    -1.0662 H       
  38 H38           -2.0742     0.6654     2.2487 H       
  39 H39           -4.3701    -0.1857     2.0041 H       
  40 H40           -3.0463    -2.8825    -1.0386 H       
  41 H41           -0.7519    -2.0260    -0.7996 H       
  42 H42           -5.3094    -3.0044     0.1073 H       
  43 H43           -6.7944     1.9765     1.0322 H       
  44 H44          -11.5691     1.3857     1.1312 H       
  45 H45           -9.3272     2.3742     1.2016 H       
  46 H46          -10.9618    -3.0168    -0.1121 H       
  47 H47           -9.2028    -3.2663    -0.2213 H       
  48 H48           -0.1859     0.2505     2.9326 H       
  49 H49            0.5398    -1.3278     2.5430 H       
  50 H50            1.8558     1.3984     2.1472 H       
  51 H51            2.2576     0.2174     3.4174 H       
  52 H52            3.0381    -0.7399    -0.5813 H       
  53 H53            2.3123     0.8385    -0.1917 H       
  54 H54          -12.1666    -4.5279     4.1675 H       
  55 H55          -10.0722    -5.4064     5.1130 H       
  56 H56           -7.9529    -5.1201     3.8953 H       
  57 H57            4.5291    -0.0055     2.6371 H       
  58 H58            4.8426    -0.3587     0.9209 H       
  59 H59            4.2021     1.2315     1.3997 H       
  60 H60          -13.9755    -4.6525     3.0907 H       
  61 H61          -13.7038    -3.1054     3.9278 H       
  62 H62          -14.9427    -3.2232     2.6552 H       
@<TRIPOS>BOND
   1    1    2 1
   2    1   27 1
   3    1   36 1
   4    1   37 1
   5    2    3 1
   6    2   24 1
   7    3    4 ar
   8    3    8 ar
   9    4    5 ar
  10    4   38 1
  11    5    6 ar
  12    5   39 1
  13    6    7 ar
  14    6    9 1
  15    7    8 ar
  16    7   40 1
  17    8   41 1
  18    9   10 1
  19    9   42 1
  20   10   11 ar
  21   10   12 ar
  22   11   15 ar
  23   12   13 ar
  24   13   14 ar
  25   13   16 1
  26   14   15 ar
  27   14   19 1
  28   15   43 1
  29   16   17 am
  30   16   20 1
  31   17   18 1
  32   17   21 2
  33   18   19 2
  34   18   44 1
  35   19   45 1
  36   20   22 1
  37   20   46 1
  38   20   47 1
  39   22   23 ar
  40   22   31 ar
  41   23   28 ar
  42   23   32 1
  43   24   25 1
  44   24   48 1
  45   24   49 1
  46   25   26 1
  47   25   50 1
  48   25   51 1
  49   26   27 1
  50   26   34 1
  51   27   52 1
  52   27   53 1
  53   28   29 ar
  54   28   54 1
  55   29   30 ar
  56   29   55 1
  57   30   31 ar
  58   30   56 1
  59   31   33 1
  60   32   35 1
  61   34   57 1
  62   34   58 1
  63   34   59 1
  64   35   60 1
  65   35   61 1
  66   35   62 1

#	End of record

