#	Name: ASD01882461
#	Creating user name:	WinNT
#	Creation time:	15. 06. 2019 19:44

#	Modifying user name:	WinNT
#	Modification time:	15. 06. 2019 19:44

#	Program:	/corina/corina34_cracker 3.40 0067  02.08.2006

@<TRIPOS>MOLECULE
ASD01882461
  61   65    0    0    0
SMALL
NO_CHARGES


@<TRIPOS>ATOM
   1 C1            -0.0036     1.4595     0.1789 C.2     
   2 C2             0.0170    -0.0042     0.1798 C.2     
   3 C3             1.2465    -0.6462    -0.0133 C.2     
   4 C4             2.4044     0.1333    -0.1991 C.2     
   5 C5             2.3458     1.4783    -0.1932 C.2     
   6 N6             1.1712     2.1454    -0.0093 N.pl3   
   7 N7            -0.4516     3.5390     0.2411 N.2     
   8 N8            -0.9570     2.3582     0.3221 N.2     
   9 C9             0.8372     3.4679     0.0395 C.2     
  10 C10           -1.1853    -0.7578     0.3730 C.1     
  11 N11           -2.1391    -1.3556     0.5262 N.1     
  12 C12            1.7815     4.6324    -0.1134 C.3     
  13 N13            1.8720     5.0066    -1.5310 N.3     
  14 C14            2.5905     6.2767    -1.6952 C.3     
  15 C15            2.5393     6.7073    -3.1629 C.3     
  16 C16            3.1801     5.6209    -4.0311 C.3     
  17 C17            2.4438     4.2976    -3.8050 C.3     
  18 C18            2.4978     3.9368    -2.3187 C.3     
  19 C19            3.0774     6.0178    -5.5051 C.3     
  20 F20            3.7443     7.2306    -5.7091 F       
  21 F21            3.6632     5.0246    -6.2974 F       
  22 F22            1.7310     6.1611    -5.8568 F       
  23 N23            1.3225    -2.0264    -0.0210 N.pl3   
  24 C24            2.0977    -2.7391     1.0035 C.3     
  25 C25            3.0920    -3.6741     0.3078 C.3     
  26 C26            2.3356    -4.5892    -0.6578 C.3     
  27 C27            1.6398    -3.7427    -1.7262 C.3     
  28 C28            0.6245    -2.8088    -1.0503 C.3     
  29 C29            3.3063    -5.5335    -1.3189 C.ar    
  30 C30            3.1552    -6.8991    -1.1659 C.ar    
  31 C31            4.0457    -7.7652    -1.7723 C.ar    
  32 C32            5.0869    -7.2659    -2.5321 C.ar    
  33 C33            5.2375    -5.9004    -2.6859 C.ar    
  34 C34            4.3445    -5.0344    -2.0831 C.ar    
  35 H35            3.3555    -0.3561    -0.3485 H       
  36 H36            3.2542     2.0442    -0.3380 H       
  37 H37            1.4098     5.4796     0.4630 H       
  38 H38            2.7689     4.3498     0.2516 H       
  39 H39            2.1222     7.0416    -1.0757 H       
  40 H40            3.6292     6.1484    -1.3904 H       
  41 H41            1.5015     6.8491    -3.4645 H       
  42 H42            3.0860     7.6420    -3.2872 H       
  43 H43            4.2285     5.5061    -3.7560 H       
  44 H44            1.4045     4.4015    -4.1167 H       
  45 H45            2.9223     3.5107    -4.3881 H       
  46 H46            3.5369     3.8195    -2.0110 H       
  47 H47            1.9621     3.0023    -2.1521 H       
  48 H48            2.6403    -2.0200     1.6172 H       
  49 H49            1.4243    -3.3233     1.6307 H       
  50 H50            3.8206    -3.0827    -0.2467 H       
  51 H51            3.6064    -4.2789     1.0547 H       
  52 H52            1.5902    -5.1623    -0.1064 H       
  53 H53            2.3821    -3.1507    -2.2616 H       
  54 H54            1.1207    -4.3964    -2.4271 H       
  55 H55           -0.1666    -3.3985    -0.5871 H       
  56 H56            0.1948    -2.1357    -1.7921 H       
  57 H57            2.3417    -7.2892    -0.5722 H       
  58 H58            3.9280    -8.8321    -1.6521 H       
  59 H59            5.7830    -7.9426    -3.0053 H       
  60 H60            6.0512    -5.5103    -3.2793 H       
  61 H61            4.4599    -3.9676    -2.2063 H       
@<TRIPOS>BOND
   1    1    2 1
   2    1    6 1
   3    1    8 2
   4    2    3 2
   5    2   10 1
   6    3    4 1
   7    3   23 1
   8    4    5 2
   9    4   35 1
  10    5    6 1
  11    5   36 1
  12    6    9 1
  13    7    8 1
  14    7    9 2
  15    9   12 1
  16   10   11 3
  17   12   13 1
  18   12   37 1
  19   12   38 1
  20   13   14 1
  21   13   18 1
  22   14   15 1
  23   14   39 1
  24   14   40 1
  25   15   16 1
  26   15   41 1
  27   15   42 1
  28   16   17 1
  29   16   19 1
  30   16   43 1
  31   17   18 1
  32   17   44 1
  33   17   45 1
  34   18   46 1
  35   18   47 1
  36   19   20 1
  37   19   21 1
  38   19   22 1
  39   23   24 1
  40   23   28 1
  41   24   25 1
  42   24   48 1
  43   24   49 1
  44   25   26 1
  45   25   50 1
  46   25   51 1
  47   26   27 1
  48   26   29 1
  49   26   52 1
  50   27   28 1
  51   27   53 1
  52   27   54 1
  53   28   55 1
  54   28   56 1
  55   29   30 ar
  56   29   34 ar
  57   30   31 ar
  58   30   57 1
  59   31   32 ar
  60   31   58 1
  61   32   33 ar
  62   32   59 1
  63   33   34 ar
  64   33   60 1
  65   34   61 1

#	End of record

