#	Name: ASD09116131
#	Creating user name:	WinNT
#	Creation time:	15. 06. 2019 21:20

#	Modifying user name:	WinNT
#	Modification time:	15. 06. 2019 21:20

#	Program:	/corina/corina34_cracker 3.40 0067  02.08.2006

@<TRIPOS>MOLECULE
ASD09116131
  73   80    0    0    0
SMALL
NO_CHARGES


@<TRIPOS>ATOM
   1 N1            -0.0613     1.6026    -0.5383 N.2     
   2 C2            -0.0898     0.2764    -1.1801 C.3     
   3 C3             1.1888     1.9781    -0.5232 C.2     
   4 N4             2.0151     1.0676    -1.0774 N.2     
   5 C5             1.3683     0.0142    -1.5034 C.2     
   6 N6             1.6191     3.1791     0.0037 N.pl3   
   7 C7             2.9898     3.4575     0.0848 C.ar    
   8 C8             3.4398     4.7668    -0.0217 C.ar    
   9 C9             3.8977     2.4247     0.2775 C.ar    
  10 C10            5.2485     2.6990     0.3579 C.ar    
  11 C11            5.6992     4.0078     0.2457 C.ar    
  12 C12            4.7906     5.0413     0.0582 C.ar    
  13 N13            1.8928    -1.0854    -2.1083 N.pl3   
  14 C14           -0.6184    -0.7643    -0.2269 C.ar    
  15 N15           -0.1972    -0.7592     1.0220 N.ar    
  16 N16           -1.4939    -1.6504    -0.6674 N.ar    
  17 C17           -1.9714    -2.5696     0.1424 C.ar    
  18 C18           -1.5449    -2.5992     1.4663 C.ar    
  19 C19           -0.6367    -1.6581     1.8940 C.ar    
  20 C20           -2.9703    -3.7118    -0.0390 C.3     
  21 C21           -4.2246    -3.2615     0.7755 C.3     
  22 C22           -3.7487    -3.2947     2.2477 C.3     
  23 C23           -2.2604    -3.7593     2.1542 C.3     
  24 C24           -2.3590    -4.7701     0.9521 C.3     
  25 N25            7.0682     4.2860     0.3277 N.3     
  26 C26            7.3225     5.7262     0.1841 C.3     
  27 C27            7.8224     3.5186    -0.6733 C.3     
  28 C28            9.3185     3.7896    -0.4988 C.3     
  29 N29            9.5728     5.2299    -0.6424 N.3     
  30 C30            8.8186     5.9972     0.3586 C.3     
  31 C31           11.0099     5.5219    -0.5563 C.3     
  32 C32           11.7736     4.8109    -1.6969 C.3     
  33 C33           11.2712     7.0406    -0.7938 C.3     
  34 C34           10.4606     7.3794    -2.0820 C.3     
  35 C35           11.2242     6.6684    -3.2226 C.3     
  36 C36           12.4243     5.9670    -2.5161 C.3     
  37 C37           12.7297     6.9971    -1.3720 C.3     
  38 H38           -0.6893     0.3024    -2.0901 H       
  39 H39            0.9725     3.8304     0.3178 H       
  40 H40            2.7332     5.5705    -0.1675 H       
  41 H41            3.5473     1.4069     0.3647 H       
  42 H42            5.9547     1.8958     0.5084 H       
  43 H43            5.1409     6.0591    -0.0294 H       
  44 H44            2.8484    -1.1435    -2.2646 H       
  45 H45            1.3113    -1.8114    -2.3834 H       
  46 H46           -0.2858    -1.6538     2.9154 H       
  47 H47           -3.1522    -4.0345    -1.0641 H       
  48 H48           -4.5213    -2.2516     0.4927 H       
  49 H49           -5.0485    -3.9591     0.6247 H       
  50 H50           -3.8116    -2.3013     2.6920 H       
  51 H51           -4.3367    -4.0096     2.8233 H       
  52 H52           -1.8104    -4.1237     3.0777 H       
  53 H53           -3.0454    -5.5918     1.1564 H       
  54 H54           -1.3810    -5.1255     0.6277 H       
  55 H55            7.0065     6.0543    -0.8061 H       
  56 H56            6.7630     6.2718     0.9440 H       
  57 H57            7.6274     2.4547    -0.5385 H       
  58 H58            7.5121     3.8216    -1.6733 H       
  59 H59            9.6345     3.4615     0.4915 H       
  60 H60            9.8780     3.2440    -1.2587 H       
  61 H61            9.0136     7.0612     0.2238 H       
  62 H62            9.1289     5.6942     1.3586 H       
  63 H63           11.4020     5.2141     0.4131 H       
  64 H64           12.5424     4.1551    -1.2883 H       
  65 H65           11.0826     4.2447    -2.3215 H       
  66 H66           11.1000     7.6932     0.0623 H       
  67 H67            9.4450     6.9911    -2.0049 H       
  68 H68           10.4449     8.4564    -2.2489 H       
  69 H69           10.5840     5.9306    -3.7062 H       
  70 H70           11.5839     7.3959    -3.9502 H       
  71 H71           13.2573     5.6846    -3.1599 H       
  72 H72           13.0425     7.9643    -1.7655 H       
  73 H73           13.4446     6.6047    -0.6488 H       
@<TRIPOS>BOND
   1    1    2 1
   2    1    3 2
   3    2   14 1
   4    2    5 1
   5    2   38 1
   6    3    4 1
   7    3    6 1
   8    4    5 2
   9    5   13 1
  10    6    7 1
  11    6   39 1
  12    7    8 ar
  13    7    9 ar
  14    8   12 ar
  15    8   40 1
  16    9   10 ar
  17    9   41 1
  18   10   11 ar
  19   10   42 1
  20   11   12 ar
  21   11   25 1
  22   12   43 1
  23   13   44 1
  24   13   45 1
  25   14   15 ar
  26   14   16 ar
  27   15   19 ar
  28   16   17 ar
  29   17   18 ar
  30   17   20 1
  31   18   19 ar
  32   18   23 1
  33   19   46 1
  34   20   21 1
  35   20   24 1
  36   20   47 1
  37   21   22 1
  38   21   48 1
  39   21   49 1
  40   22   23 1
  41   22   50 1
  42   22   51 1
  43   23   24 1
  44   23   52 1
  45   24   53 1
  46   24   54 1
  47   25   26 1
  48   25   27 1
  49   26   30 1
  50   26   55 1
  51   26   56 1
  52   27   28 1
  53   27   57 1
  54   27   58 1
  55   28   29 1
  56   28   59 1
  57   28   60 1
  58   29   30 1
  59   29   31 1
  60   30   61 1
  61   30   62 1
  62   31   32 1
  63   31   33 1
  64   31   63 1
  65   32   36 1
  66   32   64 1
  67   32   65 1
  68   33   34 1
  69   33   37 1
  70   33   66 1
  71   34   35 1
  72   34   67 1
  73   34   68 1
  74   35   36 1
  75   35   69 1
  76   35   70 1
  77   36   37 1
  78   36   71 1
  79   37   72 1
  80   37   73 1

#	End of record

