#	Name: ASD02198237
#	Creating user name:	WinNT
#	Creation time:	15. 06. 2019 20:19

#	Modifying user name:	WinNT
#	Modification time:	15. 06. 2019 20:19

#	Program:	/corina/corina34_cracker 3.40 0067  02.08.2006

@<TRIPOS>MOLECULE
ASD02198237
  49   51    0    0    0
SMALL
NO_CHARGES


@<TRIPOS>ATOM
   1 C1             0.0302     1.2829     0.1461 C.2     
   2 C2             0.0643    -0.0945     0.0905 C.2     
   3 C3            -1.1163    -0.9049     0.0851 C.1     
   4 S4             1.6072     1.9309     0.1361 S.3     
   5 C5             2.3339     0.3340     0.0561 C.2     
   6 C6             1.3512    -0.6266     0.0402 C.2     
   7 C7             3.7180     0.0762     0.0141 C.2     
   8 C8             4.6748     1.1957    -0.1131 C.ar    
   9 O9             4.1270    -1.0707     0.0826 O.2     
  10 N10            1.6135    -1.9866    -0.0191 N.pl3   
  11 N11           -1.1212     2.0333     0.1967 N.pl3   
  12 N12           -2.0528    -1.5479     0.0807 N.1     
  13 C13           -1.0410     3.4950     0.2536 C.3     
  14 C14           -2.4531     4.0817     0.3024 C.3     
  15 C15            5.9574     1.0854     0.4288 C.ar    
  16 C16            6.8463     2.1307     0.3085 C.ar    
  17 C17            6.4681     3.2944    -0.3509 C.ar    
  18 C18            5.1926     3.4078    -0.8914 C.ar    
  19 C19            4.3004     2.3643    -0.7803 C.ar    
  20 O20            7.3464     4.3227    -0.4668 O.3     
  21 C21            7.3418     5.2776     0.5000 C.ar    
  22 C22            6.5156     5.1423     1.6066 C.ar    
  23 C23            8.1676     6.3868     0.3852 C.ar    
  24 C24            8.1610     7.3560     1.3695 C.ar    
  25 C25            7.3326     7.2216     2.4683 C.ar    
  26 C26            6.5129     6.1145     2.5879 C.ar    
  27 C27           -3.1346     3.6627     1.6066 C.3     
  28 C28           -2.3737     5.6082     0.2360 C.3     
  29 H29            2.5299    -2.3028    -0.0519 H       
  30 H30            0.8806    -2.6220    -0.0278 H       
  31 H31           -1.9864     1.5947     0.1949 H       
  32 H32           -0.4921     3.7943     1.1464 H       
  33 H33           -0.5241     3.8652    -0.6318 H       
  34 H34           -3.0302     3.7107    -0.5446 H       
  35 H35            6.2517     0.1818     0.9419 H       
  36 H36            7.8382     2.0461     0.7272 H       
  37 H37            4.9022     4.3135    -1.4030 H       
  38 H38            3.3096     2.4529    -1.2009 H       
  39 H39            5.8750     4.2779     1.7003 H       
  40 H40            8.8151     6.4921    -0.4727 H       
  41 H41            8.8038     8.2194     1.2808 H       
  42 H42            7.3290     7.9806     3.2367 H       
  43 H43            5.8665     6.0121     3.4470 H       
  44 H44           -3.1912     2.5752     1.6539 H       
  45 H45           -2.5575     4.0337     2.4536 H       
  46 H46           -4.1407     4.0807     1.6414 H       
  47 H47           -1.8882     5.9067    -0.6931 H       
  48 H48           -3.3798     6.0262     0.2708 H       
  49 H49           -1.7966     5.9792     1.0830 H       
@<TRIPOS>BOND
   1    1    2 2
   2    1    4 1
   3    1   11 1
   4    2    3 1
   5    2    6 1
   6    3   12 3
   7    4    5 1
   8    5    6 2
   9    5    7 1
  10    6   10 1
  11    7    8 1
  12    7    9 2
  13    8   15 ar
  14    8   19 ar
  15   10   29 1
  16   10   30 1
  17   11   13 1
  18   11   31 1
  19   13   14 1
  20   13   32 1
  21   13   33 1
  22   14   27 1
  23   14   28 1
  24   14   34 1
  25   15   16 ar
  26   15   35 1
  27   16   17 ar
  28   16   36 1
  29   17   18 ar
  30   17   20 1
  31   18   19 ar
  32   18   37 1
  33   19   38 1
  34   20   21 1
  35   21   22 ar
  36   21   23 ar
  37   22   26 ar
  38   22   39 1
  39   23   24 ar
  40   23   40 1
  41   24   25 ar
  42   24   41 1
  43   25   26 ar
  44   25   42 1
  45   26   43 1
  46   27   44 1
  47   27   45 1
  48   27   46 1
  49   28   47 1
  50   28   48 1
  51   28   49 1

#	End of record

