#	Name: ASD03091462
#	Creating user name:	WinNT
#	Creation time:	15. 06. 2019 20:30

#	Modifying user name:	WinNT
#	Modification time:	15. 06. 2019 20:30

#	Program:	/corina/corina34_cracker 3.40 0067  02.08.2006

@<TRIPOS>MOLECULE
ASD03091462
  36   38    0    0    0
SMALL
NO_CHARGES


@<TRIPOS>ATOM
   1 C1             0.0318     1.6061    -0.0243 C.3     
   2 C2             0.1725     0.0831    -0.1020 C.3     
   3 N3             1.5971    -0.2731    -0.1443 N.3     
   4 C4             2.2869     0.1631     1.0777 C.3     
   5 C5             2.2060     1.6881     1.1893 C.3     
   6 C6             1.4318     2.2328    -0.0178 C.3     
   7 O7             3.4748     2.0612     3.4561 O.2     
   8 C8             2.2710     2.2155     3.5161 C.2     
   9 O9             1.5152     2.0504     2.4140 O.3     
  10 C10            2.1742     3.5641     6.8256 C.ar    
  11 C11            2.4603     2.6136     5.8546 C.ar    
  12 N12            1.6922     2.5521     4.6858 N.am    
  13 C13            2.9338     3.6229     7.9776 C.ar    
  14 C14            3.9791     2.7359     8.1645 C.ar    
  15 C15            4.2663     1.7878     7.1986 C.ar    
  16 C16            3.5099     1.7246     6.0448 C.ar    
  17 C17            2.1626     1.8109    -1.2987 C.3     
  18 C18            2.2449     0.2824    -1.3405 C.3     
  19 Br19           5.0173     2.8198     9.7427 Br      
  20 H20           -0.5255     1.9660    -0.8891 H       
  21 H21           -0.4944     1.8780     0.8907 H       
  22 H22           -0.2897    -0.3700     0.7750 H       
  23 H23           -0.3205    -0.2821    -1.0029 H       
  24 H24            1.8099    -0.2909     1.9463 H       
  25 H25            3.3320    -0.1435     1.0346 H       
  26 H26            3.2120     2.1076     1.1974 H       
  27 H27            1.3562     3.3184     0.0442 H       
  28 H28            1.3612     4.2596     6.6782 H       
  29 H29            0.7435     2.7516     4.7179 H       
  30 H30            2.7120     4.3622     8.7330 H       
  31 H31            5.0828     1.0966     7.3470 H       
  32 H32            3.7343     0.9842     5.2912 H       
  33 H33            1.6129     2.1709    -2.1683 H       
  34 H34            3.1684     2.2309    -1.3005 H       
  35 H35            3.2904    -0.0250    -1.3639 H       
  36 H36            1.7375    -0.0849    -2.2326 H       
@<TRIPOS>BOND
   1    1    2 1
   2    1    6 1
   3    1   20 1
   4    1   21 1
   5    2    3 1
   6    2   22 1
   7    2   23 1
   8    3    4 1
   9    3   18 1
  10    4    5 1
  11    4   24 1
  12    4   25 1
  13    5    6 1
  14    5    9 1
  15    5   26 1
  16    6   17 1
  17    6   27 1
  18    7    8 2
  19    8    9 1
  20    8   12 am
  21   10   11 ar
  22   10   13 ar
  23   10   28 1
  24   11   12 1
  25   11   16 ar
  26   12   29 1
  27   13   14 ar
  28   13   30 1
  29   14   15 ar
  30   14   19 1
  31   15   16 ar
  32   15   31 1
  33   16   32 1
  34   17   18 1
  35   17   33 1
  36   17   34 1
  37   18   35 1
  38   18   36 1

#	End of record

