#	Name: ASD02500247
#	Creating user name:	WinNT
#	Creation time:	15. 06. 2019 20:22

#	Modifying user name:	WinNT
#	Modification time:	15. 06. 2019 20:22

#	Program:	/corina/corina34_cracker 3.40 0067  02.08.2006

@<TRIPOS>MOLECULE
ASD02500247
  66   70    0    0    0
SMALL
NO_CHARGES


@<TRIPOS>ATOM
   1 N1            -7.6876     3.1644    -2.1650 N.ar    
   2 C2            -8.9518     3.3996    -2.4191 C.ar    
   3 C3            -9.9720     2.7563    -1.7212 C.ar    
   4 C4            -9.6649     1.8535    -0.7436 C.ar    
   5 C5            -8.3061     1.6031    -0.4738 C.ar    
   6 C6            -7.9137     0.6889     0.5168 C.ar    
   7 C7            -6.5890     0.4746     0.7480 C.ar    
   8 C8            -5.6168     1.1513     0.0147 C.ar    
   9 C9            -5.9617     2.0442    -0.9529 C.ar    
  10 C10           -7.3189     2.2925    -1.2210 C.ar    
  11 S11           -4.7115     2.8866    -1.8651 S.o2    
  12 O12           -5.0871     4.2568    -1.8896 O.2     
  13 O13           -3.4662     2.4311    -1.3542 O.2     
  14 N14           -4.7999     2.3495    -3.4291 N.am    
  15 C15           -4.5796     1.0069    -3.7167 C.ar    
  16 C16           -5.4506     0.3274    -4.5598 C.ar    
  17 C17           -5.2312    -1.0082    -4.8463 C.ar    
  18 C18           -4.1277    -1.6678    -4.2816 C.ar    
  19 C19           -3.2604    -0.9700    -3.4350 C.ar    
  20 C20           -3.4830     0.3492    -3.1630 C.ar    
  21 C21           -3.8849    -3.0890    -4.5793 C.2     
  22 O22           -4.7619    -3.9094    -4.3858 O.2     
  23 N23           -2.6909    -3.4811    -5.0661 N.am    
  24 C24           -2.4695    -4.8768    -5.4698 C.3     
  25 C25           -1.9819    -4.8949    -6.9238 C.3     
  26 N26           -0.8781    -3.9344    -7.0610 N.am    
  27 C27           -1.0995    -2.5387    -6.6572 C.3     
  28 C28           -1.5888    -2.5193    -5.2085 C.3     
  29 C29            0.3159    -4.3265    -7.5478 C.2     
  30 C30            1.3787    -3.3281    -7.7917 C.ar    
  31 C31            1.1070    -2.1619    -8.5174 C.ar    
  32 C32            2.1363    -1.2593    -8.7174 C.ar    
  33 C33            3.3891    -1.5350    -8.1989 C.ar    
  34 N34            3.6161    -2.6427    -7.5192 N.ar    
  35 C35            2.6679    -3.5294    -7.2975 C.ar    
  36 O36            0.5190    -5.5009    -7.7864 O.2     
  37 C37            2.9797    -4.7752    -6.5090 C.3     
  38 F38            2.9851    -5.8806    -7.3665 F       
  39 F39            4.2364    -4.6447    -5.9085 F       
  40 F40            2.0069    -4.9569    -5.5201 F       
  41 O41           -6.0780    -1.6773    -5.6683 O.3     
  42 C42           -7.1786    -0.9405    -6.2048 C.3     
  43 H43           -9.2096     4.1111    -3.1896 H       
  44 H44          -11.0046     2.9718    -1.9530 H       
  45 H45          -10.4429     1.3460    -0.1925 H       
  46 H46           -8.6582     0.1589     1.0923 H       
  47 H47           -6.2881    -0.2288     1.5103 H       
  48 H48           -4.5726     0.9644     0.2174 H       
  49 H49           -5.0054     2.9714    -4.1446 H       
  50 H50           -6.2975     0.8409    -4.9904 H       
  51 H51           -2.4108    -1.4744    -2.9991 H       
  52 H52           -2.8078     0.8848    -2.5122 H       
  53 H53           -1.7155    -5.3288    -4.8254 H       
  54 H54           -3.4035    -5.4332    -5.3902 H       
  55 H55           -1.6307    -5.8946    -7.1795 H       
  56 H56           -2.7988    -4.6107    -7.5872 H       
  57 H57           -0.1655    -1.9823    -6.7368 H       
  58 H58           -1.8535    -2.0867    -7.3016 H       
  59 H59           -1.9413    -1.5192    -4.9563 H       
  60 H60           -0.7707    -2.7997    -4.5451 H       
  61 H61            0.1195    -1.9720    -8.9113 H       
  62 H62            1.9638    -0.3491    -9.2726 H       
  63 H63            4.1944    -0.8322    -8.3535 H       
  64 H64           -7.7752    -1.5920    -6.8435 H       
  65 H65           -7.7971    -0.5658    -5.3893 H       
  66 H66           -6.8031    -0.1018    -6.7910 H       
@<TRIPOS>BOND
   1    1    2 ar
   2    1   10 ar
   3    2    3 ar
   4    2   43 1
   5    3    4 ar
   6    3   44 1
   7    4    5 ar
   8    4   45 1
   9    5    6 ar
  10    5   10 ar
  11    6    7 ar
  12    6   46 1
  13    7    8 ar
  14    7   47 1
  15    8    9 ar
  16    8   48 1
  17    9   10 ar
  18    9   11 1
  19   11   12 2
  20   11   13 2
  21   11   14 am
  22   14   15 1
  23   14   49 1
  24   15   16 ar
  25   15   20 ar
  26   16   17 ar
  27   16   50 1
  28   17   18 ar
  29   17   41 1
  30   18   19 ar
  31   18   21 1
  32   19   20 ar
  33   19   51 1
  34   20   52 1
  35   21   22 2
  36   21   23 am
  37   23   24 1
  38   23   28 1
  39   24   25 1
  40   24   53 1
  41   24   54 1
  42   25   26 1
  43   25   55 1
  44   25   56 1
  45   26   27 1
  46   26   29 am
  47   27   28 1
  48   27   57 1
  49   27   58 1
  50   28   59 1
  51   28   60 1
  52   29   30 1
  53   29   36 2
  54   30   31 ar
  55   30   35 ar
  56   31   32 ar
  57   31   61 1
  58   32   33 ar
  59   32   62 1
  60   33   34 ar
  61   33   63 1
  62   34   35 ar
  63   35   37 1
  64   37   38 1
  65   37   39 1
  66   37   40 1
  67   41   42 1
  68   42   64 1
  69   42   65 1
  70   42   66 1

#	End of record

