#	Name: ASD04590783
#	Creating user name:	WinNT
#	Creation time:	15. 06. 2019 20:51

#	Modifying user name:	WinNT
#	Modification time:	15. 06. 2019 20:51

#	Program:	/corina/corina34_cracker 3.40 0067  02.08.2006

@<TRIPOS>MOLECULE
ASD04590783
  49   53    0    0    0
SMALL
NO_CHARGES


@<TRIPOS>ATOM
   1 N1            -0.0171     1.3231    -0.0119 N.ar    
   2 C2             0.0017    -0.0035    -0.0051 C.ar    
   3 N3             1.1297    -0.6949    -0.0122 N.ar    
   4 C4             2.3049    -0.0729    -0.0266 C.ar    
   5 C5             2.3189     1.3365    -0.0341 C.ar    
   6 C6             1.1072     2.0202    -0.0262 C.ar    
   7 N7             3.6030    -0.5196    -0.0370 N.pl3   
   8 C8             4.4822     0.5494    -0.0512 C.ar    
   9 C9             3.7312     1.7384    -0.0500 C.ar    
  10 C10            5.8680     0.6416    -0.0662 C.ar    
  11 N11            6.4612     1.8178    -0.0785 N.ar    
  12 C12            5.7850     2.9530    -0.0778 C.ar    
  13 C13            4.4064     2.9583    -0.0634 C.ar    
  14 C14            4.0016    -1.9293    -0.0328 C.3     
  15 N15           -1.2023    -0.6889     0.0103 N.pl3   
  16 C16           -2.3999     0.0104     0.1310 C.ar    
  17 N17           -2.3780     1.3188     0.3317 N.ar    
  18 C18           -3.4900     2.0191     0.4517 C.ar    
  19 C19           -4.7245     1.4066     0.3713 C.ar    
  20 C20           -4.7911     0.0355     0.1615 C.ar    
  21 C21           -3.6087    -0.6709     0.0341 C.ar    
  22 C22           -5.9871     2.2176     0.5104 C.3     
  23 C23           -6.4238     2.7041    -0.8474 C.2     
  24 O24           -7.5321     3.4516    -0.9680 O.3     
  25 C25            3.4009    -2.6447     1.1949 C.3     
  26 C26            3.4375    -2.6403    -1.2754 C.3     
  27 C27            2.5137    -3.7629    -0.7594 C.3     
  28 C28            2.1012    -3.2940     0.6580 C.3     
  29 O29           -5.7762     2.4213    -1.8275 O.2     
  30 H30            1.0848     3.0999    -0.0316 H       
  31 H31            6.4644    -0.2588    -0.0674 H       
  32 H32            6.3204     3.8910    -0.0883 H       
  33 H33            3.8597     3.8897    -0.0630 H       
  34 H34            5.0885    -2.0097    -0.0180 H       
  35 H35           -1.2107    -1.6561    -0.0630 H       
  36 H36           -3.4334     3.0852     0.6151 H       
  37 H37           -5.7446    -0.4672     0.0949 H       
  38 H38           -3.6237    -1.7383    -0.1299 H       
  39 H39           -6.7715     1.5972     0.9437 H       
  40 H40           -5.7999     3.0728     1.1599 H       
  41 H41           -7.7722     3.7402    -1.8592 H       
  42 H42            4.0850    -3.4090     1.5636 H       
  43 H43            3.1715    -1.9254     1.9811 H       
  44 H44            2.8671    -1.9365    -1.8816 H       
  45 H45            4.2506    -3.0664    -1.8631 H       
  46 H46            1.6367    -3.8596    -1.3995 H       
  47 H47            3.0545    -4.7078    -0.7063 H       
  48 H48            1.8097    -4.1430     1.2762 H       
  49 H49            1.2969    -2.5603     0.6033 H       
@<TRIPOS>BOND
   1    1    2 ar
   2    1    6 ar
   3    2    3 ar
   4    2   15 1
   5    3    4 ar
   6    4    5 ar
   7    4    7 1
   8    5    6 ar
   9    5    9 1
  10    6   30 1
  11    7    8 1
  12    7   14 1
  13    8    9 ar
  14    8   10 ar
  15    9   13 ar
  16   10   11 ar
  17   10   31 1
  18   11   12 ar
  19   12   13 ar
  20   12   32 1
  21   13   33 1
  22   14   26 1
  23   14   25 1
  24   14   34 1
  25   15   16 1
  26   15   35 1
  27   16   17 ar
  28   16   21 ar
  29   17   18 ar
  30   18   19 ar
  31   18   36 1
  32   19   20 ar
  33   19   22 1
  34   20   21 ar
  35   20   37 1
  36   21   38 1
  37   22   23 1
  38   22   39 1
  39   22   40 1
  40   23   24 1
  41   23   29 2
  42   24   41 1
  43   25   28 1
  44   25   42 1
  45   25   43 1
  46   26   27 1
  47   26   44 1
  48   26   45 1
  49   27   28 1
  50   27   46 1
  51   27   47 1
  52   28   48 1
  53   28   49 1

#	End of record

