#	Name: ASD05430621
#	Creating user name:	WinNT
#	Creation time:	15. 06. 2019 21:00

#	Modifying user name:	WinNT
#	Modification time:	15. 06. 2019 21:00

#	Program:	/corina/corina34_cracker 3.40 0067  02.08.2006

@<TRIPOS>MOLECULE
ASD05430621
  35   37    0    0    0
SMALL
NO_CHARGES


@<TRIPOS>ATOM
   1 C1            -0.0167     1.3834     0.0096 C.ar    
   2 C2             0.0021    -0.0041     0.0020 C.ar    
   3 C3            -1.1905    -0.7143     0.0089 C.ar    
   4 C4            -2.3917    -0.0333     0.0234 C.ar    
   5 C5            -2.4084     1.3472     0.0305 C.ar    
   6 C6            -1.2193     2.0662     0.0167 C.ar    
   7 C7            -3.7255     2.0794     0.0458 C.3     
   8 C8            -4.5327     1.7031    -1.1984 C.3     
   9 C9            -4.5107     1.6905     1.3000 C.3     
  10 N10            1.2258    -0.6887    -0.0131 N.pl3   
  11 C11            2.2656    -0.4654    -0.8581 C.2     
  12 C12            1.6011    -1.7059     0.8260 C.2     
  13 C13            2.8461    -2.0702     0.4648 C.2     
  14 N14            3.2266    -1.2980    -0.5638 N.2     
  15 C15            3.6710    -3.1551     1.1079 C.3     
  16 C16           -0.5956     3.4463     0.0145 C.3     
  17 C17            0.7336     2.6909     0.0095 C.3     
  18 H18           -1.1790    -1.7942     0.0026 H       
  19 H19           -3.3215    -0.5826     0.0288 H       
  20 H20           -3.5437     3.1541     0.0496 H       
  21 H21           -4.7145     0.6284    -1.2022 H       
  22 H22           -5.4853     2.2328    -1.1873 H       
  23 H23           -3.9733     1.9802    -2.0919 H       
  24 H24           -3.9357     1.9586     2.1863 H       
  25 H25           -5.4633     2.2201     1.3110 H       
  26 H26           -4.6925     0.6158     1.2962 H       
  27 H27            2.2924     0.2765    -1.6426 H       
  28 H28            1.0115    -2.1327     1.6239 H       
  29 H29            3.4783    -4.1036     0.6065 H       
  30 H30            4.7288    -2.9067     1.0215 H       
  31 H31            3.4025    -3.2397     2.1609 H       
  32 H32           -0.7945     4.0211    -0.8900 H       
  33 H33           -0.7680     4.0120     0.9301 H       
  34 H34            1.3256     2.8456     0.9115 H       
  35 H35            1.3091     2.8549    -0.9015 H       
@<TRIPOS>BOND
   1    1    2 ar
   2    1   17 1
   3    1    6 ar
   4    2    3 ar
   5    2   10 1
   6    3    4 ar
   7    3   18 1
   8    4    5 ar
   9    4   19 1
  10    5    6 ar
  11    5    7 1
  12    6   16 1
  13    7    8 1
  14    7    9 1
  15    7   20 1
  16    8   21 1
  17    8   22 1
  18    8   23 1
  19    9   24 1
  20    9   25 1
  21    9   26 1
  22   10   11 1
  23   10   12 1
  24   11   14 2
  25   11   27 1
  26   12   13 2
  27   12   28 1
  28   13   14 1
  29   13   15 1
  30   15   29 1
  31   15   30 1
  32   15   31 1
  33   16   17 1
  34   16   32 1
  35   16   33 1
  36   17   34 1
  37   17   35 1

#	End of record

