#	Name: ASD01911594
#	Creating user name:	WinNT
#	Creation time:	15. 06. 2019 19:58

#	Modifying user name:	WinNT
#	Modification time:	15. 06. 2019 19:58

#	Program:	/corina/corina34_cracker 3.40 0067  02.08.2006

@<TRIPOS>MOLECULE
ASD01911594
  35   37    0    0    0
SMALL
NO_CHARGES


@<TRIPOS>ATOM
   1 N1            -0.0164     1.2763    -0.4184 N.am    
   2 C2             0.0021    -0.0041     0.0020 C.2     
   3 C3            -1.2506    -0.7543     0.1205 C.2     
   4 C4            -1.3861    -2.1134     0.0310 C.2     
   5 S5            -2.8470    -0.0658     0.4110 S.3     
   6 C6            -3.5481    -1.6812     0.3766 C.2     
   7 N7            -2.6014    -2.5625     0.1688 N.2     
   8 C8            -4.9363    -1.9844     0.5538 C.1     
   9 C9            -6.0745    -2.2331     0.6990 C.1     
  10 C10           -7.4627    -2.5364     0.8762 C.ar    
  11 C11           -7.9037    -3.8626     0.8283 C.ar    
  12 C12           -9.2416    -4.1472     1.0001 C.ar    
  13 C13          -10.1484    -3.1232     1.2194 C.ar    
  14 C14           -9.7186    -1.8071     1.2681 C.ar    
  15 C15           -8.3829    -1.5082     1.1036 C.ar    
  16 O16            1.0596    -0.5371     0.2833 O.2     
  17 C17           -1.2623     1.9004    -0.8912 C.3     
  18 Cl18         -11.8314    -3.4908     1.4336 Cl      
  19 C19            1.2075     2.0933    -0.4125 C.3     
  20 C20            1.3647     2.7387    -1.7940 C.3     
  21 O21            0.1525     3.4136    -2.1389 O.3     
  22 C22           -0.9898     2.5549    -2.2504 C.3     
  23 H23           -0.5445    -2.7678    -0.1420 H       
  24 H24           -7.1979    -4.6618     0.6567 H       
  25 H25           -9.5836    -5.1710     0.9634 H       
  26 H26          -10.4311    -1.0137     1.4390 H       
  27 H27           -8.0492    -0.4818     1.1418 H       
  28 H28           -2.0361     1.1402    -0.9983 H       
  29 H29           -1.5873     2.6577    -0.1777 H       
  30 H30            1.1269     2.8696     0.3484 H       
  31 H31            2.0700     1.4608    -0.2025 H       
  32 H32            2.1859     3.4549    -1.7700 H       
  33 H33            1.5751     1.9671    -2.5346 H       
  34 H34           -0.7916     1.7796    -2.9906 H       
  35 H35           -1.8565     3.1399    -2.5579 H       
@<TRIPOS>BOND
   1    1    2 am
   2    1   19 1
   3    1   17 1
   4    2    3 1
   5    2   16 2
   6    3    4 2
   7    3    5 1
   8    4    7 1
   9    4   23 1
  10    5    6 1
  11    6    7 2
  12    6    8 1
  13    8    9 3
  14    9   10 1
  15   10   11 ar
  16   10   15 ar
  17   11   12 ar
  18   11   24 1
  19   12   13 ar
  20   12   25 1
  21   13   14 ar
  22   13   18 1
  23   14   15 ar
  24   14   26 1
  25   15   27 1
  26   17   22 1
  27   17   28 1
  28   17   29 1
  29   19   20 1
  30   19   30 1
  31   19   31 1
  32   20   21 1
  33   20   32 1
  34   20   33 1
  35   21   22 1
  36   22   34 1
  37   22   35 1

#	End of record

