#	Name: ASD03092243
#	Creating user name:	WinNT
#	Creation time:	15. 06. 2019 20:32

#	Modifying user name:	WinNT
#	Modification time:	15. 06. 2019 20:32

#	Program:	/corina/corina34_cracker 3.40 0067  02.08.2006

@<TRIPOS>MOLECULE
ASD03092243
  62   65    0    0    0
SMALL
NO_CHARGES


@<TRIPOS>ATOM
   1 C1            -0.0173     1.4248     0.0099 C.3     
   2 O2             0.0021    -0.0041     0.0020 O.3     
   3 C3            -1.2011    -0.6379     0.0101 C.ar    
   4 C4            -2.3739     0.0992     0.0195 C.ar    
   5 C5            -3.5965    -0.5469     0.0272 C.ar    
   6 C6            -3.6519    -1.9279     0.0261 C.ar    
   7 C7            -4.9869    -2.6268     0.0350 C.3     
   8 C8            -5.4493    -2.8618    -1.4044 C.3     
   9 C9            -6.8047    -3.5714    -1.3953 C.3     
  10 N10           -7.2474    -3.7963    -2.7736 N.am    
  11 C11           -8.4231    -4.4106    -3.0120 C.2     
  12 O12           -9.1161    -4.7780    -2.0835 O.2     
  13 C13           -8.8699    -4.6377    -4.4032 C.ar    
  14 C14          -10.0882    -5.2678    -4.6510 C.ar    
  15 C15          -10.5048    -5.4794    -5.9618 C.ar    
  16 C16           -9.7038    -5.0615    -7.0226 C.ar    
  17 C17           -8.4913    -4.4349    -6.7742 C.ar    
  18 C18           -8.0751    -4.2163    -5.4702 C.ar    
  19 N19           -7.6873    -4.0164    -7.8451 N.pl3   
  20 C20           -6.4866    -3.4017    -7.7778 C.2     
  21 N21           -6.0888    -3.1912    -9.0053 N.2     
  22 N22           -6.9562    -3.6310    -9.8440 N.2     
  23 N23           -7.9560    -4.1525    -9.2185 N.2     
  24 C24          -11.8006    -6.1502    -6.2297 C.ar    
  25 C25          -12.7105    -5.5841    -7.1190 C.ar    
  26 C26          -13.9148    -6.2123    -7.3653 C.ar    
  27 C27          -14.2221    -7.4028    -6.7312 C.ar    
  28 C28          -13.3264    -7.9731    -5.8463 C.ar    
  29 C29          -12.1115    -7.3565    -5.5946 C.ar    
  30 O30          -11.2279    -7.9188    -4.7295 O.3     
  31 C31          -11.6136    -9.1516    -4.1182 C.3     
  32 C32           -2.4848    -2.6697     0.0163 C.ar    
  33 C33           -1.2569    -2.0287     0.0032 C.ar    
  34 O34           -0.1083    -2.7567    -0.0113 O.3     
  35 C35           -0.2420    -4.1794    -0.0177 C.3     
  36 H36            1.0053     1.8021     0.0021 H       
  37 H37           -0.5445     1.7859    -0.8732 H       
  38 H38           -0.5275     1.7763     0.9067 H       
  39 H39           -2.3334     1.1784     0.0211 H       
  40 H40           -4.5102     0.0290     0.0345 H       
  41 H41           -4.8923    -3.5844     0.5471 H       
  42 H42           -5.7178    -2.0074     0.5549 H       
  43 H43           -5.5439    -1.9042    -1.9165 H       
  44 H44           -4.7184    -3.4811    -1.9243 H       
  45 H45           -6.7101    -4.5289    -0.8832 H       
  46 H46           -7.5356    -2.9520    -0.8755 H       
  47 H47           -6.6944    -3.5032    -3.5146 H       
  48 H48          -10.7075    -5.5913    -3.8274 H       
  49 H49          -10.0273    -5.2259    -8.0398 H       
  50 H50           -7.1329    -3.7240    -5.2798 H       
  51 H51           -5.9539    -3.1338    -6.8773 H       
  52 H52          -12.4743    -4.6544    -7.6153 H       
  53 H53          -14.6199    -5.7725    -8.0552 H       
  54 H54          -15.1663    -7.8887    -6.9283 H       
  55 H55          -13.5721    -8.9023    -5.3537 H       
  56 H56          -10.8202    -9.4907    -3.4522 H       
  57 H57          -12.5293    -9.0026    -3.5461 H       
  58 H58          -11.7855    -9.9017    -4.8901 H       
  59 H59           -2.5308    -3.7487     0.0154 H       
  60 H60            0.7471    -4.6373    -0.0292 H       
  61 H61           -0.7794    -4.4979     0.8756 H       
  62 H62           -0.7957    -4.4884    -0.9043 H       
@<TRIPOS>BOND
   1    1    2 1
   2    1   36 1
   3    1   37 1
   4    1   38 1
   5    2    3 1
   6    3   33 ar
   7    3    4 ar
   8    4    5 ar
   9    4   39 1
  10    5    6 ar
  11    5   40 1
  12    6    7 1
  13    6   32 ar
  14    7    8 1
  15    7   41 1
  16    7   42 1
  17    8    9 1
  18    8   43 1
  19    8   44 1
  20    9   10 1
  21    9   45 1
  22    9   46 1
  23   10   11 am
  24   10   47 1
  25   11   12 2
  26   11   13 1
  27   13   18 ar
  28   13   14 ar
  29   14   15 ar
  30   14   48 1
  31   15   16 ar
  32   15   24 1
  33   16   17 ar
  34   16   49 1
  35   17   18 ar
  36   17   19 1
  37   18   50 1
  38   19   23 1
  39   19   20 1
  40   20   21 2
  41   20   51 1
  42   21   22 1
  43   22   23 2
  44   24   29 ar
  45   24   25 ar
  46   25   26 ar
  47   25   52 1
  48   26   27 ar
  49   26   53 1
  50   27   28 ar
  51   27   54 1
  52   28   29 ar
  53   28   55 1
  54   29   30 1
  55   30   31 1
  56   31   56 1
  57   31   57 1
  58   31   58 1
  59   32   33 ar
  60   32   59 1
  61   33   34 1
  62   34   35 1
  63   35   60 1
  64   35   61 1
  65   35   62 1

#	End of record

