#	Name: ASD01200181
#	Creating user name:	WinNT
#	Creation time:	15. 06. 2019 19:08

#	Modifying user name:	WinNT
#	Modification time:	15. 06. 2019 19:08

#	Program:	/corina/corina34_cracker 3.40 0067  02.08.2006

@<TRIPOS>MOLECULE
ASD01200181
  48   50    0    0    0
SMALL
NO_CHARGES


@<TRIPOS>ATOM
   1 C1             0.9234     1.3604    -1.6863 C.2     
   2 C2             0.8310    -0.1410    -1.5952 C.3     
   3 O3             1.5228     1.9838    -0.8361 O.2     
   4 N4             0.3445     2.0099    -2.7157 N.am    
   5 C5             0.3395     3.4036    -2.7461 C.ar    
   6 C6            -0.1564     4.0664    -3.8632 C.ar    
   7 C7            -0.1555     5.4499    -3.8803 C.ar    
   8 C8             0.3434     6.1256    -2.7748 C.ar    
   9 C9             0.8202     5.4029    -1.6993 C.ar    
  10 N10            0.8018     4.0837    -1.7091 N.ar    
  11 S11            1.7096    -0.7121    -0.1144 S.3     
  12 N12            2.5903    -3.2485    -0.3917 N.am    
  13 C13            1.3656    -2.4931    -0.0973 C.3     
  14 C14            0.9352    -2.9275     1.2845 C.2     
  15 C15            1.8234    -3.8224     1.7051 C.2     
  16 C16            2.8485    -4.0264     0.6764 C.2     
  17 O17            3.7927    -4.7867     0.7736 O.2     
  18 C18           -0.2720    -2.4384     2.0423 C.3     
  19 C19            3.3813    -3.1739    -1.6225 C.3     
  20 C20            4.4326    -2.1036    -1.4801 C.ar    
  21 C21            5.6784    -2.4231    -0.9726 C.ar    
  22 C22            6.6438    -1.4438    -0.8411 C.ar    
  23 C23            6.3624    -0.1388    -1.2186 C.ar    
  24 C24            5.1115     0.1792    -1.7274 C.ar    
  25 C25            4.1514    -0.8049    -1.8623 C.ar    
  26 O26            7.3102     0.8265    -1.0897 O.3     
  27 C27            6.9504     2.1477    -1.4983 C.3     
  28 H28           -0.2160    -0.4376    -1.5335 H       
  29 H29            1.2834    -0.5873    -2.4808 H       
  30 H30           -0.0686     1.5076    -3.4354 H       
  31 H31           -0.5367     3.5089    -4.7064 H       
  32 H32           -0.5340     5.9919    -4.7343 H       
  33 H33            0.3586     7.2054    -2.7564 H       
  34 H34            1.2096     5.9242    -0.8373 H       
  35 H35            0.5915    -2.7331    -0.8262 H       
  36 H36            1.7943    -4.3244     2.6609 H       
  37 H37           -1.1037    -3.1246     1.8829 H       
  38 H38           -0.0387    -2.3912     3.1060 H       
  39 H39           -0.5468    -1.4455     1.6863 H       
  40 H40            3.8632    -4.1347    -1.8035 H       
  41 H41            2.7275    -2.9318    -2.4604 H       
  42 H42            5.8969    -3.4391    -0.6786 H       
  43 H43            7.6167    -1.6937    -0.4443 H       
  44 H44            4.8900     1.1944    -2.0219 H       
  45 H45            3.1791    -0.5588    -2.2628 H       
  46 H46            7.7953     2.8188    -1.3431 H       
  47 H47            6.6813     2.1407    -2.5545 H       
  48 H48            6.1004     2.4915    -0.9090 H       
@<TRIPOS>BOND
   1    1    2 1
   2    1    3 2
   3    1    4 am
   4    2   11 1
   5    2   28 1
   6    2   29 1
   7    4    5 1
   8    4   30 1
   9    5    6 ar
  10    5   10 ar
  11    6    7 ar
  12    6   31 1
  13    7    8 ar
  14    7   32 1
  15    8    9 ar
  16    8   33 1
  17    9   10 ar
  18    9   34 1
  19   11   13 1
  20   12   13 1
  21   12   16 am
  22   12   19 1
  23   13   14 1
  24   13   35 1
  25   14   15 2
  26   14   18 1
  27   15   16 1
  28   15   36 1
  29   16   17 2
  30   18   37 1
  31   18   38 1
  32   18   39 1
  33   19   20 1
  34   19   40 1
  35   19   41 1
  36   20   21 ar
  37   20   25 ar
  38   21   22 ar
  39   21   42 1
  40   22   23 ar
  41   22   43 1
  42   23   24 ar
  43   23   26 1
  44   24   25 ar
  45   24   44 1
  46   25   45 1
  47   26   27 1
  48   27   46 1
  49   27   47 1
  50   27   48 1

#	End of record

