#	Name: ASD08720002
#	Creating user name:	WinNT
#	Creation time:	15. 06. 2019 21:19

#	Modifying user name:	WinNT
#	Modification time:	15. 06. 2019 21:19

#	Program:	/corina/corina34_cracker 3.40 0067  02.08.2006

@<TRIPOS>MOLECULE
ASD08720002
  38   39    0    0    0
SMALL
NO_CHARGES


@<TRIPOS>ATOM
   1 C1             2.0814     1.4102    -0.8114 C.ar    
   2 C2             2.1060     0.0293    -0.8130 C.ar    
   3 C3             1.2139    -0.6807    -0.0203 C.ar    
   4 C4             0.2992     0.0001     0.7722 C.ar    
   5 C5             0.2788     1.3811     0.7702 C.ar    
   6 C6             1.1688     2.0862    -0.0207 C.ar    
   7 Cl7            1.1409     3.8220    -0.0205 Cl      
   8 N8             1.2364    -2.0803    -0.0204 N.am    
   9 C9             2.4084    -2.7354    -0.1369 C.2     
  10 O10            3.4335    -2.1154    -0.3263 O.2     
  11 C11            2.4453    -4.2383    -0.0317 C.3     
  12 C12            3.8859    -4.7260    -0.1981 C.3     
  13 C13            4.7345    -4.2176     0.9691 C.3     
  14 C14            3.9073    -6.2327    -0.2158 C.ar    
  15 C15            4.3965    -6.9038    -1.3210 C.ar    
  16 C16            4.4164    -8.2857    -1.3378 C.ar    
  17 C17            3.9465    -8.9974    -0.2484 C.ar    
  18 C18            3.4570    -8.3252     0.8574 C.ar    
  19 C19            3.4429    -6.9432     0.8753 C.ar    
  20 Cl20           3.9706   -10.7331    -0.2690 Cl      
  21 C21            6.1763    -4.5932     0.7430 C.2     
  22 O22            6.4927    -5.2048    -0.2499 O.2     
  23 O23            7.1091    -4.2484     1.6445 O.3     
  24 H24            2.7779     1.9629    -1.4244 H       
  25 H25            2.8181    -0.4979    -1.4305 H       
  26 H26           -0.3959    -0.5498     1.3894 H       
  27 H27           -0.4327     1.9110     1.3861 H       
  28 H28            0.4084    -2.5787     0.0633 H       
  29 H29            2.0689    -4.5435     0.9447 H       
  30 H30            1.8221    -4.6726    -0.8134 H       
  31 H31            4.2923    -4.3458    -1.1353 H       
  32 H32            4.6478    -3.1331     1.0361 H       
  33 H33            4.3829    -4.6682     1.8973 H       
  34 H34            4.7629    -6.3482    -2.1715 H       
  35 H35            4.7983    -8.8099    -2.2014 H       
  36 H36            3.0901    -8.8801     1.7081 H       
  37 H37            3.0608    -6.4183     1.7384 H       
  38 H38            8.0203    -4.5114     1.4560 H       
@<TRIPOS>BOND
   1    1    2 ar
   2    1    6 ar
   3    1   24 1
   4    2    3 ar
   5    2   25 1
   6    3    4 ar
   7    3    8 1
   8    4    5 ar
   9    4   26 1
  10    5    6 ar
  11    5   27 1
  12    6    7 1
  13    8    9 am
  14    8   28 1
  15    9   10 2
  16    9   11 1
  17   11   12 1
  18   11   29 1
  19   11   30 1
  20   12   13 1
  21   12   14 1
  22   12   31 1
  23   13   21 1
  24   13   32 1
  25   13   33 1
  26   14   15 ar
  27   14   19 ar
  28   15   16 ar
  29   15   34 1
  30   16   17 ar
  31   16   35 1
  32   17   18 ar
  33   17   20 1
  34   18   19 ar
  35   18   36 1
  36   19   37 1
  37   21   22 2
  38   21   23 1
  39   23   38 1

#	End of record

