#	Name: ASD05313115
#	Creating user name:	WinNT
#	Creation time:	15. 06. 2019 20:58

#	Modifying user name:	WinNT
#	Modification time:	15. 06. 2019 20:58

#	Program:	/corina/corina34_cracker 3.40 0067  02.08.2006

@<TRIPOS>MOLECULE
ASD05313115
  29   31    0    0    0
SMALL
NO_CHARGES


@<TRIPOS>ATOM
   1 C1            -0.0731     0.8208     1.0175 C.2     
   2 C2             0.1126    -0.6158     0.5926 C.3     
   3 N3             0.9358     1.7382     1.0437 N.pl3   
   4 N4             1.4568    -0.7158    -0.0072 N.am    
   5 C5             2.5710    -0.0353     0.6699 C.3     
   6 C6             2.3219     1.4777     0.6594 C.3     
   7 N7            -0.8891     2.6483     1.6948 N.2     
   8 N8            -1.1525     1.4173     1.4176 N.2     
   9 C9             0.3799     2.8913     1.4828 C.2     
  10 C10            1.6582    -1.4118    -1.1436 C.2     
  11 O11            2.7507    -1.4018    -1.6770 O.2     
  12 C12            0.5521    -2.1863    -1.7408 C.ar    
  13 C13            0.3211    -2.1318    -3.1186 C.ar    
  14 C14           -0.7140    -2.8584    -3.6706 C.ar    
  15 C15           -1.5232    -3.6406    -2.8615 C.ar    
  16 C16           -1.2983    -3.6975    -1.4943 C.ar    
  17 C17           -0.2639    -2.9806    -0.9324 C.ar    
  18 F18           -2.5353    -4.3500    -3.4070 F       
  19 Cl19           1.3338    -1.1519    -4.1326 Cl      
  20 Br20           1.2684     4.5398     1.7450 Br      
  21 H21            0.0422    -1.2724     1.4597 H       
  22 H22           -0.6444    -0.8870    -0.1433 H       
  23 H23            2.6395    -0.3857     1.6998 H       
  24 H24            3.5024    -0.2544     0.1477 H       
  25 H25            2.5022     1.8696    -0.3416 H       
  26 H26            2.9936     1.9624     1.3679 H       
  27 H27           -0.8942    -2.8173    -4.7347 H       
  28 H28           -1.9326    -4.3082    -0.8689 H       
  29 H29           -0.0872    -3.0299     0.1319 H       
@<TRIPOS>BOND
   1    1    2 1
   2    1    3 1
   3    1    8 2
   4    2    4 1
   5    2   21 1
   6    2   22 1
   7    3    6 1
   8    3    9 1
   9    4    5 1
  10    4   10 am
  11    5    6 1
  12    5   23 1
  13    5   24 1
  14    6   25 1
  15    6   26 1
  16    7    8 1
  17    7    9 2
  18    9   20 1
  19   10   11 2
  20   10   12 1
  21   12   13 ar
  22   12   17 ar
  23   13   14 ar
  24   13   19 1
  25   14   15 ar
  26   14   27 1
  27   15   16 ar
  28   15   18 1
  29   16   17 ar
  30   16   28 1
  31   17   29 1

#	End of record

