#	Name: ASD01882630
#	Creating user name:	WinNT
#	Creation time:	15. 06. 2019 19:44

#	Modifying user name:	WinNT
#	Modification time:	15. 06. 2019 19:44

#	Program:	/corina/corina34_cracker 3.40 0067  02.08.2006

@<TRIPOS>MOLECULE
ASD01882630
  54   58    0    0    0
SMALL
NO_CHARGES


@<TRIPOS>ATOM
   1 C1             0.7178     1.4942     1.0695 C.2     
   2 C2             0.7761     0.0323     1.1178 C.2     
   3 C3             1.2465    -0.6462    -0.0133 C.2     
   4 C4             1.6414     0.0965    -1.1426 C.2     
   5 C5             1.5738     1.4411    -1.1493 C.2     
   6 N6             1.1222     2.1431    -0.0714 N.pl3   
   7 N7             0.4798     3.5838     1.3948 N.2     
   8 N8             0.3345     2.4203     1.9253 N.2     
   9 C9             0.9541     3.4735     0.1826 C.2     
  10 C10            0.3645    -0.6831     2.2879 C.1     
  11 N11            0.0379    -1.2507     3.2162 N.1     
  12 N12            1.3225    -2.0264    -0.0210 N.pl3   
  13 C13            2.6200    -2.7040    -0.1472 C.3     
  14 C14            2.5474    -3.6951    -1.3131 C.3     
  15 C15            1.3627    -4.6404    -1.1007 C.3     
  16 C16            0.0628    -3.8332    -1.0712 C.3     
  17 C17            0.1078    -2.8437     0.1030 C.3     
  18 C18            1.3084    -5.6385    -2.2285 C.ar    
  19 C19            1.1578    -5.2022    -3.5331 C.ar    
  20 C20            1.1075    -6.1200    -4.5688 C.ar    
  21 C21            1.2075    -7.4727    -4.3015 C.ar    
  22 C22            1.3584    -7.9121    -3.0006 C.ar    
  23 C23            1.4149    -6.9949    -1.9607 C.ar    
  24 O24            1.5685    -7.4258    -0.6810 O.3     
  25 C25            1.6716    -8.8367    -0.4795 C.3     
  26 F26            1.0595    -3.8807    -3.7963 F       
  27 C27            1.2580     4.6072    -0.7627 C.3     
  28 C28            0.0162     4.9198    -1.6001 C.3     
  29 C29            0.0843     6.1229    -2.5428 C.3     
  30 C30            0.1104     4.7028    -3.1117 C.3     
  31 H31            2.0050    -0.4212    -2.0179 H       
  32 H32            1.8858     1.9783    -2.0327 H       
  33 H33            3.3995    -1.9673    -0.3419 H       
  34 H34            2.8434    -3.2404     0.7750 H       
  35 H35            2.4142    -3.1490    -2.2470 H       
  36 H36            3.4705    -4.2729    -1.3574 H       
  37 H37            1.4841    -5.1679    -0.1547 H       
  38 H38           -0.0470    -3.2859    -2.0074 H       
  39 H39           -0.7825    -4.5094    -0.9433 H       
  40 H40            0.1305    -3.3912     1.0453 H       
  41 H41           -0.7708    -2.1993     0.0736 H       
  42 H42            0.9896    -5.7787    -5.5866 H       
  43 H43            1.1673    -8.1868    -5.1107 H       
  44 H44            1.4360    -8.9691    -2.7932 H       
  45 H45            1.7904    -9.0442     0.5839 H       
  46 H46            0.7675    -9.3231    -0.8458 H       
  47 H47            2.5356    -9.2192    -1.0230 H       
  48 H48            1.5425     5.4905    -0.1911 H       
  49 H49            2.0778     4.3211    -1.4215 H       
  50 H50           -0.9396     4.7102    -1.1198 H       
  51 H51           -0.8268     6.7046    -2.6831 H       
  52 H52            1.0138     6.6917    -2.5665 H       
  53 H53            1.0571     4.3374    -3.5096 H       
  54 H54           -0.7835     4.3502    -3.6262 H       
@<TRIPOS>BOND
   1    1    2 1
   2    1    6 1
   3    1    8 2
   4    2    3 2
   5    2   10 1
   6    3    4 1
   7    3   12 1
   8    4    5 2
   9    4   31 1
  10    5    6 1
  11    5   32 1
  12    6    9 1
  13    7    8 1
  14    7    9 2
  15    9   27 1
  16   10   11 3
  17   12   13 1
  18   12   17 1
  19   13   14 1
  20   13   33 1
  21   13   34 1
  22   14   15 1
  23   14   35 1
  24   14   36 1
  25   15   16 1
  26   15   18 1
  27   15   37 1
  28   16   17 1
  29   16   38 1
  30   16   39 1
  31   17   40 1
  32   17   41 1
  33   18   19 ar
  34   18   23 ar
  35   19   20 ar
  36   19   26 1
  37   20   21 ar
  38   20   42 1
  39   21   22 ar
  40   21   43 1
  41   22   23 ar
  42   22   44 1
  43   23   24 1
  44   24   25 1
  45   25   45 1
  46   25   46 1
  47   25   47 1
  48   27   28 1
  49   27   48 1
  50   27   49 1
  51   28   29 1
  52   28   30 1
  53   28   50 1
  54   29   30 1
  55   29   51 1
  56   29   52 1
  57   30   53 1
  58   30   54 1

#	End of record

