#	Name: ASD04591053
#	Creating user name:	WinNT
#	Creation time:	15. 06. 2019 20:52

#	Modifying user name:	WinNT
#	Modification time:	15. 06. 2019 20:52

#	Program:	/corina/corina34_cracker 3.40 0067  02.08.2006

@<TRIPOS>MOLECULE
ASD04591053
  60   65    0    0    0
SMALL
NO_CHARGES


@<TRIPOS>ATOM
   1 N1            -0.0170     1.3232    -0.0111 N.ar    
   2 C2             0.0017    -0.0035    -0.0048 C.ar    
   3 N3             1.1299    -0.6949    -0.0118 N.ar    
   4 C4             2.3050    -0.0729    -0.0258 C.ar    
   5 C5             2.3189     1.3365    -0.0332 C.ar    
   6 C6             1.1072     2.0202    -0.0251 C.ar    
   7 N7             3.6031    -0.5196    -0.0356 N.pl3   
   8 C8             4.4823     0.5494    -0.0492 C.ar    
   9 C9             3.7313     1.7384    -0.0484 C.ar    
  10 C10            5.8681     0.6417    -0.0622 C.ar    
  11 N11            6.4613     1.8180    -0.0729 N.ar    
  12 C12            5.7851     2.9532    -0.0725 C.ar    
  13 C13            4.4064     2.9584    -0.0613 C.ar    
  14 N14           -1.2019    -0.6887     0.0098 N.pl3   
  15 C15           -2.4022     0.0122     0.1304 C.ar    
  16 N16           -2.3891     1.3195     0.3310 N.ar    
  17 N17           -3.4683     2.0042     0.4478 N.ar    
  18 C18           -4.6668     1.4483     0.3753 C.ar    
  19 C19           -4.7831     0.0733     0.1655 C.ar    
  20 C20           -3.6194    -0.6637     0.0338 C.ar    
  21 N21           -5.8099     2.2334     0.5087 N.3     
  22 C22            4.0018    -1.9293    -0.0316 C.3     
  23 C23           -5.4579     3.6447     0.7183 C.3     
  24 C24            3.4416    -2.6539    -1.2760 C.3     
  25 C25           -6.6922     2.0811    -0.6565 C.3     
  26 C26           -7.9693     2.8952    -0.4359 C.3     
  27 N27           -7.6174     4.3066    -0.2262 N.3     
  28 C28           -6.7350     4.4588     0.9390 C.3     
  29 C29            2.5216    -3.7482    -0.6907 C.3     
  30 O30            2.1507    -3.2583     0.6163 O.3     
  31 C31            3.3540    -2.6716     1.1583 C.3     
  32 C32           -7.4525     3.9532     2.1922 C.3     
  33 C33           -6.3748     5.9351     1.1171 C.3     
  34 H34            1.0849     3.0999    -0.0300 H       
  35 H35            6.4645    -0.2586    -0.0631 H       
  36 H36            6.3204     3.8911    -0.0816 H       
  37 H37            3.8597     3.8898    -0.0610 H       
  38 H38           -1.2103    -1.6559    -0.0637 H       
  39 H39           -5.7518    -0.4003     0.1036 H       
  40 H40           -3.6520    -1.7307    -0.1299 H       
  41 H41            5.0875    -2.0181     0.0056 H       
  42 H42           -4.8146     3.7329     1.5938 H       
  43 H43           -4.9327     4.0227    -0.1588 H       
  44 H44            2.8680    -1.9632    -1.8942 H       
  45 H45            4.2502    -3.1029    -1.8527 H       
  46 H46           -6.1811     2.4413    -1.5493 H       
  47 H47           -6.9488     1.0294    -0.7834 H       
  48 H48           -8.6127     2.8070    -1.3113 H       
  49 H49           -8.4945     2.5173     0.4413 H       
  50 H50           -7.1951     4.7006    -1.0536 H       
  51 H51            1.6364    -3.8732    -1.3144 H       
  52 H52            3.0616    -4.6910    -0.6034 H       
  53 H53            4.0216    -3.4493     1.5292 H       
  54 H54            3.1082    -1.9696     1.9551 H       
  55 H55           -7.7080     2.9012     2.0651 H       
  56 H56           -6.7978     4.0663     3.0563 H       
  57 H57           -8.3630     4.5319     2.3480 H       
  58 H58           -7.2847     6.5149     1.2723 H       
  59 H59           -5.7204     6.0478     1.9814 H       
  60 H60           -5.8629     6.2945     0.2244 H       
@<TRIPOS>BOND
   1    1    2 ar
   2    1    6 ar
   3    2    3 ar
   4    2   14 1
   5    3    4 ar
   6    4    5 ar
   7    4    7 1
   8    5    6 ar
   9    5    9 1
  10    6   34 1
  11    7    8 1
  12    7   22 1
  13    8    9 ar
  14    8   10 ar
  15    9   13 ar
  16   10   11 ar
  17   10   35 1
  18   11   12 ar
  19   12   13 ar
  20   12   36 1
  21   13   37 1
  22   14   15 1
  23   14   38 1
  24   15   16 ar
  25   15   20 ar
  26   16   17 ar
  27   17   18 ar
  28   18   19 ar
  29   18   21 1
  30   19   20 ar
  31   19   39 1
  32   20   40 1
  33   21   25 1
  34   21   23 1
  35   22   24 1
  36   22   31 1
  37   22   41 1
  38   23   28 1
  39   23   42 1
  40   23   43 1
  41   24   29 1
  42   24   44 1
  43   24   45 1
  44   25   26 1
  45   25   46 1
  46   25   47 1
  47   26   27 1
  48   26   48 1
  49   26   49 1
  50   27   28 1
  51   27   50 1
  52   28   32 1
  53   28   33 1
  54   29   30 1
  55   29   51 1
  56   29   52 1
  57   30   31 1
  58   31   53 1
  59   31   54 1
  60   32   55 1
  61   32   56 1
  62   32   57 1
  63   33   58 1
  64   33   59 1
  65   33   60 1

#	End of record

