#	Name: ASD07931837
#	Creating user name:	WinNT
#	Creation time:	15. 06. 2019 21:13

#	Modifying user name:	WinNT
#	Modification time:	15. 06. 2019 21:13

#	Program:	/corina/corina34_cracker 3.40 0067  02.08.2006

@<TRIPOS>MOLECULE
ASD07931837
  19   19    0    0    0
SMALL
NO_CHARGES


@<TRIPOS>ATOM
   1 C1            -0.0169     1.3920     0.0097 C.ar    
   2 C2             0.0021    -0.0041     0.0020 C.ar    
   3 C3             1.2071    -0.6744    -0.0131 C.ar    
   4 C4             2.3970     0.0345    -0.0206 C.ar    
   5 C5             2.3847     1.4190    -0.0131 C.ar    
   6 C6             1.1856     2.1008     0.0020 C.ar    
   7 C7            -1.3042     2.1160     0.0197 C.2     
   8 Cl8           -2.7977     1.2311     0.0220 Cl      
   9 N9            -1.3188     3.4106     0.0268 N.2     
  10 C10            1.2293    -2.1812    -0.0209 C.3     
  11 F11           -0.0826    -2.6670    -0.0106 F       
  12 F12            1.8845    -2.6320    -1.1719 F       
  13 F13            1.9067    -2.6435     1.1125 F       
  14 O14           -2.5529     4.1048     0.0364 O.3     
  15 Cl15           3.9100    -0.8165    -0.0391 Cl      
  16 H16           -0.9251    -0.5578     0.0083 H       
  17 H17            3.3158     1.9663    -0.0190 H       
  18 H18            1.1773     3.1807     0.0075 H       
  19 H19           -2.4627     5.0675     0.0412 H       
@<TRIPOS>BOND
   1    1    2 ar
   2    1    6 ar
   3    1    7 1
   4    2    3 ar
   5    2   16 1
   6    3    4 ar
   7    3   10 1
   8    4    5 ar
   9    4   15 1
  10    5    6 ar
  11    5   17 1
  12    6   18 1
  13    7    8 1
  14    7    9 2
  15    9   14 1
  16   10   11 1
  17   10   12 1
  18   10   13 1
  19   14   19 1

#	End of record

