#	Name: ASD03091795
#	Creating user name:	WinNT
#	Creation time:	15. 06. 2019 20:31

#	Modifying user name:	WinNT
#	Modification time:	15. 06. 2019 20:31

#	Program:	/corina/corina34_cracker 3.40 0067  02.08.2006

@<TRIPOS>MOLECULE
ASD03091795
  31   33    0    0    0
SMALL
NO_CHARGES


@<TRIPOS>ATOM
   1 C1            -0.0122     1.4744    -0.0283 C.3     
   2 C2             0.0536    -0.0531    -0.0903 C.3     
   3 N3             0.7523    -0.5628     1.0965 N.3     
   4 C4             0.0330    -0.2106     2.3273 C.3     
   5 C5            -0.0340     1.3119     2.4633 C.3     
   6 C6             1.3885     1.8781     2.5290 C.3     
   7 N7             2.0617     1.6127     1.2503 N.am    
   8 C8             1.4107     2.0422     0.0052 C.3     
   9 C9             3.2546     0.9861     1.2201 C.2     
  10 O10            3.7487     0.6706     0.1550 O.2     
  11 C11            3.9607     0.6831     2.4793 C.2     
  12 C12            5.1020    -0.0574     2.6245 C.2     
  13 C13           -0.7519     1.8985     1.2441 C.3     
  14 O14            3.6155     1.0843     3.7174 O.3     
  15 N15            4.3930     0.6753     4.5478 N.2     
  16 C16            5.3454    -0.0341     4.0158 C.2     
  17 H17           -0.5361     1.8533    -0.9058 H       
  18 H18           -0.9574    -0.4593    -0.1189 H       
  19 H19            0.5926    -0.3572    -0.9876 H       
  20 H20            0.8932    -1.5599     1.0327 H       
  21 H21           -0.9778    -0.6163     2.2859 H       
  22 H22            0.5571    -0.6292     3.1865 H       
  23 H23           -0.5738     1.5739     3.3733 H       
  24 H24            1.3462     2.9532     2.7035 H       
  25 H25            1.9370     1.3956     3.3379 H       
  26 H26            1.9739     1.6677    -0.8497 H       
  27 H27            1.3707     3.1309    -0.0295 H       
  28 H28            5.6814    -0.5459     1.8551 H       
  29 H29           -0.7603     2.9862     1.3149 H       
  30 H30           -1.7761     1.5270     1.2109 H       
  31 H31            6.1621    -0.5121     4.5364 H       
@<TRIPOS>BOND
   1    1    2 1
   2    1    8 1
   3    1   13 1
   4    1   17 1
   5    2    3 1
   6    2   18 1
   7    2   19 1
   8    3    4 1
   9    3   20 1
  10    4    5 1
  11    4   21 1
  12    4   22 1
  13    5    6 1
  14    5   13 1
  15    5   23 1
  16    6    7 1
  17    6   24 1
  18    6   25 1
  19    7    8 1
  20    7    9 am
  21    8   26 1
  22    8   27 1
  23    9   10 2
  24    9   11 1
  25   11   12 2
  26   11   14 1
  27   12   16 1
  28   12   28 1
  29   13   29 1
  30   13   30 1
  31   14   15 1
  32   15   16 2
  33   16   31 1

#	End of record

