#	Name: ASD08830032
#	Creating user name:	WinNT
#	Creation time:	15. 06. 2019 21:19

#	Modifying user name:	WinNT
#	Modification time:	15. 06. 2019 21:19

#	Program:	/corina/corina34_cracker 3.40 0067  02.08.2006

@<TRIPOS>MOLECULE
ASD08830032
  54   56    0    0    0
SMALL
NO_CHARGES


@<TRIPOS>ATOM
   1 C1             0.3529     4.1452    -1.1732 C.ar    
   2 C2             0.1108     2.7792    -1.4697 C.ar    
   3 C3             1.6675     4.5827    -0.9234 C.ar    
   4 C4             2.6969     3.7007    -0.9670 C.ar    
   5 C5             2.4710     2.3412    -1.2607 C.ar    
   6 C6             1.1860     1.8798    -1.5110 C.ar    
   7 C7             3.6043     1.4050    -1.3029 C.2     
   8 C8             5.0016     1.9006    -1.0325 C.3     
   9 C9             5.9859     0.7341    -1.1382 C.3     
  10 N10            7.3479     1.2172    -0.8746 N.3     
  11 O11            3.4145     0.2342    -1.5553 O.2     
  12 C12            8.2861     0.0957    -0.7329 C.3     
  13 C13           -0.7267     5.0423    -1.1394 C.ar    
  14 C14           -1.2054     2.3501    -1.7180 C.ar    
  15 C15           -2.2271     3.2484    -1.6707 C.ar    
  16 C16           -1.9873     4.5919    -1.3906 C.ar    
  17 C17            9.7160     0.6389    -0.6408 C.3     
  18 N18            9.7690     1.6345     0.4405 N.am    
  19 C19            8.7703     2.7143     0.4417 C.3     
  20 C20            7.3776     2.0895     0.3070 C.3     
  21 C21           10.7079     1.5595     1.4044 C.2     
  22 O22           11.4678     0.6149     1.4387 O.2     
  23 C23           10.8136     2.6496     2.4397 C.3     
  24 C24           12.0368     2.3967     3.3234 C.3     
  25 C25           10.9597     4.0033     1.7418 C.3     
  26 C26            9.5518     2.6553     3.3049 C.3     
  27 H27            1.8564     5.6217    -0.6972 H       
  28 H28            3.7024     4.0448    -0.7744 H       
  29 H29            1.0157     0.8373    -1.7359 H       
  30 H30            5.2640     2.6649    -1.7641 H       
  31 H31            5.0486     2.3260    -0.0300 H       
  32 H32            5.7235    -0.0301    -0.4067 H       
  33 H33            5.9389     0.3088    -2.1407 H       
  34 H34            8.0504    -0.4634     0.1726 H       
  35 H35            8.2014    -0.5610    -1.5987 H       
  36 H36           -0.5582     6.0852    -0.9148 H       
  37 H37           -1.4044     1.3132    -1.9453 H       
  38 H38           -3.2369     2.9166    -1.8620 H       
  39 H39           -2.8155     5.2844    -1.3586 H       
  40 H40           10.4043    -0.1773    -0.4210 H       
  41 H41            9.9907     1.1089    -1.5851 H       
  42 H42            8.8333     3.2703     1.3771 H       
  43 H43            8.9541     3.3838    -0.3986 H       
  44 H44            6.6341     2.8787     0.1953 H       
  45 H45            7.1546     1.5026     1.1980 H       
  46 H46           12.9357     2.3926     2.7070 H       
  47 H47           12.1132     3.1851     4.0722 H       
  48 H48           11.9327     1.4323     3.8206 H       
  49 H49           10.1467     4.1334     1.0275 H       
  50 H50           10.9222     4.8006     2.4841 H       
  51 H51           11.9142     4.0403     1.2167 H       
  52 H52            9.5943     1.8294     4.0150 H       
  53 H53            9.4878     3.5983     3.8478 H       
  54 H54            8.6742     2.5423     2.6683 H       
@<TRIPOS>BOND
   1    1    2 ar
   2    1    3 ar
   3    1   13 ar
   4    2   14 ar
   5    2    6 ar
   6    3    4 ar
   7    3   27 1
   8    4    5 ar
   9    4   28 1
  10    5    6 ar
  11    5    7 1
  12    6   29 1
  13    7    8 1
  14    7   11 2
  15    8    9 1
  16    8   30 1
  17    8   31 1
  18    9   10 1
  19    9   32 1
  20    9   33 1
  21   10   12 1
  22   10   20 1
  23   12   17 1
  24   12   34 1
  25   12   35 1
  26   13   16 ar
  27   13   36 1
  28   14   15 ar
  29   14   37 1
  30   15   16 ar
  31   15   38 1
  32   16   39 1
  33   17   18 1
  34   17   40 1
  35   17   41 1
  36   18   19 1
  37   18   21 am
  38   19   20 1
  39   19   42 1
  40   19   43 1
  41   20   44 1
  42   20   45 1
  43   21   22 2
  44   21   23 1
  45   23   24 1
  46   23   25 1
  47   23   26 1
  48   24   46 1
  49   24   47 1
  50   24   48 1
  51   25   49 1
  52   25   50 1
  53   25   51 1
  54   26   52 1
  55   26   53 1
  56   26   54 1

#	End of record

