#	Name: ASD03330002
#	Creating user name:	WinNT
#	Creation time:	15. 06. 2019 20:36

#	Modifying user name:	WinNT
#	Modification time:	15. 06. 2019 20:36

#	Program:	/corina/corina34_cracker 3.40 0067  02.08.2006

@<TRIPOS>MOLECULE
ASD03330002
  51   54    0    0    0
SMALL
NO_CHARGES


@<TRIPOS>ATOM
   1 C1            -0.0546     1.5999    -0.1619 C.2     
   2 C2             0.0982     0.2422    -0.2077 C.2     
   3 N3            -1.1530    -0.2990    -0.1154 N.pl3   
   4 N4            -2.0286     0.6359    -0.0189 N.2     
   5 C5            -1.4436     1.8183    -0.0333 C.2     
   6 C6             1.0310     2.6431    -0.2281 C.3     
   7 C7             1.3728    -0.4985    -0.3336 C.ar    
   8 C8             1.6943    -1.4998     0.5832 C.ar    
   9 C9             2.8841    -2.1871     0.4610 C.ar    
  10 C10            3.7588    -1.8846    -0.5689 C.ar    
  11 C11            3.4452    -0.8916    -1.4814 C.ar    
  12 C12            2.2551    -0.2023    -1.3729 C.ar    
  13 C13           -1.4386    -1.6702    -0.1253 C.ar    
  14 C14           -0.8855    -2.4887    -1.1007 C.ar    
  15 C15           -1.1688    -3.8407    -1.1084 C.ar    
  16 C16           -2.0030    -4.3801    -0.1451 C.ar    
  17 C17           -2.5562    -3.5671     0.8289 C.ar    
  18 C18           -2.2718    -2.2150     0.8450 C.ar    
  19 Cl19          -2.9653    -1.1955     2.0670 Cl      
  20 Cl20          -2.3568    -6.0796    -0.1587 Cl      
  21 Cl21           5.2546    -2.7533    -0.7162 Cl      
  22 C22           -2.1181     3.1290     0.0575 C.2     
  23 N23           -3.4601     3.1902     0.1669 N.am    
  24 N24           -4.0764     4.3959     0.3468 N.3     
  25 C25           -4.9318     4.3768     1.5403 C.3     
  26 C26           -5.4893     5.7795     1.7924 C.3     
  27 C27           -6.2954     6.2302     0.5711 C.3     
  28 C28           -5.3945     6.1949    -0.6665 C.3     
  29 C29           -4.8397     4.7801    -0.8474 C.3     
  30 O30           -1.4629     4.1529     0.0335 O.2     
  31 H31            1.2064     2.9194    -1.2678 H       
  32 H32            0.7231     3.5241     0.3350 H       
  33 H33            1.9486     2.2403     0.2005 H       
  34 H34            1.0131    -1.7361     1.3873 H       
  35 H35            3.1340    -2.9624     1.1701 H       
  36 H36            4.1313    -0.6596    -2.2826 H       
  37 H37            2.0115     0.5721    -2.0853 H       
  38 H38           -0.2346    -2.0687    -1.8532 H       
  39 H39           -0.7388    -4.4775    -1.8674 H       
  40 H40           -3.2073    -3.9906     1.5794 H       
  41 H41           -3.9882     2.3780     0.1178 H       
  42 H42           -5.7562     3.6807     1.3852 H       
  43 H43           -4.3454     4.0586     2.4023 H       
  44 H44           -6.1366     5.7616     2.6693 H       
  45 H45           -4.6659     6.4734     1.9613 H       
  46 H46           -7.1415     5.5587     0.4251 H       
  47 H47           -6.6582     7.2459     0.7287 H       
  48 H48           -5.9741     6.4737    -1.5466 H       
  49 H49           -4.5696     6.8953    -0.5363 H       
  50 H50           -4.1865     4.7549    -1.7196 H       
  51 H51           -5.6645     4.0822    -0.9914 H       
@<TRIPOS>BOND
   1    1    2 2
   2    1    6 1
   3    1    5 1
   4    2    3 1
   5    2    7 1
   6    3    4 1
   7    3   13 1
   8    4    5 2
   9    5   22 1
  10    6   31 1
  11    6   32 1
  12    6   33 1
  13    7    8 ar
  14    7   12 ar
  15    8    9 ar
  16    8   34 1
  17    9   10 ar
  18    9   35 1
  19   10   11 ar
  20   10   21 1
  21   11   12 ar
  22   11   36 1
  23   12   37 1
  24   13   14 ar
  25   13   18 ar
  26   14   15 ar
  27   14   38 1
  28   15   16 ar
  29   15   39 1
  30   16   17 ar
  31   16   20 1
  32   17   18 ar
  33   17   40 1
  34   18   19 1
  35   22   23 am
  36   22   30 2
  37   23   24 1
  38   23   41 1
  39   24   25 1
  40   24   29 1
  41   25   26 1
  42   25   42 1
  43   25   43 1
  44   26   27 1
  45   26   44 1
  46   26   45 1
  47   27   28 1
  48   27   46 1
  49   27   47 1
  50   28   29 1
  51   28   48 1
  52   28   49 1
  53   29   50 1
  54   29   51 1

#	End of record

