#	Name: ASD02039301
#	Creating user name:	WinNT
#	Creation time:	15. 06. 2019 20:18

#	Modifying user name:	WinNT
#	Modification time:	15. 06. 2019 20:18

#	Program:	/corina/corina34_cracker 3.40 0067  02.08.2006

@<TRIPOS>MOLECULE
ASD02039301
  51   53    0    0    0
SMALL
NO_CHARGES


@<TRIPOS>ATOM
   1 C1            -0.2034     1.0588    -0.5279 C.ar    
   2 C2            -0.0144    -0.3047    -0.4030 C.ar    
   3 C3            -1.0573    -1.1677    -0.7103 C.ar    
   4 C4            -2.2586    -0.6275    -1.1342 C.ar    
   5 C5            -2.3795     0.7572    -1.2374 C.ar    
   6 N6            -1.3595     1.5477    -0.9291 N.ar    
   7 C7            -3.6601     1.3519    -1.6902 C.ar    
   8 C8             0.9260     1.9993    -0.1949 C.3     
   9 N9             1.6458     2.3518    -1.4213 N.am    
  10 C10            1.1492     3.4320    -2.2773 C.3     
  11 C11            2.7647     1.6822    -1.7620 C.2     
  12 C12            3.2077     0.5303    -0.9573 C.2     
  13 C13            4.2450    -0.3062    -1.2495 C.2     
  14 C14            2.2341     4.4997    -2.4321 C.3     
  15 N15            2.6618     0.1115     0.2130 N.2     
  16 C16            3.3150    -0.9336     0.6320 C.2     
  17 N17            4.3051    -1.2204    -0.2528 N.pl3   
  18 O18            3.4088     2.0289    -2.7337 O.2     
  19 C19            5.2651    -2.3220    -0.1478 C.3     
  20 C20            0.7890     2.8678    -3.6531 C.3     
  21 C21           -3.7887     2.7361    -1.7960 C.ar    
  22 C22           -4.7362     0.5277    -2.0164 C.ar    
  23 C23           -5.9256     1.0835    -2.4376 C.ar    
  24 C24           -6.0523     2.4628    -2.5369 C.ar    
  25 C25           -4.9806     3.2860    -2.2177 C.ar    
  26 C26           -7.2866     4.4330    -3.0314 C.3     
  27 O27           -7.2254     3.0075    -2.9521 O.3     
  28 F28           -6.3194     4.8919    -3.9321 F       
  29 F29           -8.5561     4.8215    -3.4725 F       
  30 F30           -7.0441     4.9813    -1.7674 F       
  31 H31            0.9359    -0.6950    -0.0697 H       
  32 H32           -0.9338    -2.2369    -0.6209 H       
  33 H33           -3.0908    -1.2698    -1.3819 H       
  34 H34            0.5233     2.9031     0.2625 H       
  35 H35            1.6101     1.5137     0.5010 H       
  36 H36            0.2636     3.8770    -1.8238 H       
  37 H37            4.8937    -0.2501    -2.1111 H       
  38 H38            3.1433     4.0403    -2.8198 H       
  39 H39            1.8914     5.2682    -3.1249 H       
  40 H40            2.4406     4.9512    -1.4617 H       
  41 H41            3.1056    -1.4822     1.5384 H       
  42 H42            4.8606    -3.2050    -0.6426 H       
  43 H43            6.2016    -2.0347    -0.6258 H       
  44 H44            5.4475    -2.5461     0.9032 H       
  45 H45           -0.0158     2.1402    -3.5480 H       
  46 H46            0.4629     3.6788    -4.3043 H       
  47 H47            1.6632     2.3825    -4.0870 H       
  48 H48           -2.9556     3.3769    -1.5476 H       
  49 H49           -4.6382    -0.5451    -1.9397 H       
  50 H50           -6.7595     0.4456    -2.6908 H       
  51 H51           -5.0822     4.3584    -2.2956 H       
@<TRIPOS>BOND
   1    1    2 ar
   2    1    8 1
   3    1    6 ar
   4    2    3 ar
   5    2   31 1
   6    3    4 ar
   7    3   32 1
   8    4    5 ar
   9    4   33 1
  10    5    6 ar
  11    5    7 1
  12    7   21 ar
  13    7   22 ar
  14    8    9 1
  15    8   34 1
  16    8   35 1
  17    9   10 1
  18    9   11 am
  19   10   20 1
  20   10   14 1
  21   10   36 1
  22   11   12 1
  23   11   18 2
  24   12   13 2
  25   12   15 1
  26   13   17 1
  27   13   37 1
  28   14   38 1
  29   14   39 1
  30   14   40 1
  31   15   16 2
  32   16   17 1
  33   16   41 1
  34   17   19 1
  35   19   42 1
  36   19   43 1
  37   19   44 1
  38   20   45 1
  39   20   46 1
  40   20   47 1
  41   21   25 ar
  42   21   48 1
  43   22   23 ar
  44   22   49 1
  45   23   24 ar
  46   23   50 1
  47   24   25 ar
  48   24   27 1
  49   25   51 1
  50   26   27 1
  51   26   28 1
  52   26   29 1
  53   26   30 1

#	End of record

