#	Name: ASD03090343
#	Creating user name:	WinNT
#	Creation time:	15. 06. 2019 20:28

#	Modifying user name:	WinNT
#	Modification time:	15. 06. 2019 20:28

#	Program:	/corina/corina34_cracker 3.40 0067  02.08.2006

@<TRIPOS>MOLECULE
ASD03090343
  45   48    0    0    0
SMALL
NO_CHARGES


@<TRIPOS>ATOM
   1 N1             0.4112     1.4880     1.4547 N.ar    
   2 C2             0.3823     0.1692     1.4307 C.ar    
   3 C3             1.5139    -0.5587     1.1259 C.ar    
   4 C4             2.7021     0.1225     0.8396 C.ar    
   5 C5             2.6867     1.5207     0.8763 C.ar    
   6 C6             1.5097     2.1688     1.1912 C.ar    
   7 C7             3.9411    -0.6160     0.5077 C.2     
   8 N8             5.7384    -3.4563    -0.5197 N.pl3   
   9 C9             4.8175    -4.4510    -0.8683 C.ar    
  10 C10            3.6038    -4.1022    -1.4451 C.ar    
  11 C11            2.6930    -5.0870    -1.7897 C.ar    
  12 C12            2.9970    -6.4260    -1.5567 C.ar    
  13 C13            4.2090    -6.7701    -0.9802 C.ar    
  14 C14            5.1200    -5.7875    -0.6425 C.ar    
  15 N15            4.0133    -1.8717     0.1144 N.2     
  16 C16            5.2873    -2.2048    -0.0963 C.2     
  17 N17            6.0495    -1.1660     0.1596 N.2     
  18 N18            5.1977    -0.1197     0.5490 N.pl3   
  19 C19            5.5931     1.2380     0.9315 C.3     
  20 C20            5.6902     2.1126    -0.3201 C.3     
  21 C21            5.9807     3.5580     0.0890 C.3     
  22 O22            1.4541    -5.0133    -2.3583 O.3     
  23 C23            1.1750    -6.3390    -2.8458 C.3     
  24 O24            1.9475    -7.1915    -1.9800 O.3     
  25 F25           -0.1890    -6.6279    -2.7307 F       
  26 F26            1.5971    -6.4739    -4.1727 F       
  27 O27            6.7453     1.6329    -1.1558 O.3     
  28 C28           -0.9041    -0.5518     1.7410 C.3     
  29 H29            1.4832    -1.6381     1.1088 H       
  30 H30            3.5826     2.0846     0.6620 H       
  31 H31            1.4877     3.2482     1.2221 H       
  32 H32            6.6901    -3.6365    -0.5723 H       
  33 H33            3.3698    -3.0632    -1.6246 H       
  34 H34            4.4443    -7.8085    -0.7993 H       
  35 H35            6.0640    -6.0585    -0.1933 H       
  36 H36            4.8491     1.6557     1.6098 H       
  37 H37            6.5622     1.2075     1.4295 H       
  38 H38            4.7474     2.0720    -0.8657 H       
  39 H39            6.9234     3.5987     0.6347 H       
  40 H40            6.0498     4.1811    -0.8027 H       
  41 H41            5.1758     3.9240     0.7265 H       
  42 H42            7.6155     1.6406    -0.7341 H       
  43 H43           -1.4677    -0.7020     0.8202 H       
  44 H44           -0.6792    -1.5187     2.1912 H       
  45 H45           -1.4959     0.0438     2.4361 H       
@<TRIPOS>BOND
   1    1    2 ar
   2    1    6 ar
   3    2    3 ar
   4    2   28 1
   5    3    4 ar
   6    3   29 1
   7    4    5 ar
   8    4    7 1
   9    5    6 ar
  10    5   30 1
  11    6   31 1
  12    7   15 2
  13    7   18 1
  14    8    9 1
  15    8   16 1
  16    8   32 1
  17    9   10 ar
  18    9   14 ar
  19   10   11 ar
  20   10   33 1
  21   11   12 ar
  22   11   22 1
  23   12   13 ar
  24   12   24 1
  25   13   14 ar
  26   13   34 1
  27   14   35 1
  28   15   16 1
  29   16   17 2
  30   17   18 1
  31   18   19 1
  32   19   20 1
  33   19   36 1
  34   19   37 1
  35   20   21 1
  36   20   27 1
  37   20   38 1
  38   21   39 1
  39   21   40 1
  40   21   41 1
  41   22   23 1
  42   23   24 1
  43   23   25 1
  44   23   26 1
  45   27   42 1
  46   28   43 1
  47   28   44 1
  48   28   45 1

#	End of record

