#	Name: ASD04880493
#	Creating user name:	WinNT
#	Creation time:	15. 06. 2019 20:53

#	Modifying user name:	WinNT
#	Modification time:	15. 06. 2019 20:53

#	Program:	/corina/corina34_cracker 3.40 0067  02.08.2006

@<TRIPOS>MOLECULE
ASD04880493
  34   36    0    0    0
SMALL
NO_CHARGES


@<TRIPOS>ATOM
   1 C1            -0.0144     1.2118     0.0087 C.2     
   2 O2             0.0500    -0.0023     0.0326 O.2     
   3 N3             1.1146     1.9454    -0.0507 N.am    
   4 N4             1.1748     3.3299    -0.1961 N.2     
   5 C5             2.3726     3.8044    -0.2262 C.2     
   6 C6             3.3672     2.6738    -0.0901 C.3     
   7 C7             2.4849     1.4158     0.0337 C.3     
   8 C8             2.7194     5.2293    -0.3711 C.ar    
   9 C9             1.7076     6.1926    -0.4893 C.ar    
  10 C10            2.0445     7.5291    -0.6245 C.ar    
  11 C11            3.3732     7.9108    -0.6427 C.ar    
  12 C12            4.3754     6.9632    -0.5263 C.ar    
  13 C13            4.0575     5.6283    -0.3856 C.ar    
  14 O14            0.4027     5.8167    -0.4718 O.3     
  15 C15           -1.3310     1.8827     0.0387 C.ar    
  16 C16           -2.5032     1.1303    -0.0525 C.ar    
  17 C17           -3.7305     1.7642    -0.0239 C.ar    
  18 C18           -3.7978     3.1434     0.0947 C.ar    
  19 C19           -2.6389     3.8928     0.1849 C.ar    
  20 C20           -1.4074     3.2708     0.1642 C.ar    
  21 F21           -4.8667     1.0385    -0.1120 F       
  22 H22            4.0017     2.6142    -0.9744 H       
  23 H23            3.9720     2.8026     0.8076 H       
  24 H24            2.6477     0.9240     0.9928 H       
  25 H25            2.6820     0.7287    -0.7891 H       
  26 H26            1.2682     8.2742    -0.7162 H       
  27 H27            3.6306     8.9543    -0.7487 H       
  28 H28            5.4105     7.2708    -0.5415 H       
  29 H29            4.8424     4.8925    -0.2909 H       
  30 H30            0.0100     5.8001     0.4118 H       
  31 H31           -2.4509     0.0556    -0.1456 H       
  32 H32           -4.7591     3.6351     0.1164 H       
  33 H33           -2.6981     4.9673     0.2768 H       
  34 H34           -0.5038     3.8575     0.2400 H       
@<TRIPOS>BOND
   1    1    2 2
   2    1    3 am
   3    1   15 1
   4    3    4 1
   5    3    7 1
   6    4    5 2
   7    5    6 1
   8    5    8 1
   9    6    7 1
  10    6   22 1
  11    6   23 1
  12    7   24 1
  13    7   25 1
  14    8    9 ar
  15    8   13 ar
  16    9   10 ar
  17    9   14 1
  18   10   11 ar
  19   10   26 1
  20   11   12 ar
  21   11   27 1
  22   12   13 ar
  23   12   28 1
  24   13   29 1
  25   14   30 1
  26   15   16 ar
  27   15   20 ar
  28   16   17 ar
  29   16   31 1
  30   17   18 ar
  31   17   21 1
  32   18   19 ar
  33   18   32 1
  34   19   20 ar
  35   19   33 1
  36   20   34 1

#	End of record

