#	Name: ASD01813003
#	Creating user name:	WinNT
#	Creation time:	15. 06. 2019 19:29

#	Modifying user name:	WinNT
#	Modification time:	15. 06. 2019 19:29

#	Program:	/corina/corina34_cracker 3.40 0067  02.08.2006

@<TRIPOS>MOLECULE
ASD01813003
  44   47    0    0    0
SMALL
NO_CHARGES


@<TRIPOS>ATOM
   1 C1            -0.0876     1.3565    -0.1961 C.2     
   2 C2            -0.0467     0.0136    -0.1956 C.2     
   3 N3            -1.1835    -0.7206    -0.0074 N.pl3   
   4 C4            -2.3880    -0.1743     0.1972 C.2     
   5 C5            -2.5315     1.1989     0.2234 C.2     
   6 C6            -1.3299     2.0172     0.0154 C.2     
   7 O7            -1.3944     3.2362     0.0295 O.2     
   8 C8            -1.0785    -2.1816    -0.0313 C.3     
   9 C9            -0.9267    -2.6975     1.3765 C.ar    
  10 C10           -2.0617    -2.9034     2.1580 C.ar    
  11 C11           -1.9596    -3.3679     3.4335 C.ar    
  12 C12           -0.6923    -3.6453     3.9729 C.ar    
  13 C13            0.4623    -3.4362     3.1777 C.ar    
  14 C14            0.3168    -2.9605     1.8637 C.ar    
  15 C15            1.1256     2.2201    -0.4174 C.3     
  16 C16            2.4075     1.4198    -0.1973 C.3     
  17 C17            2.3100     0.1271    -1.0170 C.3     
  18 C18            1.2361    -0.7573    -0.3890 C.3     
  19 C19           -0.5469    -4.1255     5.2858 C.ar    
  20 C20            0.6967    -4.3828     5.7748 C.ar    
  21 C21            1.8321    -4.1773     4.9928 C.ar    
  22 C22            1.7301    -3.7134     3.7175 C.ar    
  23 C23           -3.8455     1.8215     0.4487 C.2     
  24 O24           -4.8275     1.1250     0.6156 O.2     
  25 O25           -3.9602     3.1643     0.4700 O.3     
  26 H26           -3.2498    -0.8089     0.3418 H       
  27 H27           -1.9791    -2.6033    -0.4777 H       
  28 H28           -0.2097    -2.4739    -0.6210 H       
  29 H29           -3.0371    -2.6910     1.7457 H       
  30 H30           -2.8481    -3.5221     4.0278 H       
  31 H31            1.1876    -2.7965     1.2462 H       
  32 H32            1.1122     2.6027    -1.4379 H       
  33 H33            1.1016     3.0579     0.2795 H       
  34 H34            3.2666     2.0024    -0.5298 H       
  35 H35            2.5132     1.1778     0.8602 H       
  36 H36            2.0363     0.3636    -2.0452 H       
  37 H37            3.2687    -0.3913    -1.0012 H       
  38 H38            1.5878    -1.1169     0.5780 H       
  39 H39            1.0473    -1.6102    -1.0410 H       
  40 H40           -1.4176    -4.2891     5.9035 H       
  41 H41            0.8056    -4.7514     6.7841 H       
  42 H42            2.8074    -4.3894     5.4052 H       
  43 H43            2.6186    -3.5593     3.1232 H       
  44 H44           -4.8437     3.5271     0.6214 H       
@<TRIPOS>BOND
   1    1    2 2
   2    1   15 1
   3    1    6 1
   4    2    3 1
   5    2   18 1
   6    3    4 1
   7    3    8 1
   8    4    5 2
   9    4   26 1
  10    5    6 1
  11    5   23 1
  12    6    7 2
  13    8    9 1
  14    8   27 1
  15    8   28 1
  16    9   10 ar
  17    9   14 ar
  18   10   11 ar
  19   10   29 1
  20   11   12 ar
  21   11   30 1
  22   12   13 ar
  23   12   19 ar
  24   13   14 ar
  25   13   22 ar
  26   14   31 1
  27   15   16 1
  28   15   32 1
  29   15   33 1
  30   16   17 1
  31   16   34 1
  32   16   35 1
  33   17   18 1
  34   17   36 1
  35   17   37 1
  36   18   38 1
  37   18   39 1
  38   19   20 ar
  39   19   40 1
  40   20   21 ar
  41   20   41 1
  42   21   22 ar
  43   21   42 1
  44   22   43 1
  45   23   24 2
  46   23   25 1
  47   25   44 1

#	End of record

