#	Name: ASD01350044
#	Creating user name:	WinNT
#	Creation time:	15. 06. 2019 19:16

#	Modifying user name:	WinNT
#	Modification time:	15. 06. 2019 19:16

#	Program:	/corina/corina34_cracker 3.40 0067  02.08.2006

@<TRIPOS>MOLECULE
ASD01350044
  48   51    0    0    0
SMALL
NO_CHARGES


@<TRIPOS>ATOM
   1 C1            -0.3067     2.2630    -0.5588 C.3     
   2 S2            -0.1340     0.4584    -0.4944 S.3     
   3 C3            -1.7997    -0.0937    -0.3345 C.ar    
   4 C4            -2.8467     0.8209    -0.2889 C.ar    
   5 C5            -4.1333     0.3612    -0.1738 C.ar    
   6 C6            -4.4387    -1.0073    -0.0994 C.ar    
   7 C7            -3.4070    -1.9112    -0.1251 C.ar    
   8 C8            -2.0879    -1.4401    -0.2582 C.ar    
   9 S9            -3.5521    -3.6556     0.0077 S.3     
  10 C10           -4.8749    -4.0992    -1.0603 C.ar    
  11 C11           -4.6484    -4.9295    -2.1530 C.ar    
  12 C12           -5.7121    -5.2826    -2.9630 C.ar    
  13 C13           -6.9810    -4.8144    -2.6750 C.ar    
  14 C14           -7.1923    -3.9831    -1.5908 C.ar    
  15 C15           -6.1206    -3.6134    -0.7874 C.ar    
  16 C16           -6.3450    -2.6448     0.3267 C.3     
  17 C17           -5.9205    -1.2545    -0.0214 C.3     
  18 N18           -6.4824    -0.3417     0.9831 N.3     
  19 C19           -6.0316    -0.7035     2.3343 C.3     
  20 C20           -6.5728     0.3157     3.3397 C.3     
  21 N21           -8.0403     0.3406     3.2663 N.3     
  22 C22           -8.4911     0.7024     1.9152 C.3     
  23 C23           -7.9500    -0.3168     0.9098 C.3     
  24 C24           -8.6022     1.2534     4.2708 C.3     
  25 H25            0.6783     2.7189    -0.6590 H       
  26 H26           -0.9233     2.5387    -1.4143 H       
  27 H27           -0.7788     2.6158     0.3581 H       
  28 H28           -2.6484     1.8811    -0.3432 H       
  29 H29           -4.9409     1.0775    -0.1388 H       
  30 H30           -1.2773    -2.1529    -0.2934 H       
  31 H31           -3.6542    -5.2935    -2.3663 H       
  32 H32           -5.5522    -5.9226    -3.8181 H       
  33 H33           -7.8129    -5.0999    -3.3019 H       
  34 H34           -8.1860    -3.6224    -1.3694 H       
  35 H35           -7.4057    -2.6365     0.5772 H       
  36 H36           -5.7823    -2.9762     1.1995 H       
  37 H37           -6.3571    -0.9996    -0.9870 H       
  38 H38           -6.4027    -1.6966     2.5877 H       
  39 H39           -4.9421    -0.7029     2.3664 H       
  40 H40           -6.2638     0.0331     4.3460 H       
  41 H41           -6.1800     1.3044     3.1025 H       
  42 H42           -9.5806     0.7017     1.8830 H       
  43 H43           -8.1201     1.6955     1.6618 H       
  44 H44           -8.2590    -0.0342    -0.0966 H       
  45 H45           -8.3428    -1.3055     1.1470 H       
  46 H46           -8.2264     2.2616     4.0962 H       
  47 H47           -9.6895     1.2527     4.1945 H       
  48 H48           -8.3076     0.9232     5.2669 H       
@<TRIPOS>BOND
   1    1    2 1
   2    1   25 1
   3    1   26 1
   4    1   27 1
   5    2    3 1
   6    3    4 ar
   7    3    8 ar
   8    4    5 ar
   9    4   28 1
  10    5    6 ar
  11    5   29 1
  12    6    7 ar
  13    6   17 1
  14    7    8 ar
  15    7    9 1
  16    8   30 1
  17    9   10 1
  18   10   11 ar
  19   10   15 ar
  20   11   12 ar
  21   11   31 1
  22   12   13 ar
  23   12   32 1
  24   13   14 ar
  25   13   33 1
  26   14   15 ar
  27   14   34 1
  28   15   16 1
  29   16   17 1
  30   16   35 1
  31   16   36 1
  32   17   18 1
  33   17   37 1
  34   18   19 1
  35   18   23 1
  36   19   20 1
  37   19   38 1
  38   19   39 1
  39   20   21 1
  40   20   40 1
  41   20   41 1
  42   21   22 1
  43   21   24 1
  44   22   23 1
  45   22   42 1
  46   22   43 1
  47   23   44 1
  48   23   45 1
  49   24   46 1
  50   24   47 1
  51   24   48 1

#	End of record

