#	Name: ASD01230373
#	Creating user name:	WinNT
#	Creation time:	15. 06. 2019 19:14

#	Modifying user name:	WinNT
#	Modification time:	15. 06. 2019 19:14

#	Program:	/corina/corina34_cracker 3.40 0067  02.08.2006

@<TRIPOS>MOLECULE
ASD01230373
  47   50    0    0    0
SMALL
NO_CHARGES


@<TRIPOS>ATOM
   1 S1             0.9609     0.9545     0.1043 S.o2    
   2 N2             0.6195    -0.6508    -0.1064 N.am    
   3 C3             1.3853    -1.4412    -0.8188 C.2     
   4 N4             2.5292    -1.0668    -1.4643 N.pl3   
   5 C5             3.0333     0.3084    -1.5049 C.3     
   6 C6             2.7584     1.0220    -0.1780 C.3     
   7 C7             0.9495    -2.8509    -0.9124 C.2     
   8 C8             1.7263    -3.7482    -1.6125 C.2     
   9 C9             2.9070    -3.2967    -2.2182 C.2     
  10 C10            3.2745    -2.0069    -2.1318 C.2     
  11 C11           -0.3051    -3.2928    -0.2621 C.ar    
  12 C12           -0.2627    -4.2087     0.7896 C.ar    
  13 C13           -1.4331    -4.6176     1.3932 C.ar    
  14 C14           -2.6528    -4.1193     0.9553 C.ar    
  15 C15           -2.6990    -3.2078    -0.0909 C.ar    
  16 C16           -1.5323    -2.7899    -0.6955 C.ar    
  17 O17           -3.8044    -4.5252     1.5520 O.3     
  18 C18           -3.6786    -5.3709     2.6970 C.3     
  19 C19           -4.9209    -5.2245     3.5780 C.3     
  20 C20           -4.7863    -6.1300     4.8040 C.3     
  21 C21           -4.6509    -7.5851     4.3509 C.3     
  22 C22           -3.4086    -7.7314     3.4699 C.3     
  23 C23           -3.5432    -6.8260     2.2439 C.3     
  24 O24            0.2607     1.6096    -0.9444 O.2     
  25 O25            0.6547     1.2092     1.4683 O.2     
  26 H26            4.1076     0.2922    -1.6884 H       
  27 H27            2.5394     0.8486    -2.3125 H       
  28 H28            3.0860     2.0597    -0.2395 H       
  29 H29            3.2810     0.5138     0.6323 H       
  30 H30            1.4301    -4.7836    -1.6929 H       
  31 H31            3.5288    -3.9936    -2.7605 H       
  32 H32            4.1937    -1.6973    -2.6067 H       
  33 H33            0.6857    -4.5973     1.1303 H       
  34 H34           -1.4010    -5.3265     2.2073 H       
  35 H35           -3.6496    -2.8223    -0.4288 H       
  36 H36           -1.5687    -2.0776    -1.5065 H       
  37 H37           -2.7941    -5.0836     3.2655 H       
  38 H38           -5.0174    -4.1879     3.9008 H       
  39 H39           -5.8054    -5.5119     3.0095 H       
  40 H40           -3.9018    -5.8427     5.3725 H       
  41 H41           -5.6713    -6.0257     5.4316 H       
  42 H42           -4.5550    -8.2301     5.2243 H       
  43 H43           -5.5354    -7.8724     3.7824 H       
  44 H44           -2.5241    -7.4441     4.0384 H       
  45 H45           -3.3122    -8.7681     3.1471 H       
  46 H46           -4.4277    -7.1133     1.6754 H       
  47 H47           -2.6582    -6.9303     1.6163 H       
@<TRIPOS>BOND
   1    1    2 am
   2    1    6 1
   3    1   24 2
   4    1   25 2
   5    2    3 2
   6    3    4 1
   7    3    7 1
   8    4    5 1
   9    4   10 1
  10    5    6 1
  11    5   26 1
  12    5   27 1
  13    6   28 1
  14    6   29 1
  15    7    8 2
  16    7   11 1
  17    8    9 1
  18    8   30 1
  19    9   10 2
  20    9   31 1
  21   10   32 1
  22   11   12 ar
  23   11   16 ar
  24   12   13 ar
  25   12   33 1
  26   13   14 ar
  27   13   34 1
  28   14   15 ar
  29   14   17 1
  30   15   16 ar
  31   15   35 1
  32   16   36 1
  33   17   18 1
  34   18   19 1
  35   18   23 1
  36   18   37 1
  37   19   20 1
  38   19   38 1
  39   19   39 1
  40   20   21 1
  41   20   40 1
  42   20   41 1
  43   21   22 1
  44   21   42 1
  45   21   43 1
  46   22   23 1
  47   22   44 1
  48   22   45 1
  49   23   46 1
  50   23   47 1

#	End of record

