#	Name: ASD00170427
#	Creating user name:	WinNT
#	Creation time:	15. 06. 2019 18:32

#	Modifying user name:	WinNT
#	Modification time:	15. 06. 2019 18:32

#	Program:	/corina/corina34_cracker 3.40 0067  02.08.2006

@<TRIPOS>MOLECULE
ASD00170427
  44   46    0    0    0
SMALL
NO_CHARGES


@<TRIPOS>ATOM
   1 C1            -1.1083     1.6334    -1.1854 C.2     
   2 C2            -1.3486     0.2957    -1.3980 C.2     
   3 C3            -1.2956    -0.4819    -0.1779 C.2     
   4 C4            -1.0275     0.2474     0.8940 C.2     
   5 S5            -0.8165     1.9358     0.4664 S.3     
   6 C6            -1.5231    -1.9709    -0.1325 C.3     
   7 N7            -1.0990     2.5966    -2.1738 N.pl3   
   8 C8            -1.6274    -0.2788    -2.7140 C.2     
   9 C9            -3.0256    -0.4687    -3.1567 C.ar    
  10 O10           -0.7083    -0.6007    -3.4450 O.2     
  11 C11           -3.2968    -1.1184    -4.3623 C.ar    
  12 C12           -4.6026    -1.2930    -4.7697 C.ar    
  13 C13           -5.6441    -0.8252    -3.9854 C.ar    
  14 C14           -5.3812    -0.1795    -2.7886 C.ar    
  15 C15           -4.0796    -0.0042    -2.3680 C.ar    
  16 Cl16          -7.2854    -1.0487    -4.5049 Cl      
  17 N17           -1.2717    -2.4622     1.2246 N.pl3   
  18 C18           -2.3864    -2.6343     2.1595 C.3     
  19 C19            0.0307    -2.7664     1.6270 C.ar    
  20 C20            0.2805    -3.1634     2.9346 C.ar    
  21 C21            1.5694    -3.4639     3.3291 C.ar    
  22 C22            2.6108    -3.3701     2.4241 C.ar    
  23 C23            2.3656    -2.9753     1.1217 C.ar    
  24 C24            1.0784    -2.6784     0.7191 C.ar    
  25 C25            4.0160    -3.6985     2.8583 C.3     
  26 F26            4.2636    -5.0590     2.6468 F       
  27 F27            4.9239    -2.9379     2.1137 F       
  28 F28            4.1650    -3.4032     4.2177 F       
  29 H29           -0.9458    -0.1451     1.8969 H       
  30 H30           -2.5534    -2.1897    -0.4131 H       
  31 H31           -0.8445    -2.4635    -0.8288 H       
  32 H32           -1.1974     2.3383    -3.1036 H       
  33 H33           -0.9941     3.5318    -1.9387 H       
  34 H34           -2.4855    -1.4832    -4.9748 H       
  35 H35           -4.8136    -1.7951    -5.7023 H       
  36 H36           -6.1973     0.1837    -2.1815 H       
  37 H37           -3.8758     0.4995    -1.4346 H       
  38 H38           -2.7876    -3.6433     2.0647 H       
  39 H39           -2.0331    -2.4781     3.1788 H       
  40 H40           -3.1677    -1.9096     1.9307 H       
  41 H41           -0.5323    -3.2365     3.6420 H       
  42 H42            1.7643    -3.7722     4.3456 H       
  43 H43            3.1812    -2.9031     0.4174 H       
  44 H44            0.8876    -2.3704    -0.2983 H       
@<TRIPOS>BOND
   1    1    2 2
   2    1    7 1
   3    1    5 1
   4    2    3 1
   5    2    8 1
   6    3    4 2
   7    3    6 1
   8    4    5 1
   9    4   29 1
  10    6   17 1
  11    6   30 1
  12    6   31 1
  13    7   32 1
  14    7   33 1
  15    8    9 1
  16    8   10 2
  17    9   11 ar
  18    9   15 ar
  19   11   12 ar
  20   11   34 1
  21   12   13 ar
  22   12   35 1
  23   13   14 ar
  24   13   16 1
  25   14   15 ar
  26   14   36 1
  27   15   37 1
  28   17   18 1
  29   17   19 1
  30   18   38 1
  31   18   39 1
  32   18   40 1
  33   19   20 ar
  34   19   24 ar
  35   20   21 ar
  36   20   41 1
  37   21   22 ar
  38   21   42 1
  39   22   23 ar
  40   22   25 1
  41   23   24 ar
  42   23   43 1
  43   24   44 1
  44   25   26 1
  45   25   27 1
  46   25   28 1

#	End of record

