#	Name: ASD03730070
#	Creating user name:	WinNT
#	Creation time:	15. 06. 2019 20:43

#	Modifying user name:	WinNT
#	Modification time:	15. 06. 2019 20:43

#	Program:	/corina/corina34_cracker 3.40 0067  02.08.2006

@<TRIPOS>MOLECULE
ASD03730070
  55   60    0    0    0
SMALL
NO_CHARGES


@<TRIPOS>ATOM
   1 C1            -0.0186     1.5023     0.0156 C.2     
   2 C2             0.0014    -0.0045     0.0125 C.3     
   3 O3             1.0237     2.1226     0.0095 O.2     
   4 N4            -1.1946     2.1607     0.0195 N.am    
   5 O5             6.2408     2.8840     2.1141 O.3     
   6 C6             7.6607     2.8282     2.3462 C.3     
   7 O7             7.8715     1.4999     2.8603 O.3     
   8 C8             6.8615     0.7419     2.3406 C.ar    
   9 C9             5.8587     1.5936     1.8828 C.ar    
  10 C10            6.7147    -0.6281     2.2181 C.ar    
  11 C11            5.5683    -1.1656     1.6408 C.ar    
  12 C12            4.5697    -0.3051     1.1948 C.ar    
  13 C13            4.7158     1.0616     1.3098 C.ar    
  14 O14            5.2361    -2.4685     1.4118 O.3     
  15 C15            3.4646    -1.1734     0.6556 C.3     
  16 C16            3.8149    -2.5659     1.1974 C.3     
  17 N17            1.3889    -0.4745     0.0019 N.am    
  18 C18            2.1092    -0.7186     1.1148 C.2     
  19 C19            3.4037    -1.1550    -0.8430 C.ar    
  20 C20            4.3076    -1.4610    -1.8358 C.ar    
  21 C21            3.9436    -1.3417    -3.1652 C.ar    
  22 C22            2.6703    -0.9138    -3.4944 C.ar    
  23 C23            1.7616    -0.6052    -2.5037 C.ar    
  24 C24            2.1192    -0.7228    -1.1628 C.ar    
  25 O25            1.7357    -0.5953     2.2621 O.2     
  26 C26           -1.2153     3.5552     0.1328 C.ar    
  27 C27           -2.1834     4.2935    -0.5359 C.ar    
  28 C28           -2.2011     5.6696    -0.4220 C.ar    
  29 C29           -1.2563     6.3127     0.3567 C.ar    
  30 C30           -0.2910     5.5808     1.0232 C.ar    
  31 C31           -0.2717     4.2035     0.9184 C.ar    
  32 C32           -1.2786     7.8146     0.4787 C.3     
  33 C33           -3.2507     6.4714    -1.1475 C.3     
  34 H34           -0.5014    -0.3763     0.9053 H       
  35 H35           -0.5138    -0.3729    -0.8746 H       
  36 H36           -2.0266     1.6678    -0.0563 H       
  37 H37            8.2071     2.9691     1.4136 H       
  38 H38            7.9581     3.5753     3.0821 H       
  39 H39            7.4951    -1.2850     2.5730 H       
  40 H40            3.9366     1.7185     0.9524 H       
  41 H41            3.5864    -3.3365     0.4611 H       
  42 H42            3.2942    -2.7586     2.1354 H       
  43 H43            5.3015    -1.7948    -1.5764 H       
  44 H44            4.6520    -1.5824    -3.9440 H       
  45 H45            2.3862    -0.8205    -4.5322 H       
  46 H46            0.7694    -0.2711    -2.7687 H       
  47 H47           -2.9212     3.7918    -1.1444 H       
  48 H48            0.4456     6.0860     1.6302 H       
  49 H49            0.4794     3.6319     1.4433 H       
  50 H50           -1.9047     8.1013     1.3236 H       
  51 H51           -0.2644     8.1814     0.6371 H       
  52 H52           -1.6827     8.2475    -0.4364 H       
  53 H53           -4.1249     6.5893    -0.5072 H       
  54 H54           -2.8491     7.4531    -1.3984 H       
  55 H55           -3.5375     5.9517    -2.0618 H       
@<TRIPOS>BOND
   1    1    2 1
   2    1    3 2
   3    1    4 am
   4    2   17 1
   5    2   34 1
   6    2   35 1
   7    4   26 1
   8    4   36 1
   9    5    6 1
  10    5    9 1
  11    6    7 1
  12    6   37 1
  13    6   38 1
  14    7    8 1
  15    8    9 ar
  16    8   10 ar
  17    9   13 ar
  18   10   11 ar
  19   10   39 1
  20   11   12 ar
  21   11   14 1
  22   12   13 ar
  23   12   15 1
  24   13   40 1
  25   14   16 1
  26   15   16 1
  27   15   18 1
  28   15   19 1
  29   16   41 1
  30   16   42 1
  31   17   18 am
  32   17   24 1
  33   18   25 2
  34   19   20 ar
  35   19   24 ar
  36   20   21 ar
  37   20   43 1
  38   21   22 ar
  39   21   44 1
  40   22   23 ar
  41   22   45 1
  42   23   24 ar
  43   23   46 1
  44   26   27 ar
  45   26   31 ar
  46   27   28 ar
  47   27   47 1
  48   28   29 ar
  49   28   33 1
  50   29   30 ar
  51   29   32 1
  52   30   31 ar
  53   30   48 1
  54   31   49 1
  55   32   50 1
  56   32   51 1
  57   32   52 1
  58   33   53 1
  59   33   54 1
  60   33   55 1

#	End of record

