#	Name: ASD00431463
#	Creating user name:	WinNT
#	Creation time:	15. 06. 2019 18:35

#	Modifying user name:	WinNT
#	Modification time:	15. 06. 2019 18:35

#	Program:	/corina/corina34_cracker 3.40 0067  02.08.2006

@<TRIPOS>MOLECULE
ASD00431463
  22   23    0    0    0
SMALL
NO_CHARGES


@<TRIPOS>ATOM
   1 S1            -1.8435     1.4546     1.3480 S.3     
   2 C2            -1.3526    -0.1748     1.1861 C.2     
   3 N3            -1.2591    -0.7371     2.3544 N.2     
   4 C4            -1.5420     0.0017     3.3992 C.2     
   5 C5            -1.8994     1.2755     3.1000 C.2     
   6 C6            -2.2579     2.2939     4.0407 C.1     
   7 N7            -2.5423     3.1018     4.7870 N.1     
   8 O8            -1.0982    -0.7918     0.0090 O.3     
   9 C9            -0.8206    -2.1219     0.0328 C.ar    
  10 C10           -1.8434    -3.0408     0.2101 C.ar    
  11 C11           -1.5563    -4.3985     0.2334 C.ar    
  12 C12           -0.2451    -4.8323     0.0790 C.ar    
  13 C13            0.7710    -3.9135    -0.0974 C.ar    
  14 C14            0.4863    -2.5614    -0.1261 C.ar    
  15 N15           -2.5838    -5.3275     0.4122 N.pl3   
  16 H16           -1.4952    -0.3718     4.4114 H       
  17 H17           -2.8614    -2.7009     0.3301 H       
  18 H18           -0.0204    -5.8886     0.0973 H       
  19 H19            1.7894    -4.2525    -0.2168 H       
  20 H20            1.2824    -1.8456    -0.2687 H       
  21 H21           -3.4988    -5.0240     0.5202 H       
  22 H22           -2.3825    -6.2762     0.4284 H       
@<TRIPOS>BOND
   1    1    2 1
   2    1    5 1
   3    2    3 2
   4    2    8 1
   5    3    4 1
   6    4    5 2
   7    4   16 1
   8    5    6 1
   9    6    7 3
  10    8    9 1
  11    9   10 ar
  12    9   14 ar
  13   10   11 ar
  14   10   17 1
  15   11   12 ar
  16   11   15 1
  17   12   13 ar
  18   12   18 1
  19   13   14 ar
  20   13   19 1
  21   14   20 1
  22   15   21 1
  23   15   22 1

#	End of record

