#	Name: ASD01411178
#	Creating user name:	WinNT
#	Creation time:	15. 06. 2019 19:19

#	Modifying user name:	WinNT
#	Modification time:	15. 06. 2019 19:19

#	Program:	/corina/corina34_cracker 3.40 0067  02.08.2006

@<TRIPOS>MOLECULE
ASD01411178
  68   70    0    0    0
SMALL
NO_CHARGES


@<TRIPOS>ATOM
   1 C1             0.1790     1.3718    -0.1359 C.ar    
   2 C2             0.3167     0.0066    -0.1065 C.ar    
   3 C3             1.5757    -0.5882    -0.0542 C.ar    
   4 C4             2.7059     0.2174    -0.0250 C.ar    
   5 C5             2.5733     1.5919    -0.0521 C.ar    
   6 C6             1.3148     2.1759    -0.1088 C.ar    
   7 P7            -1.1297    -1.0951    -0.1286 P.3     
   8 N8            -0.5903    -2.5992     0.2723 N.2     
   9 C9             0.6835    -2.8473     0.2763 C.2     
  10 N10            1.6823    -1.9775    -0.0386 N.pl3   
  11 C11            1.0910    -4.2114     0.6621 C.2     
  12 C12            0.2433    -5.2184     1.0102 C.2     
  13 C13            1.1063    -6.4194     1.3221 C.3     
  14 N14            2.4932    -5.9852     1.1157 N.am    
  15 C15            2.4711    -4.6983     0.7251 C.2     
  16 C16            3.6902    -6.8101     1.2970 C.3     
  17 C17            3.9599    -7.6056     0.0182 C.3     
  18 C18            5.2100    -8.4671     0.2075 C.3     
  19 C19            4.9915    -9.4339     1.3730 C.3     
  20 C20            5.4797    -9.2626    -1.0713 C.3     
  21 C21            6.4091    -7.5662     0.5101 C.3     
  22 O22           -2.1300    -0.6362     0.8609 O.2     
  23 O23           -1.7808    -1.1186    -1.6009 O.3     
  24 O24           -1.0984    -5.1564     1.0660 O.3     
  25 O25            3.4562    -4.0331     0.4653 O.2     
  26 N26            1.1888     3.5693    -0.1390 N.am    
  27 S27            0.6966     4.3856     1.2152 S.o2    
  28 O28            0.6803     5.7493     0.8157 O.2     
  29 O29           -0.4973     3.7234     1.6091 O.2     
  30 C30            2.0160     4.0925     2.4250 C.3     
  31 C31           -2.2881     0.0511    -2.2463 C.3     
  32 C32           -2.8322    -0.3233    -3.6264 C.3     
  33 C33            0.9005    -6.8533     2.7748 C.3     
  34 C34            1.2834    -5.7040     3.7094 C.3     
  35 O35            0.9882    -6.0691     5.0590 O.3     
  36 H36           -0.8030     1.8186    -0.1843 H       
  37 H37            3.6878    -0.2301     0.0192 H       
  38 H38            3.4541     2.2165    -0.0292 H       
  39 H39            2.5432    -2.3581    -0.2728 H       
  40 H40            0.8654    -7.2404     0.6467 H       
  41 H41            4.5445    -6.1683     1.5125 H       
  42 H42            3.5345    -7.4988     2.1273 H       
  43 H43            3.1056    -8.2474    -0.1974 H       
  44 H44            4.1156    -6.9168    -0.8122 H       
  45 H45            4.1372   -10.0756     1.1575 H       
  46 H46            5.8821   -10.0476     1.5079 H       
  47 H47            4.7994    -8.8671     2.2841 H       
  48 H48            5.6354    -8.5739    -1.9016 H       
  49 H49            6.3703    -9.8763    -0.9364 H       
  50 H50            4.6254    -9.9044    -1.2869 H       
  51 H51            6.2170    -6.9995     1.4212 H       
  52 H52            7.2998    -8.1800     0.6450 H       
  53 H53            6.5648    -6.8775    -0.3202 H       
  54 H54           -1.5089    -4.3117     0.8358 H       
  55 H55            1.3896     4.0569    -0.9531 H       
  56 H56            2.9388     4.5556     2.0757 H       
  57 H57            1.7324     4.5259     3.3841 H       
  58 H58            2.1696     3.0197     2.5423 H       
  59 H59           -3.0891     0.4799    -1.6441 H       
  60 H60           -1.4865     0.7813    -2.3576 H       
  61 H61           -3.2191     0.5689    -4.1187 H       
  62 H62           -2.0312    -0.7520    -4.2286 H       
  63 H63           -3.6338    -1.0535    -3.5151 H       
  64 H64           -0.1459    -7.1154     2.9309 H       
  65 H65            1.5276    -7.7190     2.9877 H       
  66 H66            2.3493    -5.4976     3.6137 H       
  67 H67            0.7153    -4.8132     3.4414 H       
  68 H68            1.2059    -5.3860     5.7079 H       
@<TRIPOS>BOND
   1    1    2 ar
   2    1    6 ar
   3    1   36 1
   4    2    3 ar
   5    2    7 1
   6    3    4 ar
   7    3   10 1
   8    4    5 ar
   9    4   37 1
  10    5    6 ar
  11    5   38 1
  12    6   26 1
  13    7    8 1
  14    7   22 2
  15    7   23 1
  16    8    9 2
  17    9   10 1
  18    9   11 1
  19   10   39 1
  20   11   12 2
  21   11   15 1
  22   12   13 1
  23   12   24 1
  24   13   14 1
  25   13   33 1
  26   13   40 1
  27   14   15 am
  28   14   16 1
  29   15   25 2
  30   16   17 1
  31   16   41 1
  32   16   42 1
  33   17   18 1
  34   17   43 1
  35   17   44 1
  36   18   19 1
  37   18   20 1
  38   18   21 1
  39   19   45 1
  40   19   46 1
  41   19   47 1
  42   20   48 1
  43   20   49 1
  44   20   50 1
  45   21   51 1
  46   21   52 1
  47   21   53 1
  48   23   31 1
  49   24   54 1
  50   26   27 am
  51   26   55 1
  52   27   28 2
  53   27   29 2
  54   27   30 1
  55   30   56 1
  56   30   57 1
  57   30   58 1
  58   31   32 1
  59   31   59 1
  60   31   60 1
  61   32   61 1
  62   32   62 1
  63   32   63 1
  64   33   34 1
  65   33   64 1
  66   33   65 1
  67   34   35 1
  68   34   66 1
  69   34   67 1
  70   35   68 1

#	End of record

