#	Name: ASD04910184
#	Creating user name:	WinNT
#	Creation time:	15. 06. 2019 20:55

#	Modifying user name:	WinNT
#	Modification time:	15. 06. 2019 20:55

#	Program:	/corina/corina34_cracker 3.40 0067  02.08.2006

@<TRIPOS>MOLECULE
ASD04910184
  27   28    0    0    0
SMALL
NO_CHARGES


@<TRIPOS>ATOM
   1 N1             0.0238     1.3402     0.0173 N.pl3   
   2 N2             1.0644     1.5433    -0.7128 N.2     
   3 N3             1.9583     0.6508    -0.4713 N.2     
   4 C4             1.4967    -0.1885     0.4625 C.2     
   5 C5             0.2546     0.2413     0.7866 C.2     
   6 C6             2.2178    -1.3789     1.0402 C.3     
   7 F7             3.5208    -1.4260     0.5331 F       
   8 F8             2.2636    -1.2651     2.4338 F       
   9 F9             1.5385    -2.5507     0.6901 F       
  10 C10           -1.1425     2.1192     0.0232 C.ar    
  11 C11           -2.3855     1.5110    -0.0878 C.ar    
  12 C12           -3.5325     2.2803    -0.0812 C.ar    
  13 C13           -3.4435     3.6561     0.0360 C.ar    
  14 C14           -2.2058     4.2647     0.1463 C.ar    
  15 C15           -1.0562     3.4993     0.1460 C.ar    
  16 C16            0.2912     4.1623     0.2729 C.3     
  17 C17           -2.4831     0.0127    -0.2159 C.3     
  18 Br18          -5.0160     4.7064     0.0447 Br      
  19 H19           -0.4169    -0.1983     1.5093 H       
  20 H20           -4.4997     1.8076    -0.1679 H       
  21 H21           -2.1389     5.3388     0.2373 H       
  22 H22            0.7113     4.3245    -0.7197 H       
  23 H23            0.1784     5.1202     0.7807 H       
  24 H24            0.9585     3.5217     0.8496 H       
  25 H25           -2.4605    -0.4391     0.7758 H       
  26 H26           -3.4169    -0.2494    -0.7134 H       
  27 H27           -1.6425    -0.3573    -0.8029 H       
@<TRIPOS>BOND
   1    1    2 1
   2    1    5 1
   3    1   10 1
   4    2    3 2
   5    3    4 1
   6    4    5 2
   7    4    6 1
   8    5   19 1
   9    6    7 1
  10    6    8 1
  11    6    9 1
  12   10   11 ar
  13   10   15 ar
  14   11   12 ar
  15   11   17 1
  16   12   13 ar
  17   12   20 1
  18   13   14 ar
  19   13   18 1
  20   14   15 ar
  21   14   21 1
  22   15   16 1
  23   16   22 1
  24   16   23 1
  25   16   24 1
  26   17   25 1
  27   17   26 1
  28   17   27 1

#	End of record

