#	Name: ASD05763005
#	Creating user name:	WinNT
#	Creation time:	15. 06. 2019 21:03

#	Modifying user name:	WinNT
#	Modification time:	15. 06. 2019 21:03

#	Program:	/corina/corina34_cracker 3.40 0067  02.08.2006

@<TRIPOS>MOLECULE
ASD05763005
 205  208    0    0    0
SMALL
NO_CHARGES


@<TRIPOS>ATOM
   1 C1            -1.9810    -3.9545     2.9977 C.2     
   2 O2            -2.3004    -5.1201     2.8973 O.2     
   3 N3             0.2786    -4.8022     3.2525 N.am    
   4 C4            -0.5350    -3.5847     3.2065 C.3     
   5 C5            -5.0453    -2.1959     2.0593 C.2     
   6 O6            -4.4455    -1.1749     1.7972 O.2     
   7 N7            -2.9184    -2.9895     2.9171 N.am    
   8 C8            -4.3233    -3.3486     2.7082 C.3     
   9 C9            -4.9747    -3.6648     4.0559 C.3     
  10 C10           -8.5285    -1.2584     1.4664 C.2     
  11 O11           -8.9478    -2.1621     2.1582 O.2     
  12 N12           -6.3576    -2.2996     1.7703 N.am    
  13 C13           -7.0595    -1.1790     1.1395 C.3     
  14 C14           -6.8701    -1.2474    -0.3772 C.3     
  15 C15           -5.3924    -1.0419    -0.7164 C.3     
  16 C16           -5.2031    -1.1102    -2.2331 C.3     
  17 N17           -3.7881    -0.9135    -2.5579 N.pl3   
  18 C18           -3.3745    -0.9341    -3.8688 C.2     
  19 N19           -4.2412    -1.1287    -4.8227 N.2     
  20 N20           -2.0466    -0.7494    -4.1737 N.pl3   
  21 C21          -11.5958     0.3063     0.2391 C.2     
  22 O22          -11.0269     0.9988    -0.5781 O.2     
  23 N23           -9.3763    -0.3252     0.9901 N.am    
  24 C24          -10.8043    -0.4024     1.3079 C.3     
  25 C25          -11.0625     0.2645     2.6605 C.3     
  26 C26          -10.3564    -0.5276     3.7627 C.3     
  27 C27          -10.5222     1.6957     2.6349 C.3     
  28 C28          -15.1257     1.1112    -0.2660 C.2     
  29 O29          -15.4460     0.6273     0.7989 O.2     
  30 N30          -12.9358     0.1707     0.1913 N.am    
  31 C31          -13.7167     0.9471    -0.7749 C.3     
  32 C32          -13.7416     0.2136    -2.1174 C.3     
  33 C33          -12.3467     0.1577    -2.6852 C.ar    
  34 C34          -11.5190    -0.9070    -2.3814 C.ar    
  35 C35          -10.2396    -0.9583    -2.9021 C.ar    
  36 C36           -9.7879     0.0548    -3.7270 C.ar    
  37 C37          -10.6159     1.1190    -4.0315 C.ar    
  38 C38          -11.8969     1.1682    -3.5143 C.ar    
  39 C39          -18.3312     2.1770    -1.6632 C.2     
  40 O40          -17.8941     2.1994    -2.7943 O.2     
  41 N41          -16.0297     1.7958    -0.9944 N.am    
  42 C42          -17.3994     1.9554    -0.4997 C.3     
  43 C43          -17.4644     3.1593     0.4423 C.3     
  44 C44          -16.6280     2.8858     1.6656 C.ar    
  45 C45          -15.2914     3.2380     1.6819 C.ar    
  46 C46          -14.5242     2.9870     2.8041 C.ar    
  47 C47          -15.0937     2.3842     3.9101 C.ar    
  48 C48          -16.4305     2.0329     3.8941 C.ar    
  49 C49          -17.1988     2.2878     2.7736 C.ar    
  50 C50          -21.7767     3.3140    -2.1084 C.2     
  51 O51          -21.9364     3.5330    -0.9262 O.2     
  52 N52          -19.6501     2.3502    -1.4468 N.am    
  53 C53          -20.5559     2.5656    -2.5779 C.3     
  54 C54          -20.9779     1.2142    -3.1579 C.3     
  55 C55          -19.7610     0.5216    -3.7749 C.3     
  56 C56          -21.5527     0.3379    -2.0432 C.3     
  57 C57          -25.0027     4.1917    -3.5868 C.2     
  58 O58          -24.7518     3.6068    -4.6191 O.2     
  59 N59          -22.6912     3.7400    -3.0021 N.am    
  60 C60          -23.9335     4.3630    -2.5387 C.3     
  61 C61          -23.6951     5.8541    -2.2923 C.3     
  62 C62          -22.7163     6.0259    -1.1594 C.2     
  63 C63          -21.5663     6.7251    -1.2063 C.2     
  64 N64          -20.9893     6.6219     0.0306 N.pl3   
  65 C65          -21.8073     5.8626     0.7909 C.2     
  66 N66          -22.8405     5.5139     0.0741 N.2     
  67 C67          -28.3034     5.6160    -4.2499 C.2     
  68 O68          -28.1787     6.4525    -3.3806 O.2     
  69 N69          -26.2379     4.6885    -3.3768 N.am    
  70 C70          -27.2773     4.5220    -4.3957 C.3     
  71 C71          -27.9536     3.1613    -4.2166 C.3     
  72 C72          -26.9395     2.0481    -4.4873 C.3     
  73 C73          -27.6056     0.7079    -4.3109 C.2     
  74 O74          -28.7719     0.6491    -4.0005 O.2     
  75 O75          -26.9034    -0.4205    -4.4986 O.3     
  76 C76          -31.4264     6.5572    -5.9920 C.2     
  77 O77          -31.3616     5.6372    -6.7797 O.2     
  78 N78          -29.3597     5.6649    -5.0857 N.am    
  79 C79          -30.3572     6.7285    -4.9440 C.3     
  80 C80          -34.1430     8.5911    -7.3508 C.2     
  81 O81          -33.7735     9.5816    -6.7565 O.2     
  82 N82          -32.4547     7.4262    -6.0540 N.am    
  83 C83          -33.4942     7.2597    -7.0728 C.3     
  84 C84          -34.5495     6.2735    -6.5682 C.3     
  85 C85          -33.9272     4.9105    -6.4071 C.ar    
  86 C86          -33.3507     4.5531    -5.2023 C.ar    
  87 C87          -32.7791     3.3044    -5.0522 C.ar    
  88 C88          -32.7843     2.4086    -6.1116 C.ar    
  89 O89          -32.2230     1.1795    -5.9663 O.3     
  90 C90          -33.3638     2.7695    -7.3193 C.ar    
  91 C91          -33.9386     4.0175    -7.4626 C.ar    
  92 C92          -37.1586     9.7545    -9.0584 C.2     
  93 O93          -37.5834     8.6269    -9.1955 O.2     
  94 N94          -35.1338     8.6812    -8.2600 N.am    
  95 C95          -35.7646     9.9755    -8.5303 C.3     
  96 C96          -34.9402    10.7374    -9.5699 C.3     
  97 C97          -33.5658    11.0709    -8.9862 C.3     
  98 C98          -32.7538    11.8213   -10.0102 C.2     
  99 O99          -33.2277    12.0654   -11.0996 O.2     
 100 N100         -31.5009    12.2213    -9.7154 N.am    
 101 C101         -39.9372    11.9266   -10.1697 C.2     
 102 O102         -39.3299    12.9500    -9.9605 O.2     
 103 N103         -37.9332    10.8100    -9.3783 N.am    
 104 C104         -39.2884    10.5952    -9.8917 C.3     
 105 O105         -41.1898    11.9757   -10.6498 O.3     
 106 O106           2.1374    -3.6296     3.5557 O.2     
 107 C107           1.6115    -4.7155     3.4322 C.2     
 108 C108           2.4484    -5.9678     3.4795 C.3     
 109 H109          -0.1420    -5.6706     3.1537 H       
 110 H110          -0.1989    -2.9539     2.3835 H       
 111 H111          -0.4307    -3.0423     4.1461 H       
 112 H112          -2.6629    -2.0572     2.9974 H       
 113 H113          -4.3822    -4.2243     2.0618 H       
 114 H114          -4.9158    -2.7891     4.7023 H       
 115 H115          -6.0200    -3.9320     3.9005 H       
 116 H116          -4.4525    -4.4985     4.5252 H       
 117 H117          -6.8374    -3.1162     1.9799 H       
 118 H118          -6.6542    -0.2392     1.5143 H       
 119 H119          -7.1940    -2.2228    -0.7402 H       
 120 H120          -7.4641    -0.4670    -0.8530 H       
 121 H121          -5.0685    -0.0665    -0.3534 H       
 122 H122          -4.7985    -1.8222    -0.2405 H       
 123 H123          -5.5269    -2.0856    -2.5961 H       
 124 H124          -5.7970    -0.3299    -2.7089 H       
 125 H125          -3.1431    -0.7686    -1.8480 H       
 126 H126          -3.9493    -1.1432    -5.7477 H       
 127 H127          -1.4017    -0.6046    -3.4638 H       
 128 H128          -1.7548    -0.7640    -5.0986 H       
 129 H129          -9.0409     0.3975     0.4368 H       
 130 H130         -11.1103    -1.4476     1.3537 H       
 131 H131         -12.1345     0.2842     2.8570 H       
 132 H132          -9.2771    -0.4454     3.6346 H       
 133 H133         -10.6384    -0.1263     4.7361 H       
 134 H134         -10.6507    -1.5754     3.7026 H       
 135 H135         -11.0253     2.2600     1.8496 H       
 136 H136         -10.7062     2.1708     3.5985 H       
 137 H137          -9.4503     1.6759     2.4383 H       
 138 H138         -13.3833    -0.4410     0.7967 H       
 139 H139         -13.2609     1.9286    -0.9055 H       
 140 H140         -14.1151    -0.7998    -1.9709 H       
 141 H141         -14.3946     0.7450    -2.8097 H       
 142 H142         -11.8719    -1.6986    -1.7369 H       
 143 H143          -9.5927    -1.7898    -2.6642 H       
 144 H144          -8.7880     0.0151    -4.1333 H       
 145 H145         -10.2629     1.9108    -4.6757 H       
 146 H146         -12.5451     1.9978    -3.7552 H       
 147 H147         -15.7735     2.1828    -1.8461 H       
 148 H148         -17.6983     1.0561     0.0390 H       
 149 H149         -17.0816     4.0422    -0.0696 H       
 150 H150         -18.4986     3.3320     0.7403 H       
 151 H151         -14.8465     3.7089     0.8178 H       
 152 H152         -13.4797     3.2615     2.8166 H       
 153 H153         -14.4940     2.1875     4.7866 H       
 154 H154         -16.8754     1.5616     4.7581 H       
 155 H155         -18.2441     2.0166     2.7624 H       
 156 H156         -19.9996     2.3323    -0.5422 H       
 157 H157         -20.0461     3.1474    -3.3459 H       
 158 H158         -21.7358     1.3691    -3.9258 H       
 159 H159         -19.0030     0.3667    -3.0070 H       
 160 H160         -20.0617    -0.4412    -4.1881 H       
 161 H161         -19.3515     1.1459    -4.5690 H       
 162 H162         -22.4715     0.7866    -1.6657 H       
 163 H163         -21.7684    -0.6555    -2.4367 H       
 164 H164         -20.8277     0.2583    -1.2332 H       
 165 H165         -22.5268     3.6340    -3.9522 H       
 166 H166         -24.2542     3.8882    -1.6115 H       
 167 H167         -23.2900     6.3114    -3.1950 H       
 168 H168         -24.6385     6.3349    -2.0334 H       
 169 H169         -21.1745     7.2635    -2.0566 H       
 170 H170         -20.1496     7.0198     0.3090 H       
 171 H171         -21.6367     5.5922     1.8225 H       
 172 H172         -26.4386     5.1564    -2.5511 H       
 173 H173         -26.8267     4.5761    -5.3867 H       
 174 H174         -28.3269     3.0726    -3.1963 H       
 175 H175         -28.7847     3.0737    -4.9164 H       
 176 H176         -26.5662     2.1369    -5.5075 H       
 177 H177         -26.1084     2.1357    -3.7875 H       
 178 H178         -27.3737    -1.2562    -4.3740 H       
 179 H179         -29.4594     4.9959    -5.7809 H       
 180 H180         -29.8754     7.6978    -5.0716 H       
 181 H181         -30.8078     6.6743    -3.9530 H       
 182 H182         -32.5065     8.1619    -5.4240 H       
 183 H183         -33.0464     6.8753    -7.9893 H       
 184 H184         -34.9340     6.6133    -5.6066 H       
 185 H185         -35.3671     6.2170    -7.2869 H       
 186 H186         -33.3469     5.2508    -4.3780 H       
 187 H187         -32.3283     3.0260    -4.1112 H       
 188 H188         -32.8359     0.5023    -5.6486 H       
 189 H189         -33.3687     2.0740    -8.1455 H       
 190 H190         -34.3938     4.2973    -8.4012 H       
 191 H191         -35.4294     7.8890    -8.7354 H       
 192 H192         -35.8129    10.5557    -7.6087 H       
 193 H193         -34.8170    10.1198   -10.4595 H       
 194 H194         -35.4552    11.6602    -9.8367 H       
 195 H195         -33.6890    11.6885    -8.0965 H       
 196 H196         -33.0507    10.1481    -8.7193 H       
 197 H197         -31.1219    12.0261    -8.8441 H       
 198 H198         -30.9783    12.7043   -10.3745 H       
 199 H199         -37.5935    11.7119    -9.2686 H       
 200 H200         -39.8757    10.0524    -9.1510 H       
 201 H201         -39.2401    10.0151   -10.8132 H       
 202 H202         -41.5636    12.8525   -10.8124 H       
 203 H203           1.8062    -6.8391     3.3514 H       
 204 H204           3.1882    -5.9409     2.6794 H       
 205 H205           2.9563    -6.0292     4.4420 H       
@<TRIPOS>BOND
   1    1    2 2
   2    1    4 1
   3    1    7 am
   4    3    4 1
   5    3  107 am
   6    3  109 1
   7    4  110 1
   8    4  111 1
   9    5    6 2
  10    5    8 1
  11    5   12 am
  12    7    8 1
  13    7  112 1
  14    8    9 1
  15    8  113 1
  16    9  114 1
  17    9  115 1
  18    9  116 1
  19   10   11 2
  20   10   13 1
  21   10   23 am
  22   12   13 1
  23   12  117 1
  24   13   14 1
  25   13  118 1
  26   14   15 1
  27   14  119 1
  28   14  120 1
  29   15   16 1
  30   15  121 1
  31   15  122 1
  32   16   17 1
  33   16  123 1
  34   16  124 1
  35   17   18 1
  36   17  125 1
  37   18   19 2
  38   18   20 1
  39   19  126 1
  40   20  127 1
  41   20  128 1
  42   21   22 2
  43   21   24 1
  44   21   30 am
  45   23   24 1
  46   23  129 1
  47   24   25 1
  48   24  130 1
  49   25   26 1
  50   25   27 1
  51   25  131 1
  52   26  132 1
  53   26  133 1
  54   26  134 1
  55   27  135 1
  56   27  136 1
  57   27  137 1
  58   28   29 2
  59   28   31 1
  60   28   41 am
  61   30   31 1
  62   30  138 1
  63   31   32 1
  64   31  139 1
  65   32   33 1
  66   32  140 1
  67   32  141 1
  68   33   34 ar
  69   33   38 ar
  70   34   35 ar
  71   34  142 1
  72   35   36 ar
  73   35  143 1
  74   36   37 ar
  75   36  144 1
  76   37   38 ar
  77   37  145 1
  78   38  146 1
  79   39   40 2
  80   39   42 1
  81   39   52 am
  82   41   42 1
  83   41  147 1
  84   42   43 1
  85   42  148 1
  86   43   44 1
  87   43  149 1
  88   43  150 1
  89   44   45 ar
  90   44   49 ar
  91   45   46 ar
  92   45  151 1
  93   46   47 ar
  94   46  152 1
  95   47   48 ar
  96   47  153 1
  97   48   49 ar
  98   48  154 1
  99   49  155 1
 100   50   51 2
 101   50   53 1
 102   50   59 am
 103   52   53 1
 104   52  156 1
 105   53   54 1
 106   53  157 1
 107   54   55 1
 108   54   56 1
 109   54  158 1
 110   55  159 1
 111   55  160 1
 112   55  161 1
 113   56  162 1
 114   56  163 1
 115   56  164 1
 116   57   58 2
 117   57   60 1
 118   57   69 am
 119   59   60 1
 120   59  165 1
 121   60   61 1
 122   60  166 1
 123   61   62 1
 124   61  167 1
 125   61  168 1
 126   62   63 2
 127   62   66 1
 128   63   64 1
 129   63  169 1
 130   64   65 1
 131   64  170 1
 132   65   66 2
 133   65  171 1
 134   67   68 2
 135   67   70 1
 136   67   78 am
 137   69   70 1
 138   69  172 1
 139   70   71 1
 140   70  173 1
 141   71   72 1
 142   71  174 1
 143   71  175 1
 144   72   73 1
 145   72  176 1
 146   72  177 1
 147   73   74 2
 148   73   75 1
 149   75  178 1
 150   76   77 2
 151   76   79 1
 152   76   82 am
 153   78   79 1
 154   78  179 1
 155   79  180 1
 156   79  181 1
 157   80   81 2
 158   80   83 1
 159   80   94 am
 160   82   83 1
 161   82  182 1
 162   83   84 1
 163   83  183 1
 164   84   85 1
 165   84  184 1
 166   84  185 1
 167   85   86 ar
 168   85   91 ar
 169   86   87 ar
 170   86  186 1
 171   87   88 ar
 172   87  187 1
 173   88   89 1
 174   88   90 ar
 175   89  188 1
 176   90   91 ar
 177   90  189 1
 178   91  190 1
 179   92   93 2
 180   92   95 1
 181   92  103 am
 182   94   95 1
 183   94  191 1
 184   95   96 1
 185   95  192 1
 186   96   97 1
 187   96  193 1
 188   96  194 1
 189   97   98 1
 190   97  195 1
 191   97  196 1
 192   98   99 2
 193   98  100 am
 194  100  197 1
 195  100  198 1
 196  101  102 2
 197  101  104 1
 198  101  105 1
 199  103  104 1
 200  103  199 1
 201  104  200 1
 202  104  201 1
 203  105  202 1
 204  106  107 2
 205  107  108 1
 206  108  203 1
 207  108  204 1
 208  108  205 1

#	End of record

