#	Name: ASD01901107
#	Creating user name:	WinNT
#	Creation time:	15. 06. 2019 19:53

#	Modifying user name:	WinNT
#	Modification time:	15. 06. 2019 19:53

#	Program:	/corina/corina34_cracker 3.40 0067  02.08.2006

@<TRIPOS>MOLECULE
ASD01901107
  43   45    0    0    0
SMALL
NO_CHARGES


@<TRIPOS>ATOM
   1 C1            -0.0184     1.5028     0.0103 C.2     
   2 C2             0.0021    -0.0041     0.0020 C.3     
   3 O3            -1.3386    -0.4987     0.0122 O.3     
   4 C4            -1.4983    -1.8483     0.0064 C.ar    
   5 C5            -2.7726    -2.3972     0.0157 C.ar    
   6 C6            -2.9323    -3.7692     0.0099 C.ar    
   7 C7            -1.8235    -4.5955    -0.0047 C.ar    
   8 C8            -0.5529    -4.0510    -0.0134 C.ar    
   9 C9            -0.3878    -2.6792    -0.0144 C.ar    
  10 C10           -3.9813    -1.4974     0.0325 C.3     
  11 C11           -4.8332    -1.7643    -1.2101 C.3     
  12 C12           -6.0603    -0.8506    -1.1930 C.3     
  13 C13           -6.8880    -1.1317     0.0627 C.3     
  14 C14           -6.0361    -0.8649     1.3053 C.3     
  15 C15           -4.8090    -1.7785     1.2882 C.3     
  16 C16            2.4725     1.5850    -0.0130 C.ar    
  17 C17            1.2453     2.2555     0.0023 C.ar    
  18 C18            1.2403     3.6588     0.0094 C.ar    
  19 C19            2.4551     4.3180     0.0009 C.ar    
  20 C20            3.6277     3.5799    -0.0142 C.ar    
  21 N21            3.6028     2.2592    -0.0206 N.ar    
  22 Cl22           5.1552     4.4048    -0.0255 Cl      
  23 O23           -1.0766     2.0947     0.0185 O.2     
  24 H24            0.5123    -0.3556    -0.8948 H       
  25 H25            0.5293    -0.3651     0.8851 H       
  26 H26           -3.9239    -4.1970     0.0170 H       
  27 H27           -1.9505    -5.6680    -0.0088 H       
  28 H28            0.3115    -4.6984    -0.0244 H       
  29 H29            0.6050    -2.2543    -0.0260 H       
  30 H30           -3.6591    -0.4561     0.0353 H       
  31 H31           -4.2435    -1.5640    -2.1047 H       
  32 H32           -5.1554    -2.8055    -1.2129 H       
  33 H33           -5.7381     0.1906    -1.1902 H       
  34 H34           -6.6672    -1.0408    -2.0783 H       
  35 H35           -7.7622    -0.4809     0.0749 H       
  36 H36           -7.2102    -2.1730     0.0599 H       
  37 H37           -5.7139     0.1764     1.3081 H       
  38 H38           -6.6258    -1.0651     2.1999 H       
  39 H39           -5.1312    -2.8197     1.2854 H       
  40 H40           -4.2021    -1.5883     2.1735 H       
  41 H41            2.4929     0.5052    -0.0142 H       
  42 H42            0.3113     4.2094     0.0209 H       
  43 H43            2.4900     5.3975     0.0056 H       
@<TRIPOS>BOND
   1    1    2 1
   2    1   17 1
   3    1   23 2
   4    2    3 1
   5    2   24 1
   6    2   25 1
   7    3    4 1
   8    4    5 ar
   9    4    9 ar
  10    5    6 ar
  11    5   10 1
  12    6    7 ar
  13    6   26 1
  14    7    8 ar
  15    7   27 1
  16    8    9 ar
  17    8   28 1
  18    9   29 1
  19   10   11 1
  20   10   15 1
  21   10   30 1
  22   11   12 1
  23   11   31 1
  24   11   32 1
  25   12   13 1
  26   12   33 1
  27   12   34 1
  28   13   14 1
  29   13   35 1
  30   13   36 1
  31   14   15 1
  32   14   37 1
  33   14   38 1
  34   15   39 1
  35   15   40 1
  36   16   17 ar
  37   16   21 ar
  38   16   41 1
  39   17   18 ar
  40   18   19 ar
  41   18   42 1
  42   19   20 ar
  43   19   43 1
  44   20   21 ar
  45   20   22 1

#	End of record

