#	Name: ASD02500862
#	Creating user name:	WinNT
#	Creation time:	15. 06. 2019 20:23

#	Modifying user name:	WinNT
#	Modification time:	15. 06. 2019 20:23

#	Program:	/corina/corina34_cracker 3.40 0067  02.08.2006

@<TRIPOS>MOLECULE
ASD02500862
  45   47    0    0    0
SMALL
NO_CHARGES


@<TRIPOS>ATOM
   1 C1            -0.0533     1.5159     0.0096 C.ar    
   2 C2            -0.0657     0.1661     0.3060 C.ar    
   3 C3            -1.2674    -0.5110     0.3976 C.ar    
   4 C4            -2.4584     0.1622     0.1926 C.ar    
   5 C5            -2.4466     1.5135    -0.1042 C.ar    
   6 C6            -1.2442     2.1916    -0.1905 C.ar    
   7 C7             1.2572     2.2534    -0.0896 C.3     
   8 O8             2.3336     1.3478     0.1615 O.3     
   9 C9             3.5923     1.8565     0.1102 C.ar    
  10 C10            3.7839     3.2011    -0.1764 C.ar    
  11 C11            4.6876     1.0273     0.3513 C.ar    
  12 C12            5.9678     1.5414     0.3008 C.ar    
  13 C13            6.1629     2.8968     0.0065 C.ar    
  14 C14            5.0580     3.7233    -0.2295 C.ar    
  15 C15            7.5218     3.4503    -0.0489 C.2     
  16 C16            7.7577     4.6045    -0.7235 C.2     
  17 C17            8.9979     5.3877    -0.7666 C.2     
  18 N18            8.9429     6.4793    -1.5113 N.am    
  19 C19            7.8077     6.7851    -2.1499 C.2     
  20 S20            6.6395     5.5098    -1.7627 S.3     
  21 O21           10.0016     5.0578    -0.1621 O.2     
  22 C22           10.1164     7.3474    -1.6358 C.3     
  23 C23           10.9522     6.8975    -2.8063 C.2     
  24 O24           12.0841     7.5505    -3.1131 O.3     
  25 O25           10.6035     5.9490    -3.4685 O.2     
  26 S26            7.5372     8.1450    -3.1542 S.2     
  27 O27            4.4942    -0.2882     0.6368 O.3     
  28 C28            5.6608    -1.0791     0.8729 C.3     
  29 Cl29          -1.2285     3.8872    -0.5622 Cl      
  30 Cl30          -3.9674    -0.6884     0.3071 Cl      
  31 H31            0.8639    -0.3600     0.4658 H       
  32 H32           -1.2765    -1.5659     0.6289 H       
  33 H33           -3.3762     2.0395    -0.2646 H       
  34 H34            1.3623     2.6745    -1.0894 H       
  35 H35            1.2787     3.0566     0.6470 H       
  36 H36            2.9322     3.8396    -0.3586 H       
  37 H37            6.8165     0.9004     0.4881 H       
  38 H38            5.2042     4.7689    -0.4572 H       
  39 H39            8.3337     2.9392     0.4471 H       
  40 H40            9.7922     8.3759    -1.7948 H       
  41 H41           10.7090     7.2904    -0.7228 H       
  42 H42           12.5866     7.2251    -3.8725 H       
  43 H43            6.2095    -0.6726     1.7225 H       
  44 H44            5.3660    -2.1061     1.0885 H       
  45 H45            6.2967    -1.0618    -0.0122 H       
@<TRIPOS>BOND
   1    1    2 ar
   2    1    7 1
   3    1    6 ar
   4    2    3 ar
   5    2   31 1
   6    3    4 ar
   7    3   32 1
   8    4    5 ar
   9    4   30 1
  10    5    6 ar
  11    5   33 1
  12    6   29 1
  13    7    8 1
  14    7   34 1
  15    7   35 1
  16    8    9 1
  17    9   10 ar
  18    9   11 ar
  19   10   14 ar
  20   10   36 1
  21   11   12 ar
  22   11   27 1
  23   12   13 ar
  24   12   37 1
  25   13   14 ar
  26   13   15 1
  27   14   38 1
  28   15   16 2
  29   15   39 1
  30   16   17 1
  31   16   20 1
  32   17   18 am
  33   17   21 2
  34   18   19 am
  35   18   22 1
  36   19   20 1
  37   19   26 2
  38   22   23 1
  39   22   40 1
  40   22   41 1
  41   23   24 1
  42   23   25 2
  43   24   42 1
  44   27   28 1
  45   28   43 1
  46   28   44 1
  47   28   45 1

#	End of record

