#	Name: ASD05130008
#	Creating user name:	WinNT
#	Creation time:	15. 06. 2019 20:56

#	Modifying user name:	WinNT
#	Modification time:	15. 06. 2019 20:56

#	Program:	/corina/corina34_cracker 3.40 0067  02.08.2006

@<TRIPOS>MOLECULE
ASD05130008
  76   80    0    0    0
SMALL
NO_CHARGES


@<TRIPOS>ATOM
   1 C1             1.0467     3.1616     0.0492 C.2     
   2 O2             2.0823     3.7926     0.0447 O.2     
   3 N3             1.0785     1.8142     0.0377 N.am    
   4 N4             3.6259    -2.2611    -0.0278 N.am    
   5 C5             4.8135    -2.8855    -0.1523 C.2     
   6 C6             6.0343    -2.1098    -0.3846 C.2     
   7 C7             5.9609    -0.7468    -0.4744 C.2     
   8 C8             4.7016    -0.1146    -0.3402 C.ar    
   9 C9             4.5799     1.2779    -0.4247 C.ar    
  10 N10            3.4022     1.8492    -0.2978 N.ar    
  11 C11            2.2940     1.1479    -0.0877 C.ar    
  12 C12            2.3241    -0.2349     0.0098 C.ar    
  13 C13            3.5439    -0.8908    -0.1169 C.ar    
  14 O14            4.8722    -4.0995    -0.0710 O.2     
  15 C15            7.3399    -2.7971    -0.5209 C.ar    
  16 C16            7.9319    -2.9306    -1.7769 C.ar    
  17 C17            9.1483    -3.5705    -1.9025 C.ar    
  18 C18            9.7842    -4.0818    -0.7845 C.ar    
  19 C19            9.2002    -3.9533     0.4719 C.ar    
  20 C20            7.9821    -3.3065     0.6062 C.ar    
  21 C21            7.2428    -2.3763    -2.9971 C.3     
  22 N22            9.8463    -4.4723     1.6012 N.am    
  23 C23            9.7552    -3.8317     2.7835 C.2     
  24 O24            9.0459    -2.8499     2.8900 O.2     
  25 N25           10.4503    -4.2795     3.8479 N.am    
  26 C26           10.2829    -3.6730     5.0991 C.ar    
  27 C27           10.3440    -4.4382     6.2563 C.ar    
  28 C28           10.1786    -3.8383     7.4891 C.ar    
  29 C29            9.9518    -2.4746     7.5719 C.ar    
  30 C30            9.8901    -1.7100     6.4193 C.ar    
  31 C31           10.0612    -2.3053     5.1845 C.ar    
  32 C32           10.2443    -4.6682     8.7453 C.3     
  33 N33           11.5256    -4.4299     9.4231 N.3     
  34 C34           11.5325    -5.0326    10.7634 C.3     
  35 C35           12.9082    -4.8315    11.4033 C.3     
  36 N36           13.2075    -3.3944    11.4736 N.3     
  37 C37           13.2006    -2.7918    10.1333 C.3     
  38 C38           11.8249    -2.9929     9.4935 C.3     
  39 C39           14.4888    -3.1561    12.1515 C.3     
  40 F40            9.7903    -1.8896     8.7789 F       
  41 F41           10.9746    -4.7076    -0.9135 F       
  42 C42            2.4112    -3.0484     0.1982 C.3     
  43 C43            2.1897    -3.2238     1.7019 C.3     
  44 H44            0.0990     3.6792     0.0670 H       
  45 H45            0.2543     1.3089     0.1167 H       
  46 H46            6.8520    -0.1608    -0.6450 H       
  47 H47            5.4566     1.8851    -0.5952 H       
  48 H48            1.4157    -0.7931     0.1816 H       
  49 H49            9.6050    -3.6728    -2.8758 H       
  50 H50            7.5293    -3.2018     1.5811 H       
  51 H51            7.5616    -1.3464    -3.1580 H       
  52 H52            7.5052    -2.9780    -3.8673 H       
  53 H53            6.1633    -2.4036    -2.8486 H       
  54 H54           10.3592    -5.2927     1.5324 H       
  55 H55           11.0666    -5.0218     3.7472 H       
  56 H56           10.5204    -5.5017     6.1922 H       
  57 H57            9.7125    -0.6468     6.4858 H       
  58 H58           10.0181    -1.7077     4.2859 H       
  59 H59            9.4252    -4.3895     9.4082 H       
  60 H60           10.1603    -5.7241     8.4880 H       
  61 H61           10.7711    -4.5555    11.3806 H       
  62 H62           11.3208    -6.0989    10.6838 H       
  63 H63           12.9066    -5.2523    12.4088 H       
  64 H64           13.6662    -5.3317    10.8006 H       
  65 H65           13.4123    -1.7255    10.2130 H       
  66 H66           13.9620    -3.2688     9.5162 H       
  67 H67           11.8265    -2.5721     8.4880 H       
  68 H68           11.0669    -2.4926    10.0962 H       
  69 H69           15.2884    -3.6531    11.6022 H       
  70 H70           14.6858    -2.0847    12.1898 H       
  71 H71           14.4429    -3.5536    13.1654 H       
  72 H72            1.5565    -2.5308    -0.2370 H       
  73 H73            2.5202    -4.0269    -0.2695 H       
  74 H74            1.2860    -3.8096     1.8701 H       
  75 H75            3.0445    -3.7415     2.1372 H       
  76 H76            2.0807    -2.2454     2.1697 H       
@<TRIPOS>BOND
   1    1    2 2
   2    1    3 am
   3    1   44 1
   4    3   11 1
   5    3   45 1
   6    4    5 am
   7    4   13 1
   8    4   42 1
   9    5    6 1
  10    5   14 2
  11    6    7 2
  12    6   15 1
  13    7    8 1
  14    7   46 1
  15    8    9 ar
  16    8   13 ar
  17    9   10 ar
  18    9   47 1
  19   10   11 ar
  20   11   12 ar
  21   12   13 ar
  22   12   48 1
  23   15   16 ar
  24   15   20 ar
  25   16   17 ar
  26   16   21 1
  27   17   18 ar
  28   17   49 1
  29   18   19 ar
  30   18   41 1
  31   19   20 ar
  32   19   22 1
  33   20   50 1
  34   21   51 1
  35   21   52 1
  36   21   53 1
  37   22   23 am
  38   22   54 1
  39   23   24 2
  40   23   25 am
  41   25   26 1
  42   25   55 1
  43   26   27 ar
  44   26   31 ar
  45   27   28 ar
  46   27   56 1
  47   28   29 ar
  48   28   32 1
  49   29   30 ar
  50   29   40 1
  51   30   31 ar
  52   30   57 1
  53   31   58 1
  54   32   33 1
  55   32   59 1
  56   32   60 1
  57   33   34 1
  58   33   38 1
  59   34   35 1
  60   34   61 1
  61   34   62 1
  62   35   36 1
  63   35   63 1
  64   35   64 1
  65   36   37 1
  66   36   39 1
  67   37   38 1
  68   37   65 1
  69   37   66 1
  70   38   67 1
  71   38   68 1
  72   39   69 1
  73   39   70 1
  74   39   71 1
  75   42   43 1
  76   42   72 1
  77   42   73 1
  78   43   74 1
  79   43   75 1
  80   43   76 1

#	End of record

