#	Name: ASD05490158
#	Creating user name:	WinNT
#	Creation time:	15. 06. 2019 21:01

#	Modifying user name:	WinNT
#	Modification time:	15. 06. 2019 21:01

#	Program:	/corina/corina34_cracker 3.40 0067  02.08.2006

@<TRIPOS>MOLECULE
ASD05490158
  67   71    0    0    0
SMALL
NO_CHARGES


@<TRIPOS>ATOM
   1 N1            -0.0159     1.3208     0.0093 N.ar    
   2 C2             0.0021    -0.0041     0.0020 C.ar    
   3 C3             1.1987    -0.7015    -0.0132 C.ar    
   4 C4             2.3925     0.0113    -0.0207 C.ar    
   5 C5             2.3390     1.4074    -0.0127 C.ar    
   6 C6             1.0996     2.0376     0.0025 C.ar    
   7 O7            -1.1704    -0.6885     0.0100 O.3     
   8 N8             1.0295     3.4275     0.0106 N.pl3   
   9 N9             3.7329    -0.3423    -0.0354 N.am    
  10 C10            4.2573    -1.7101    -0.0478 C.3     
  11 C11            4.4235    -2.1715    -1.4727 C.ar    
  12 C12            5.6148    -1.9579    -2.1409 C.ar    
  13 C13            3.3842    -2.8201    -2.1249 C.ar    
  14 N14            5.7727    -2.3570    -3.3867 N.ar    
  15 C15            4.8027    -2.9757    -4.0470 C.ar    
  16 C16            3.5776    -3.2282    -3.4331 C.ar    
  17 C17           -2.3725     0.0841     0.0261 C.3     
  18 C18           -3.5813    -0.8537     0.0331 C.3     
  19 C19           -4.8684    -0.0265     0.0503 C.3     
  20 C20           -6.0773    -0.9643     0.0573 C.3     
  21 C21            5.0257    -3.4066    -5.4488 C.ar    
  22 C22            6.2494    -3.1623    -6.0693 C.ar    
  23 C23            4.0144    -4.0623    -6.1483 C.ar    
  24 C24            4.2276    -4.4614    -7.4521 C.ar    
  25 C25            5.4425    -4.2121    -8.0646 C.ar    
  26 C26            6.4516    -3.5659    -7.3735 C.ar    
  27 N27            5.2653    -3.5744   -10.4027 N.3     
  28 C28            5.6898    -3.8673   -11.7840 C.3     
  29 C29            4.4244    -3.8389   -12.6669 C.3     
  30 C30            3.4391    -2.9738   -11.8377 C.3     
  31 C31            3.7983    -3.3912   -10.3898 C.3     
  32 C32            5.6695    -4.6508    -9.4883 C.3     
  33 C33            4.4718     0.7840    -0.0364 C.2     
  34 N34            3.6596     1.8589    -0.0229 N.am    
  35 O35            5.6880     0.8245    -0.0472 O.2     
  36 H36            1.2044    -1.7815    -0.0187 H       
  37 H37            1.8441     3.9542     0.0057 H       
  38 H38            0.1662     3.8696     0.0213 H       
  39 H39            5.2232    -1.7335     0.4567 H       
  40 H40            3.5613    -2.3708     0.4692 H       
  41 H41            6.4269    -1.4569    -1.6351 H       
  42 H42            2.4456    -3.0025    -1.6226 H       
  43 H43            2.7888    -3.7323    -3.9717 H       
  44 H44           -2.3914     0.7080     0.9197 H       
  45 H45           -2.4091     0.7175    -0.8602 H       
  46 H46           -3.5624    -1.4776    -0.8605 H       
  47 H47           -3.5447    -1.4872     0.9193 H       
  48 H48           -4.8874     0.5974     0.9439 H       
  49 H49           -4.9050     0.6069    -0.8360 H       
  50 H50           -6.0583    -1.5882    -0.8363 H       
  51 H51           -6.0406    -1.5978     0.9435 H       
  52 H52           -6.9942    -0.3750     0.0695 H       
  53 H53            7.0380    -2.6578    -5.5306 H       
  54 H54            3.0656    -4.2582    -5.6708 H       
  55 H55            3.4445    -4.9697    -7.9951 H       
  56 H56            7.3982    -3.3737    -7.8566 H       
  57 H57            6.3959    -3.1095   -12.1235 H       
  58 H58            6.1512    -4.8538   -11.8288 H       
  59 H59            4.6352    -3.3691   -13.6276 H       
  60 H60            4.0297    -4.8452   -12.8071 H       
  61 H61            3.6246    -1.9113   -11.9952 H       
  62 H62            2.4050    -3.2269   -12.0718 H       
  63 H63            3.3014    -4.3259   -10.1300 H       
  64 H64            3.5202    -2.6048    -9.6881 H       
  65 H65            6.7260    -4.8749    -9.6354 H       
  66 H66            5.0770    -5.5426    -9.6926 H       
  67 H67            3.9436     2.7863    -0.0206 H       
@<TRIPOS>BOND
   1    1    2 ar
   2    1    6 ar
   3    2    3 ar
   4    2    7 1
   5    3    4 ar
   6    3   36 1
   7    4    5 ar
   8    4    9 1
   9    5    6 ar
  10    5   34 1
  11    6    8 1
  12    7   17 1
  13    8   37 1
  14    8   38 1
  15    9   10 1
  16    9   33 am
  17   10   11 1
  18   10   39 1
  19   10   40 1
  20   11   12 ar
  21   11   13 ar
  22   12   14 ar
  23   12   41 1
  24   13   16 ar
  25   13   42 1
  26   14   15 ar
  27   15   16 ar
  28   15   21 1
  29   16   43 1
  30   17   18 1
  31   17   44 1
  32   17   45 1
  33   18   19 1
  34   18   46 1
  35   18   47 1
  36   19   20 1
  37   19   48 1
  38   19   49 1
  39   20   50 1
  40   20   51 1
  41   20   52 1
  42   21   22 ar
  43   21   23 ar
  44   22   26 ar
  45   22   53 1
  46   23   24 ar
  47   23   54 1
  48   24   25 ar
  49   24   55 1
  50   25   26 ar
  51   25   32 1
  52   26   56 1
  53   27   28 1
  54   27   31 1
  55   27   32 1
  56   28   29 1
  57   28   57 1
  58   28   58 1
  59   29   30 1
  60   29   59 1
  61   29   60 1
  62   30   31 1
  63   30   61 1
  64   30   62 1
  65   31   63 1
  66   31   64 1
  67   32   65 1
  68   32   66 1
  69   33   34 am
  70   33   35 2
  71   34   67 1

#	End of record

