#	Name: ASD05790011
#	Creating user name:	WinNT
#	Creation time:	15. 06. 2019 21:03

#	Modifying user name:	WinNT
#	Modification time:	15. 06. 2019 21:03

#	Program:	/corina/corina34_cracker 3.40 0067  02.08.2006

@<TRIPOS>MOLECULE
ASD05790011
  45   48    0    0    0
SMALL
NO_CHARGES


@<TRIPOS>ATOM
   1 C1            -0.1753     1.4731    -0.5693 C.2     
   2 C2            -0.1532    -0.0033    -0.5731 C.ar    
   3 C3             0.8996    -0.6890    -1.1880 C.ar    
   4 C4             0.9122    -2.0716    -1.1869 C.ar    
   5 C5            -0.1125    -2.7742    -0.5805 C.ar    
   6 C6            -1.1568    -2.1008     0.0295 C.ar    
   7 C7            -1.1802    -0.7220     0.0420 C.ar    
   8 O8             0.7231     2.0959    -1.1015 O.2     
   9 N9            -1.1942     2.1303     0.0193 N.am    
  10 C10           -1.1619     3.5227     0.1191 C.ar    
  11 C11           -2.3411     4.2529     0.0191 C.ar    
  12 C12           -2.3127     5.6268     0.1167 C.ar    
  13 C13           -1.0979     6.2861     0.3168 C.ar    
  14 C14            0.0846     5.5497     0.4174 C.ar    
  15 C15            0.0486     4.1757     0.3241 C.ar    
  16 O16           -2.1299     8.5742     0.3412 O.3     
  17 C17           -1.0636     7.7593     0.4215 C.2     
  18 N18            0.0119     8.4862     0.6080 N.2     
  19 C19           -0.3494     9.7856     0.6504 C.2     
  20 C20           -1.6948     9.8413     0.4829 C.2     
  21 C21           -2.5429    11.0868     0.4592 C.3     
  22 F22           -2.6391    11.5605    -0.8536 F       
  23 F23           -3.8217    10.7894     0.9425 F       
  24 F24           -1.9554    12.0665     1.2667 F       
  25 C25            0.5589    10.9427     0.8459 C.ar    
  26 C26            1.6702    10.8266     1.6785 C.ar    
  27 C27            2.5118    11.9058     1.8563 C.ar    
  28 C28            2.2537    13.1013     1.2101 C.ar    
  29 C29            1.1517    13.2223     0.3828 C.ar    
  30 C30            0.3068    12.1477     0.1929 C.ar    
  31 F31            1.9006    -0.0026    -1.7814 F       
  32 H32            1.7237    -2.6037    -1.6608 H       
  33 H33           -0.0984    -3.8541    -0.5830 H       
  34 H34           -1.9536    -2.6569     0.5007 H       
  35 H35           -1.9939    -0.1992     0.5225 H       
  36 H36           -1.9499     1.6360     0.3736 H       
  37 H37           -3.2802     3.7425    -0.1357 H       
  38 H38           -3.2287     6.1934     0.0382 H       
  39 H39            1.0256     6.0566     0.5717 H       
  40 H40            0.9620     3.6054     0.4061 H       
  41 H41            1.8722     9.8939     2.1840 H       
  42 H42            3.3734    11.8169     2.5014 H       
  43 H43            2.9148    13.9434     1.3523 H       
  44 H44            0.9547    14.1582    -0.1191 H       
  45 H45           -0.5506    12.2418    -0.4570 H       
@<TRIPOS>BOND
   1    1    2 1
   2    1    8 2
   3    1    9 am
   4    2    3 ar
   5    2    7 ar
   6    3    4 ar
   7    3   31 1
   8    4    5 ar
   9    4   32 1
  10    5    6 ar
  11    5   33 1
  12    6    7 ar
  13    6   34 1
  14    7   35 1
  15    9   10 1
  16    9   36 1
  17   10   11 ar
  18   10   15 ar
  19   11   12 ar
  20   11   37 1
  21   12   13 ar
  22   12   38 1
  23   13   14 ar
  24   13   17 1
  25   14   15 ar
  26   14   39 1
  27   15   40 1
  28   16   17 1
  29   16   20 1
  30   17   18 2
  31   18   19 1
  32   19   20 2
  33   19   25 1
  34   20   21 1
  35   21   22 1
  36   21   23 1
  37   21   24 1
  38   25   26 ar
  39   25   30 ar
  40   26   27 ar
  41   26   41 1
  42   27   28 ar
  43   27   42 1
  44   28   29 ar
  45   28   43 1
  46   29   30 ar
  47   29   44 1
  48   30   45 1

#	End of record

