#	Name: ASD05430210
#	Creating user name:	WinNT
#	Creation time:	15. 06. 2019 21:00

#	Modifying user name:	WinNT
#	Modification time:	15. 06. 2019 21:00

#	Program:	/corina/corina34_cracker 3.40 0067  02.08.2006

@<TRIPOS>MOLECULE
ASD05430210
  73   78    0    0    0
SMALL
NO_CHARGES


@<TRIPOS>ATOM
   1 F1            13.2102     0.9706    -1.7116 F       
   2 C2             0.3947     0.5946     1.7887 C.ar    
   3 C3             0.4606    -0.7484     1.4191 C.ar    
   4 C4             1.6149    -1.2560     0.8366 C.ar    
   5 C5             2.7003    -0.4350     0.6213 C.ar    
   6 C6             2.6414     0.9130     0.9895 C.ar    
   7 C7             1.4795     1.4240     1.5757 C.ar    
   8 C8             5.3276    -0.1288     1.2897 C.3     
   9 C9             5.0474     1.2907     0.8225 C.2     
  10 C10            3.7999     1.7918     0.7602 C.2     
  11 C11            6.5761    -0.0964     2.1810 C.3     
  12 C12            7.8448     0.4585     1.5208 C.3     
  13 N13            7.5170     1.7197     0.8594 N.pl3   
  14 C14            6.2360     2.0852     0.4414 C.2     
  15 N15           -0.6402    -1.5881     1.6362 N.pl3   
  16 C16           -1.3331    -1.7274     2.7962 C.2     
  17 C17           -1.2248    -2.4197     0.7163 C.2     
  18 C18           -2.2439    -3.0387     1.3423 C.2     
  19 N19           -2.2872    -2.5982     2.6084 N.2     
  20 C20           -3.1769    -4.0487     0.7256 C.3     
  21 C21            8.3967     2.8393     0.5159 C.3     
  22 O22            7.6311     3.5697    -0.4651 O.3     
  23 N23            6.2856     3.1461    -0.2950 N.2     
  24 C24            8.6696     3.7087     1.7449 C.3     
  25 C25            9.5895     4.8677     1.3556 C.3     
  26 C26            9.6868     2.3387    -0.0809 C.ar    
  27 C27           10.3989     1.3381     0.5538 C.ar    
  28 C28           10.1543     2.8766    -1.2655 C.ar    
  29 C29           11.3370     2.4180    -1.8139 C.ar    
  30 C30           12.0538     1.4196    -1.1764 C.ar    
  31 C31           11.5821     0.8783     0.0075 C.ar    
  32 S32            9.9131     5.8985     2.8127 S.o2    
  33 O33            8.6940     6.5063     3.2171 O.2     
  34 O34           10.6522     5.1325     3.7541 O.2     
  35 C35           10.9997     7.1809     2.1306 C.3     
  36 C36           -0.7363     2.4738     2.7072 C.3     
  37 O37           -0.7388     1.0893     2.3534 O.3     
  38 C38           11.3859     8.1640     3.2376 C.3     
  39 C39            6.3744     0.1812     3.6702 C.3     
  40 C40            6.7462    -1.2258     3.1972 C.3     
  41 H41            1.6620    -2.2968     0.5522 H       
  42 H42            3.5967    -0.8324     0.1686 H       
  43 H43            1.4297     2.4644     1.8612 H       
  44 H44            4.4775    -0.5037     1.8597 H       
  45 H45            5.5067    -0.7718     0.4280 H       
  46 H46            3.6488     2.8387     0.5420 H       
  47 H47            8.6066     0.6316     2.2809 H       
  48 H48            8.2155    -0.2547     0.7846 H       
  49 H49           -1.1288    -1.2052     3.7192 H       
  50 H50           -0.9258    -2.5525    -0.3129 H       
  51 H51           -2.7680    -5.0502     0.8593 H       
  52 H52           -4.1514    -3.9865     1.2101 H       
  53 H53           -3.2863    -3.8400    -0.3386 H       
  54 H54            7.7283     4.1043     2.1264 H       
  55 H55            9.1501     3.1069     2.5162 H       
  56 H56           10.5308     4.4721     0.9740 H       
  57 H57            9.1090     5.4696     0.5842 H       
  58 H58           10.0306     0.9158     1.4771 H       
  59 H59            9.5948     3.6551    -1.7628 H       
  60 H60           11.7019     2.8381    -2.7396 H       
  61 H61           12.1406     0.0997     0.5058 H       
  62 H62           11.8996     6.7173     1.7263 H       
  63 H63           10.4778     7.7148     1.3365 H       
  64 H64            0.0575     2.6627     3.4299 H       
  65 H65           -0.5664     3.0765     1.8150 H       
  66 H66           -1.6982     2.7382     3.1466 H       
  67 H67           10.4860     8.6276     3.6420 H       
  68 H68           11.9078     7.6301     4.0318 H       
  69 H69           12.0388     8.9345     2.8278 H       
  70 H70            7.1432     0.7593     4.1830 H       
  71 H71            5.3542     0.3420     4.0186 H       
  72 H72            5.9705    -1.9906     3.2343 H       
  73 H73            7.7595    -1.5733     3.3987 H       
@<TRIPOS>BOND
   1    1   30 1
   2    2    3 ar
   3    2    7 ar
   4    2   37 1
   5    3    4 ar
   6    3   15 1
   7    4    5 ar
   8    4   41 1
   9    5    6 ar
  10    5   42 1
  11    6    7 ar
  12    6   10 1
  13    7   43 1
  14    8    9 1
  15    8   11 1
  16    8   44 1
  17    8   45 1
  18    9   10 2
  19    9   14 1
  20   10   46 1
  21   11   12 1
  22   11   39 1
  23   11   40 1
  24   12   13 1
  25   12   47 1
  26   12   48 1
  27   13   14 1
  28   13   21 1
  29   14   23 2
  30   15   16 1
  31   15   17 1
  32   16   19 2
  33   16   49 1
  34   17   18 2
  35   17   50 1
  36   18   19 1
  37   18   20 1
  38   20   51 1
  39   20   52 1
  40   20   53 1
  41   21   22 1
  42   21   24 1
  43   21   26 1
  44   22   23 1
  45   24   25 1
  46   24   54 1
  47   24   55 1
  48   25   32 1
  49   25   56 1
  50   25   57 1
  51   26   27 ar
  52   26   28 ar
  53   27   31 ar
  54   27   58 1
  55   28   29 ar
  56   28   59 1
  57   29   30 ar
  58   29   60 1
  59   30   31 ar
  60   31   61 1
  61   32   33 2
  62   32   34 2
  63   32   35 1
  64   35   38 1
  65   35   62 1
  66   35   63 1
  67   36   37 1
  68   36   64 1
  69   36   65 1
  70   36   66 1
  71   38   67 1
  72   38   68 1
  73   38   69 1
  74   39   40 1
  75   39   70 1
  76   39   71 1
  77   40   72 1
  78   40   73 1

#	End of record

