#	Name: ASD02500840
#	Creating user name:	WinNT
#	Creation time:	15. 06. 2019 20:23

#	Modifying user name:	WinNT
#	Modification time:	15. 06. 2019 20:23

#	Program:	/corina/corina34_cracker 3.40 0067  02.08.2006

@<TRIPOS>MOLECULE
ASD02500840
  29   30    0    0    0
SMALL
NO_CHARGES


@<TRIPOS>ATOM
   1 C1            -0.0169     1.3927     0.0097 C.ar    
   2 C2             0.0021    -0.0041     0.0020 C.ar    
   3 C3            -1.1829    -0.7096     0.0100 C.ar    
   4 C4            -2.3931    -0.0382     0.0252 C.ar    
   5 C5            -2.4220     1.3521     0.0325 C.ar    
   6 C6            -1.2374     2.0695     0.0308 C.ar    
   7 N7            -3.6511     2.0279     0.0469 N.pl3   
   8 C8            -4.3587     2.4171    -1.0542 C.2     
   9 C9            -5.4827     3.0341    -0.6362 C.2     
  10 C10           -5.4702     3.0265     0.7731 C.2     
  11 C11           -4.3417     2.4007     1.1645 C.2     
  12 C12           -3.9533     2.1961    -2.4887 C.3     
  13 C13           -3.9127     2.1612     2.5892 C.3     
  14 C14            1.2504     2.1508     0.0017 C.2     
  15 O15            1.2317     3.3654     0.0084 O.2     
  16 O16            2.4273     1.4953    -0.0131 O.3     
  17 Cl17          -3.8798    -0.9345     0.0346 Cl      
  18 H18            0.9445    -0.5313    -0.0105 H       
  19 H19           -1.1664    -1.7895     0.0041 H       
  20 H20           -1.2580     3.1493     0.0365 H       
  21 H21           -6.2513     3.4570    -1.2661 H       
  22 H22           -6.2277     3.4425     1.4209 H       
  23 H23           -4.3497     1.2418    -2.8354 H       
  24 H24           -4.3511     3.0009    -3.1068 H       
  25 H25           -2.8657     2.1857    -2.5614 H       
  26 H26           -4.3077     1.2048     2.9317 H       
  27 H27           -2.8241     2.1450     2.6430 H       
  28 H28           -4.2959     2.9607     3.2233 H       
  29 H29            3.2301     2.0345    -0.0179 H       
@<TRIPOS>BOND
   1    1    2 ar
   2    1   14 1
   3    1    6 ar
   4    2    3 ar
   5    2   18 1
   6    3    4 ar
   7    3   19 1
   8    4    5 ar
   9    4   17 1
  10    5    6 ar
  11    5    7 1
  12    6   20 1
  13    7    8 1
  14    7   11 1
  15    8    9 2
  16    8   12 1
  17    9   10 1
  18    9   21 1
  19   10   11 2
  20   10   22 1
  21   11   13 1
  22   12   23 1
  23   12   24 1
  24   12   25 1
  25   13   26 1
  26   13   27 1
  27   13   28 1
  28   14   15 2
  29   14   16 1
  30   16   29 1

#	End of record

