#	Name: ASD02038030
#	Creating user name:	WinNT
#	Creation time:	15. 06. 2019 20:16

#	Modifying user name:	WinNT
#	Modification time:	15. 06. 2019 20:16

#	Program:	/corina/corina34_cracker 3.40 0067  02.08.2006

@<TRIPOS>MOLECULE
ASD02038030
  47   49    0    0    0
SMALL
NO_CHARGES


@<TRIPOS>ATOM
   1 C1            -0.0167     1.3782     0.0096 C.ar    
   2 C2             1.2782     2.1491     0.0014 C.3     
   3 N3             2.8325     3.0928    -1.6756 N.am    
   4 C4             1.6963     2.4137    -1.4221 C.2     
   5 C5             7.0285     3.0206    -2.3795 C.3     
   6 O6             7.8858     3.7024    -1.4618 O.3     
   7 C7             9.2098     3.3961    -1.5098 C.ar    
   8 C8            10.0978     4.0210    -0.6470 C.ar    
   9 C9             9.6713     2.4546    -2.4177 C.ar    
  10 C10           11.0162     2.1435    -2.4664 C.ar    
  11 C11           11.9052     2.7729    -1.6077 C.ar    
  12 C12           11.4428     3.7099    -0.6957 C.ar    
  13 O13            1.0103     2.0155    -2.3396 O.2     
  14 C14           -1.2228     2.0536     0.0190 C.ar    
  15 C15            3.2532     3.3585    -3.0580 C.3     
  16 C16            4.6889     2.8568    -3.2415 C.3     
  17 C17            5.5871     3.4926    -2.1780 C.3     
  18 C18            5.1047     3.0777    -0.7861 C.3     
  19 C19            3.6708     3.5868    -0.5747 C.3     
  20 O20           13.2291     2.4659    -1.6551 O.3     
  21 C21            0.0021    -0.0041     0.0020 C.ar    
  22 C22           -1.1852    -0.7116     0.0091 C.ar    
  23 C23           -2.3926    -0.0362     0.0238 C.ar    
  24 C24           -2.4108     1.3472     0.0208 C.ar    
  25 Cl25          -3.8842    -0.9243     0.0327 Cl      
  26 H26            1.1401     3.0969     0.5217 H       
  27 H27            2.0505     1.5675     0.5048 H       
  28 H28            7.3426     3.2380    -3.4004 H       
  29 H29            7.0872     1.9467    -2.2023 H       
  30 H30            9.7378     4.7511     0.0628 H       
  31 H31            8.9791     1.9645    -3.0863 H       
  32 H32           11.3755     1.4099    -3.1729 H       
  33 H33           12.1350     4.2003    -0.0273 H       
  34 H34           -1.2368     3.1335     0.0253 H       
  35 H35            2.5920     2.8347    -3.7483 H       
  36 H36            3.2130     4.4303    -3.2526 H       
  37 H37            4.7116     1.7722    -3.1358 H       
  38 H38            5.0471     3.1337    -4.2330 H       
  39 H39            5.5447     4.5780    -2.2684 H       
  40 H40            5.1234     1.9910    -0.7035 H       
  41 H41            5.7588     3.5119    -0.0300 H       
  42 H42            3.6675     4.6768    -0.5665 H       
  43 H43            3.2856     3.2111     0.3733 H       
  44 H44           13.7384     3.0148    -2.2670 H       
  45 H45            0.9446    -0.5312    -0.0098 H       
  46 H46           -1.1704    -1.7915     0.0028 H       
  47 H47           -3.3530     1.8750     0.0323 H       
@<TRIPOS>BOND
   1    1   21 ar
   2    1    2 1
   3    1   14 ar
   4    2    4 1
   5    2   26 1
   6    2   27 1
   7    3    4 am
   8    3   15 1
   9    3   19 1
  10    4   13 2
  11    5    6 1
  12    5   17 1
  13    5   28 1
  14    5   29 1
  15    6    7 1
  16    7    8 ar
  17    7    9 ar
  18    8   12 ar
  19    8   30 1
  20    9   10 ar
  21    9   31 1
  22   10   11 ar
  23   10   32 1
  24   11   12 ar
  25   11   20 1
  26   12   33 1
  27   14   24 ar
  28   14   34 1
  29   15   16 1
  30   15   35 1
  31   15   36 1
  32   16   17 1
  33   16   37 1
  34   16   38 1
  35   17   18 1
  36   17   39 1
  37   18   19 1
  38   18   40 1
  39   18   41 1
  40   19   42 1
  41   19   43 1
  42   20   44 1
  43   21   22 ar
  44   21   45 1
  45   22   23 ar
  46   22   46 1
  47   23   24 ar
  48   23   25 1
  49   24   47 1

#	End of record

