#	Name: ASD01910919
#	Creating user name:	WinNT
#	Creation time:	15. 06. 2019 19:56

#	Modifying user name:	WinNT
#	Modification time:	15. 06. 2019 19:56

#	Program:	/corina/corina34_cracker 3.40 0067  02.08.2006

@<TRIPOS>MOLECULE
ASD01910919
  53   56    0    0    0
SMALL
NO_CHARGES


@<TRIPOS>ATOM
   1 N1             0.1371     1.3768    -0.1917 N.3     
   2 C2             0.0779    -0.0891    -0.1177 C.3     
   3 C3            -1.3678    -0.5263     0.1414 C.3     
   4 N4            -2.2301     0.0799    -0.8843 N.am    
   5 C5            -2.1272     1.5293    -1.1121 C.3     
   6 C6            -0.6516     1.8855    -1.3218 C.3     
   7 C7            -3.0915    -0.6728    -1.5969 C.2     
   8 C8            -4.0365    -0.0282    -2.5339 C.ar    
   9 C9            -4.3110    -0.6204    -3.7687 C.ar    
  10 C10           -5.1933    -0.0203    -4.6457 C.ar    
  11 C11           -5.8100     1.1678    -4.3096 C.ar    
  12 C12           -5.5444     1.7724    -3.0769 C.ar    
  13 C13           -4.6591     1.1680    -2.1845 C.ar    
  14 C14           -6.1843     3.0054    -2.7293 C.1     
  15 O15           -3.0915    -1.8816    -1.4694 O.2     
  16 C16           -6.7089     4.0162    -2.4442 C.1     
  17 C17           -7.3489     5.2492    -2.0965 C.ar    
  18 C18           -7.0909     5.8620    -0.8679 C.ar    
  19 N19           -7.6798     6.9957    -0.5489 N.ar    
  20 C20           -8.5272     7.5944    -1.3637 C.ar    
  21 C21           -8.8363     7.0519    -2.5985 C.ar    
  22 C22           -8.2405     5.8651    -2.9854 C.ar    
  23 C23            1.4591     1.8214    -0.2636 C.ar    
  24 C24            2.5027     0.9043    -0.2582 C.ar    
  25 C25            3.8104     1.3444    -0.3298 C.ar    
  26 C26            4.0839     2.6966    -0.4064 C.ar    
  27 C27            3.0453     3.6176    -0.4117 C.ar    
  28 C28            1.7320     3.1802    -0.3463 C.ar    
  29 O29            3.3161     4.9472    -0.4863 O.3     
  30 C30            4.6922     5.3261    -0.5566 C.3     
  31 H31            0.4235    -0.5151    -1.0596 H       
  32 H32            0.7147    -0.4382     0.6951 H       
  33 H33           -1.4378    -1.6125     0.0834 H       
  34 H34           -1.6809    -0.1885     1.1293 H       
  35 H35           -2.6994     1.8022    -1.9988 H       
  36 H36           -2.5134     2.0646    -0.2447 H       
  37 H37           -0.5439     2.9685    -1.3823 H       
  38 H38           -0.2959     1.4321    -2.2470 H       
  39 H39           -3.8319    -1.5499    -4.0386 H       
  40 H40           -5.4013    -0.4828    -5.5992 H       
  41 H41           -6.4988     1.6317    -5.0001 H       
  42 H42           -4.4500     1.6302    -1.2310 H       
  43 H43           -6.4031     5.4019    -0.1738 H       
  44 H44           -8.9876     8.5235    -1.0617 H       
  45 H45           -9.5324     7.5523    -3.2554 H       
  46 H46           -8.4637     5.4197    -3.9436 H       
  47 H47            2.2916    -0.1531    -0.1977 H       
  48 H48            4.6204     0.6300    -0.3255 H       
  49 H49            5.1072     3.0375    -0.4619 H       
  50 H50            0.9227     3.8953    -0.3503 H       
  51 H51            5.1457     4.8846    -1.4440 H       
  52 H52            4.7677     6.4121    -0.6120 H       
  53 H53            5.2128     4.9706     0.3326 H       
@<TRIPOS>BOND
   1    1    2 1
   2    1   23 1
   3    1    6 1
   4    2    3 1
   5    2   31 1
   6    2   32 1
   7    3    4 1
   8    3   33 1
   9    3   34 1
  10    4    5 1
  11    4    7 am
  12    5    6 1
  13    5   35 1
  14    5   36 1
  15    6   37 1
  16    6   38 1
  17    7    8 1
  18    7   15 2
  19    8    9 ar
  20    8   13 ar
  21    9   10 ar
  22    9   39 1
  23   10   11 ar
  24   10   40 1
  25   11   12 ar
  26   11   41 1
  27   12   13 ar
  28   12   14 1
  29   13   42 1
  30   14   16 3
  31   16   17 1
  32   17   18 ar
  33   17   22 ar
  34   18   19 ar
  35   18   43 1
  36   19   20 ar
  37   20   21 ar
  38   20   44 1
  39   21   22 ar
  40   21   45 1
  41   22   46 1
  42   23   24 ar
  43   23   28 ar
  44   24   25 ar
  45   24   47 1
  46   25   26 ar
  47   25   48 1
  48   26   27 ar
  49   26   49 1
  50   27   28 ar
  51   27   29 1
  52   28   50 1
  53   29   30 1
  54   30   51 1
  55   30   52 1
  56   30   53 1

#	End of record

