#	Name: ASD01914166
#	Creating user name:	WinNT
#	Creation time:	15. 06. 2019 20:03

#	Modifying user name:	WinNT
#	Modification time:	15. 06. 2019 20:03

#	Program:	/corina/corina34_cracker 3.40 0067  02.08.2006

@<TRIPOS>MOLECULE
ASD01914166
  46   49    0    0    0
SMALL
NO_CHARGES


@<TRIPOS>ATOM
   1 C1             1.9479     0.6717     0.6085 C.ar    
   2 C2             1.6208    -0.7699     0.5628 C.2     
   3 N3             0.4250    -1.3022     0.3866 N.2     
   4 C4             0.6143    -2.6304     0.4164 C.2     
   5 N5             1.8834    -2.8431     0.6044 N.2     
   6 O6             2.4821    -1.7914     0.6865 O.3     
   7 C7            -0.4511    -3.6848     0.2609 C.3     
   8 C8            -0.1309    -4.5593    -0.9535 C.3     
   9 C9            -1.2295    -5.6098    -1.1317 C.3     
  10 C10           -1.2797    -6.5060     0.1097 C.3     
  11 N11           -1.4424    -5.6583     1.2987 N.am    
  12 C12           -0.4924    -4.5592     1.5181 C.3     
  13 C13           -2.4442    -5.8846     2.1714 C.2     
  14 C14           -2.5235    -5.1052     3.4220 C.ar    
  15 O15           -3.2826    -6.7310     1.9285 O.2     
  16 C16           -1.4719    -4.2268     5.3947 C.ar    
  17 C17           -3.8000    -3.7902     4.9809 C.ar    
  18 C18           -3.7335    -4.5181     3.8086 C.ar    
  19 C19           -1.3923    -4.9551     4.2279 C.ar    
  20 C20            0.0227    -7.3012     0.2212 C.3     
  21 C21           -2.6721    -3.6420     5.7715 C.ar    
  22 C22            3.2684     1.0748     0.8035 C.ar    
  23 C23            3.5602     2.4273     0.8441 C.ar    
  24 C24            2.5198     3.3346     0.6882 C.ar    
  25 C25            1.2291     2.8623     0.4978 C.ar    
  26 N26            0.9820     1.5708     0.4581 N.ar    
  27 F27            2.7622     4.6632     0.7220 F       
  28 F28           -4.8333    -4.6622     3.0373 F       
  29 F29           -2.7426    -2.9296     6.9173 F       
  30 H30           -1.4195    -3.2053     0.1187 H       
  31 H31           -0.0766    -3.9357    -1.8459 H       
  32 H32            0.8264    -5.0575    -0.8001 H       
  33 H33           -2.1909    -5.1126    -1.2605 H       
  34 H34           -1.0129    -6.2173    -2.0104 H       
  35 H35           -2.1234    -7.1917     0.0315 H       
  36 H36            0.4996    -4.9670     1.7124 H       
  37 H37           -0.8167    -3.9604     2.3692 H       
  38 H38           -0.5965    -4.1076     6.0159 H       
  39 H39           -4.7326    -3.3358     5.2813 H       
  40 H40           -0.4569    -5.4097     3.9369 H       
  41 H41            0.8630    -6.6122     0.3055 H       
  42 H42           -0.0150    -7.9382     1.1049 H       
  43 H43            0.1478    -7.9199    -0.6675 H       
  44 H44            4.0527     0.3418     0.9215 H       
  45 H45            4.5735     2.7694     0.9940 H       
  46 H46            0.4172     3.5641     0.3765 H       
@<TRIPOS>BOND
   1    1    2 1
   2    1   22 ar
   3    1   26 ar
   4    2    3 2
   5    2    6 1
   6    3    4 1
   7    4    5 2
   8    4    7 1
   9    5    6 1
  10    7    8 1
  11    7   12 1
  12    7   30 1
  13    8    9 1
  14    8   31 1
  15    8   32 1
  16    9   10 1
  17    9   33 1
  18    9   34 1
  19   10   11 1
  20   10   20 1
  21   10   35 1
  22   11   12 1
  23   11   13 am
  24   12   36 1
  25   12   37 1
  26   13   14 1
  27   13   15 2
  28   14   19 ar
  29   14   18 ar
  30   16   21 ar
  31   16   19 ar
  32   16   38 1
  33   17   18 ar
  34   17   21 ar
  35   17   39 1
  36   18   28 1
  37   19   40 1
  38   20   41 1
  39   20   42 1
  40   20   43 1
  41   21   29 1
  42   22   23 ar
  43   22   44 1
  44   23   24 ar
  45   23   45 1
  46   24   25 ar
  47   24   27 1
  48   25   26 ar
  49   25   46 1

#	End of record

