#	Name: ASD01911783
#	Creating user name:	WinNT
#	Creation time:	15. 06. 2019 19:58

#	Modifying user name:	WinNT
#	Modification time:	15. 06. 2019 19:58

#	Program:	/corina/corina34_cracker 3.40 0067  02.08.2006

@<TRIPOS>MOLECULE
ASD01911783
  38   40    0    0    0
SMALL
NO_CHARGES


@<TRIPOS>ATOM
   1 C1            -0.0184     1.5028     0.0103 C.3     
   2 C2             0.0021    -0.0041     0.0020 C.2     
   3 C3            -1.0523    -0.7206    -0.6028 C.2     
   4 C4            -1.1593    -2.0887    -0.6812 C.2     
   5 S5            -2.4680    -0.0192    -1.3841 S.3     
   6 C6            -3.0661    -1.6352    -1.7482 C.2     
   7 N7            -2.2233    -2.5276    -1.2870 N.2     
   8 C8            -4.2863    -1.9291    -2.4377 C.1     
   9 C9            -5.2867    -2.1701    -3.0029 C.1     
  10 C10           -6.5069    -2.4641    -3.6923 C.ar    
  11 C11           -6.8802    -3.7914    -3.9253 C.ar    
  12 C12           -8.0567    -4.0664    -4.5899 C.ar    
  13 C13           -8.8672    -3.0328    -5.0260 C.ar    
  14 C14           -8.5046    -1.7165    -4.7992 C.ar    
  15 C15           -7.3340    -1.4255    -4.1309 C.ar    
  16 C16           -0.7345     1.9962     1.2691 C.3     
  17 C17            1.4170     2.0324    -0.0006 C.3     
  18 C18            1.3963     3.5622     0.0079 C.3     
  19 C19            0.6801     4.0556     1.2667 C.3     
  20 C20           -0.7552     3.5260     1.2775 C.3     
  21 O21            0.9263    -0.6018     0.5160 O.2     
  22 F22            1.3568     3.5922     2.4001 F       
  23 H23           -0.5455     1.8639    -0.8728 H       
  24 H24           -0.4129    -2.7519    -0.2695 H       
  25 H25           -6.2486    -4.5991    -3.5859 H       
  26 H26           -8.3462    -5.0910    -4.7709 H       
  27 H27           -9.7873    -3.2545    -5.5463 H       
  28 H28           -9.1423    -0.9154    -5.1425 H       
  29 H29           -7.0523    -0.3978    -3.9547 H       
  30 H30           -1.7571     1.6189     1.2768 H       
  31 H31           -0.2073     1.6351     2.1522 H       
  32 H32            1.9442     1.6713     0.8825 H       
  33 H33            1.9272     1.6808    -0.8974 H       
  34 H34            2.4189     3.9395     0.0001 H       
  35 H35            0.8691     3.9233    -0.8752 H       
  36 H36            0.6654     5.1455     1.2727 H       
  37 H37           -1.2824     3.8871     0.3945 H       
  38 H38           -1.2654     3.8775     2.1743 H       
@<TRIPOS>BOND
   1    1    2 1
   2    1   17 1
   3    1   16 1
   4    1   23 1
   5    2    3 1
   6    2   21 2
   7    3    4 2
   8    3    5 1
   9    4    7 1
  10    4   24 1
  11    5    6 1
  12    6    7 2
  13    6    8 1
  14    8    9 3
  15    9   10 1
  16   10   11 ar
  17   10   15 ar
  18   11   12 ar
  19   11   25 1
  20   12   13 ar
  21   12   26 1
  22   13   14 ar
  23   13   27 1
  24   14   15 ar
  25   14   28 1
  26   15   29 1
  27   16   20 1
  28   16   30 1
  29   16   31 1
  30   17   18 1
  31   17   32 1
  32   17   33 1
  33   18   19 1
  34   18   34 1
  35   18   35 1
  36   19   20 1
  37   19   22 1
  38   19   36 1
  39   20   37 1
  40   20   38 1

#	End of record

