#	Name: ASD01815533
#	Creating user name:	WinNT
#	Creation time:	15. 06. 2019 19:33

#	Modifying user name:	WinNT
#	Modification time:	15. 06. 2019 19:33

#	Program:	/corina/corina34_cracker 3.40 0067  02.08.2006

@<TRIPOS>MOLECULE
ASD01815533
  71   76    0    0    0
SMALL
NO_CHARGES


@<TRIPOS>ATOM
   1 C1            -0.0346     1.3576     0.2389 C.ar    
   2 C2            -0.0050    -0.0332     0.2326 C.ar    
   3 C3             1.1752    -0.7094     0.1431 C.ar    
   4 C4             2.3811     0.0029     0.0557 C.ar    
   5 C5             2.3470     1.4187     0.0623 C.ar    
   6 C6             1.1189     2.0814     0.1554 C.ar    
   7 C7             3.6176    -0.6695    -0.0385 C.ar    
   8 C8             4.7829     0.0156    -0.1235 C.ar    
   9 C9             4.8046     1.4190    -0.1211 C.ar    
  10 C10            3.6068     2.1510    -0.0291 C.ar    
  11 C11            6.0619     2.1721    -0.2137 C.2     
  12 N12            5.9817     3.5230    -0.2047 N.am    
  13 C13            4.7775     4.1406    -0.1125 C.2     
  14 N14            3.6516     3.4938    -0.0299 N.2     
  15 O15            7.1354     1.6029    -0.2951 O.2     
  16 C16            7.2048     4.3245    -0.2946 C.3     
  17 C17            7.3306     5.2044     0.9506 C.3     
  18 C18            8.6079     6.0414     0.8567 C.3     
  19 C19            8.5469     6.9270    -0.3895 C.3     
  20 C20            8.4210     6.0470    -1.6348 C.3     
  21 C21            7.1437     5.2100    -1.5409 C.3     
  22 O22            7.3876     4.3774     2.1146 O.3     
  23 C23            3.6424    -2.1763    -0.0442 C.3     
  24 N24            3.4194    -2.6748     1.3195 N.3     
  25 C25            3.0728    -4.1018     1.3080 C.3     
  26 C26            2.7066    -4.5505     2.7246 C.3     
  27 C27            3.8958    -4.3025     3.6567 C.3     
  28 C28            4.2672    -2.8177     3.6133 C.3     
  29 C29            4.5882    -2.4191     2.1710 C.3     
  30 C30            3.5206    -4.6867     5.0648 C.ar    
  31 C31            4.2318    -5.6709     5.7255 C.ar    
  32 C32            3.8877    -6.0234     7.0170 C.ar    
  33 C33            2.8326    -5.3914     7.6481 C.ar    
  34 C34            2.1219    -4.4066     6.9878 C.ar    
  35 C35            2.4688    -4.0511     5.6978 C.ar    
  36 C36            2.4568    -5.7764     9.0558 C.3     
  37 F37            3.1685    -4.9830     9.9620 F       
  38 F38            1.0842    -5.5803     9.2422 F       
  39 F39            2.7687    -7.1233     9.2700 F       
  40 H40           -0.9826     1.8706     0.3062 H       
  41 H41           -0.9307    -0.5854     0.3001 H       
  42 H42            1.1822    -1.7894     0.1398 H       
  43 H43            1.0838     3.1608     0.1608 H       
  44 H44            5.7132    -0.5284    -0.1941 H       
  45 H45            4.7521     5.2203    -0.1075 H       
  46 H46            8.0686     3.6630    -0.3609 H       
  47 H47            6.4668     5.8659     1.0169 H       
  48 H48            8.6976     6.6684     1.7438 H       
  49 H49            9.4717     5.3800     0.7904 H       
  50 H50            7.6831     7.5885    -0.3233 H       
  51 H51            9.4568     7.5233    -0.4565 H       
  52 H52            8.3775     6.6779    -2.5226 H       
  53 H53            9.2848     5.3855    -1.7011 H       
  54 H54            7.0540     4.5831    -2.4280 H       
  55 H55            6.2799     5.8715    -1.4746 H       
  56 H56            7.4680     4.8694     2.9431 H       
  57 H57            2.8568    -2.5501    -0.7007 H       
  58 H58            4.6115    -2.5223    -0.4036 H       
  59 H59            2.2232    -4.2638     0.6447 H       
  60 H60            3.9260    -4.6799     0.9531 H       
  61 H61            1.8449    -3.9824     3.0749 H       
  62 H62            2.4645    -5.6133     2.7184 H       
  63 H63            4.7462    -4.9005     3.3293 H       
  64 H64            3.4301    -2.2223     3.9776 H       
  65 H65            5.1401    -2.6424     4.2421 H       
  66 H66            5.4343    -3.0052     1.8120 H       
  67 H67            4.8393    -1.3591     2.1344 H       
  68 H68            5.0562    -6.1646     5.2324 H       
  69 H69            4.4429    -6.7928     7.5330 H       
  70 H70            1.2974    -3.9131     7.4807 H       
  71 H71            1.9136    -3.2817     5.1818 H       
@<TRIPOS>BOND
   1    1    2 ar
   2    1    6 ar
   3    1   40 1
   4    2    3 ar
   5    2   41 1
   6    3    4 ar
   7    3   42 1
   8    4    5 ar
   9    4    7 ar
  10    5    6 ar
  11    5   10 ar
  12    6   43 1
  13    7    8 ar
  14    7   23 1
  15    8    9 ar
  16    8   44 1
  17    9   10 ar
  18    9   11 1
  19   10   14 1
  20   11   12 am
  21   11   15 2
  22   12   13 1
  23   12   16 1
  24   13   14 2
  25   13   45 1
  26   16   17 1
  27   16   21 1
  28   16   46 1
  29   17   18 1
  30   17   22 1
  31   17   47 1
  32   18   19 1
  33   18   48 1
  34   18   49 1
  35   19   20 1
  36   19   50 1
  37   19   51 1
  38   20   21 1
  39   20   52 1
  40   20   53 1
  41   21   54 1
  42   21   55 1
  43   22   56 1
  44   23   24 1
  45   23   57 1
  46   23   58 1
  47   24   25 1
  48   24   29 1
  49   25   26 1
  50   25   59 1
  51   25   60 1
  52   26   27 1
  53   26   61 1
  54   26   62 1
  55   27   28 1
  56   27   30 1
  57   27   63 1
  58   28   29 1
  59   28   64 1
  60   28   65 1
  61   29   66 1
  62   29   67 1
  63   30   31 ar
  64   30   35 ar
  65   31   32 ar
  66   31   68 1
  67   32   33 ar
  68   32   69 1
  69   33   34 ar
  70   33   36 1
  71   34   35 ar
  72   34   70 1
  73   35   71 1
  74   36   37 1
  75   36   38 1
  76   36   39 1

#	End of record

