#	Name: ASD08710015
#	Creating user name:	WinNT
#	Creation time:	15. 06. 2019 21:19

#	Modifying user name:	WinNT
#	Modification time:	15. 06. 2019 21:19

#	Program:	/corina/corina34_cracker 3.40 0067  02.08.2006

@<TRIPOS>MOLECULE
ASD08710015
  49   51    0    0    0
SMALL
NO_CHARGES


@<TRIPOS>ATOM
   1 C1             0.3169     1.8237     0.6112 C.ar    
   2 C2             0.2632     0.4482     0.4847 C.ar    
   3 C3             1.5400     2.4665     0.6546 C.ar    
   4 C4             2.7092     1.7338     0.5716 C.ar    
   5 C5             2.6554     0.3583     0.4455 C.ar    
   6 C6             1.4324    -0.2845     0.4016 C.ar    
   7 S7             1.3639    -2.0379     0.2415 S.o2    
   8 O8             0.0929    -2.3404    -0.3173 O.2     
   9 O9             2.5903    -2.4344    -0.3568 O.2     
  10 N10            1.3643    -2.6702     1.7720 N.am    
  11 C11            0.1005    -2.9083     2.4833 C.3     
  12 C12            2.6283    -3.0091     2.4409 C.3     
  13 C13            2.5742    -4.4791     2.8750 C.3     
  14 N14            1.3107    -4.7120     3.5885 N.am    
  15 C15            0.0518    -4.3785     2.9173 C.3     
  16 C16            2.6412    -5.3816     1.6413 C.3     
  17 C17            1.5986     3.9661     0.7920 C.3     
  18 F18            1.6337     4.3091     2.1479 F       
  19 F19            2.7496     4.4477     0.1592 F       
  20 F20            0.4669     4.5335     0.1966 F       
  21 C21            1.3110    -5.2275     4.8337 C.2     
  22 O22            2.3540    -5.5895     5.3412 O.2     
  23 C23            0.0394    -5.3528     5.5840 C.ar    
  24 N24           -0.8111    -6.3251     5.2797 N.ar    
  25 C25           -1.9501    -6.4713     5.9210 C.ar    
  26 C26           -2.3060    -5.6085     6.9450 C.ar    
  27 C27           -1.4467    -4.5787     7.2955 C.ar    
  28 C28           -0.2507    -4.4524     6.6067 C.ar    
  29 C29            0.7168    -3.3495     6.9512 C.3     
  30 H30           -0.5966     2.3966     0.6715 H       
  31 H31           -0.6924    -0.0540     0.4511 H       
  32 H32            3.6647     2.2361     0.6048 H       
  33 H33            3.5690    -0.2141     0.3799 H       
  34 H34            0.0487    -2.2655     3.3621 H       
  35 H35           -0.7381    -2.6945     1.8207 H       
  36 H36            3.4586    -2.8619     1.7503 H       
  37 H37            2.7605    -2.3737     3.3167 H       
  38 H38            3.4131    -4.6964     3.5362 H       
  39 H39           -0.7800    -4.5242     3.6065 H       
  40 H40           -0.0774    -5.0175     2.0437 H       
  41 H41            3.5722    -5.1962     1.1056 H       
  42 H42            2.6026    -6.4256     1.9523 H       
  43 H43            1.7964    -5.1660     0.9871 H       
  44 H44           -2.6172    -7.2747     5.6453 H       
  45 H45           -3.2440    -5.7367     7.4648 H       
  46 H46           -1.7015    -3.8931     8.0901 H       
  47 H47            1.3532    -3.6691     7.7763 H       
  48 H48            1.3347    -3.1237     6.0821 H       
  49 H49            0.1622    -2.4581     7.2442 H       
@<TRIPOS>BOND
   1    1    2 ar
   2    1    3 ar
   3    1   30 1
   4    2    6 ar
   5    2   31 1
   6    3    4 ar
   7    3   17 1
   8    4    5 ar
   9    4   32 1
  10    5    6 ar
  11    5   33 1
  12    6    7 1
  13    7    8 2
  14    7    9 2
  15    7   10 am
  16   10   11 1
  17   10   12 1
  18   11   15 1
  19   11   34 1
  20   11   35 1
  21   12   13 1
  22   12   36 1
  23   12   37 1
  24   13   14 1
  25   13   16 1
  26   13   38 1
  27   14   15 1
  28   14   21 am
  29   15   39 1
  30   15   40 1
  31   16   41 1
  32   16   42 1
  33   16   43 1
  34   17   18 1
  35   17   19 1
  36   17   20 1
  37   21   22 2
  38   21   23 1
  39   23   24 ar
  40   23   28 ar
  41   24   25 ar
  42   25   26 ar
  43   25   44 1
  44   26   27 ar
  45   26   45 1
  46   27   28 ar
  47   27   46 1
  48   28   29 1
  49   29   47 1
  50   29   48 1
  51   29   49 1

#	End of record

