#	Name: ASD01814453
#	Creating user name:	WinNT
#	Creation time:	15. 06. 2019 19:32

#	Modifying user name:	WinNT
#	Modification time:	15. 06. 2019 19:32

#	Program:	/corina/corina34_cracker 3.40 0067  02.08.2006

@<TRIPOS>MOLECULE
ASD01814453
  58   63    0    0    0
SMALL
NO_CHARGES


@<TRIPOS>ATOM
   1 N1            -0.6509     2.3946     0.6622 N.2     
   2 C2            -0.8137     1.1393     0.3162 C.2     
   3 C3             0.1633     0.4840    -0.4488 C.2     
   4 C4             1.2770     1.1590    -0.8272 C.2     
   5 N5             1.4212     2.4648    -0.4535 N.pl3   
   6 C6             0.4450     3.0713     0.2940 C.2     
   7 N7             2.4290     3.4079    -0.6798 N.2     
   8 C8             2.0904     4.5417    -0.0996 C.2     
   9 C9             0.8619     4.3781     0.5181 C.2     
  10 C10            2.5634     5.9559     0.1312 C.3     
  11 N11            1.5439     6.6428     0.9301 N.am    
  12 C12            0.4727     5.6737     1.1823 C.3     
  13 C13            1.5837     7.9220     1.3526 C.2     
  14 O14            0.6258     8.4027     1.9272 O.2     
  15 C15            2.7886     8.7385     1.1183 C.ar    
  16 C16            2.6661    10.0728     0.7038 C.ar    
  17 C17            4.0583     8.1887     1.3136 C.ar    
  18 C18            5.1806     8.9559     1.0937 C.ar    
  19 C19            5.0565    10.2745     0.6784 C.ar    
  20 C20            3.8045    10.8320     0.4866 C.ar    
  21 O21            1.4381    10.6175     0.5158 O.3     
  22 C22            1.3869    12.0130     0.2121 C.3     
  23 Cl23          -0.0514    -1.1768    -0.9062 Cl      
  24 F24            6.1635    11.0192     0.4658 F       
  25 C25            0.3761    11.6083    -2.0343 C.3     
  26 C26            1.5793    12.2139    -1.2938 C.3     
  27 C27            0.0294    12.5779     0.6398 C.3     
  28 C28           -1.0687    11.9476    -0.2317 C.3     
  29 N29           -0.8260    12.3860    -1.6319 N.3     
  30 C30            0.1265    10.1965    -1.4557 C.3     
  31 C31           -0.8282    10.4207    -0.2645 C.3     
  32 C32           -1.9733    12.0636    -2.4908 C.3     
  33 C33           -1.7098    12.5772    -3.9078 C.3     
  34 F34           -1.4025    13.9412    -3.8598 F       
  35 F35           -0.6351    11.8764    -4.4655 F       
  36 H36           -1.7031     0.6083     0.6217 H       
  37 H37            2.0395     0.6707    -1.4158 H       
  38 H38            3.5103     5.9452     0.6709 H       
  39 H39            2.6880     6.4644    -0.8248 H       
  40 H40           -0.4634     6.0389     0.7598 H       
  41 H41            0.3595     5.5194     2.2553 H       
  42 H42            4.1594     7.1632     1.6370 H       
  43 H43            6.1614     8.5299     1.2453 H       
  44 H44            3.7147    11.8597     0.1671 H       
  45 H45            2.1809    12.5305     0.7505 H       
  46 H46            0.5201    11.6012    -3.1147 H       
  47 H47            1.6452    13.2793    -1.5144 H       
  48 H48            2.4940    11.7156    -1.6147 H       
  49 H49           -0.1527    12.3372     1.6872 H       
  50 H50            0.0256    13.6597     0.5061 H       
  51 H51           -2.0685    12.2090     0.1149 H       
  52 H52           -0.3435     9.5578    -2.2035 H       
  53 H53            1.0629     9.7558    -1.1136 H       
  54 H54           -0.3612    10.0903     0.6633 H       
  55 H55           -1.7676     9.8921    -0.4266 H       
  56 H56           -2.1157    10.9833    -2.5166 H       
  57 H57           -2.8699    12.5389    -2.0930 H       
  58 H58           -2.5989    12.4264    -4.5201 H       
@<TRIPOS>BOND
   1    1    2 2
   2    1    6 1
   3    2    3 1
   4    2   36 1
   5    3    4 2
   6    3   23 1
   7    4    5 1
   8    4   37 1
   9    5    7 1
  10    5    6 1
  11    6    9 2
  12    7    8 2
  13    8   10 1
  14    8    9 1
  15    9   12 1
  16   10   11 1
  17   10   38 1
  18   10   39 1
  19   11   12 1
  20   11   13 am
  21   12   40 1
  22   12   41 1
  23   13   14 2
  24   13   15 1
  25   15   17 ar
  26   15   16 ar
  27   16   20 ar
  28   16   21 1
  29   17   18 ar
  30   17   42 1
  31   18   19 ar
  32   18   43 1
  33   19   20 ar
  34   19   24 1
  35   20   44 1
  36   21   22 1
  37   22   27 1
  38   22   26 1
  39   22   45 1
  40   25   26 1
  41   25   29 1
  42   25   30 1
  43   25   46 1
  44   26   47 1
  45   26   48 1
  46   27   28 1
  47   27   49 1
  48   27   50 1
  49   28   29 1
  50   28   31 1
  51   28   51 1
  52   29   32 1
  53   30   31 1
  54   30   52 1
  55   30   53 1
  56   31   54 1
  57   31   55 1
  58   32   33 1
  59   32   56 1
  60   32   57 1
  61   33   34 1
  62   33   35 1
  63   33   58 1

#	End of record

