#	Name: ASD01911702
#	Creating user name:	WinNT
#	Creation time:	15. 06. 2019 19:58

#	Modifying user name:	WinNT
#	Modification time:	15. 06. 2019 19:58

#	Program:	/corina/corina34_cracker 3.40 0067  02.08.2006

@<TRIPOS>MOLECULE
ASD01911702
  34   36    0    0    0
SMALL
NO_CHARGES


@<TRIPOS>ATOM
   1 N1            -0.0171     1.3436     0.0001 N.am    
   2 C2             0.0021    -0.0041     0.0020 C.2     
   3 C3            -1.2505    -0.7542     0.1205 C.2     
   4 C4            -1.3859    -2.1134     0.0310 C.2     
   5 S5            -2.8469    -0.0657     0.4110 S.3     
   6 C6            -3.5481    -1.6810     0.3759 C.2     
   7 N7            -2.6013    -2.5624     0.1683 N.2     
   8 C8            -4.9364    -1.9842     0.5525 C.1     
   9 C9            -6.0746    -2.2328     0.6973 C.1     
  10 C10           -7.4630    -2.5360     0.8739 C.ar    
  11 C11           -7.9055    -3.8641     0.8255 C.ar    
  12 C12           -9.2469    -4.1468     0.9970 C.ar    
  13 C13          -10.1504    -3.1223     1.2156 C.ar    
  14 C14           -9.7197    -1.8077     1.2640 C.ar    
  15 C15           -8.3835    -1.5085     1.1012 C.ar    
  16 O16            1.0602    -0.5978    -0.0947 O.2     
  17 C17            1.1685     2.2197    -0.0146 C.3     
  18 C18           -1.2238     2.1834     0.0059 C.3     
  19 C19           -0.7585     3.6544    -0.0272 C.3     
  20 C20            0.6686     3.5532    -0.6241 C.3     
  21 F21           -7.0237    -4.8650     0.6116 F       
  22 H22           -0.5442    -2.7677    -0.1417 H       
  23 H23           -9.5909    -5.1699     0.9598 H       
  24 H24          -11.1978    -3.3494     1.3489 H       
  25 H25          -10.4319    -1.0140     1.4345 H       
  26 H26           -8.0502    -0.4820     1.1394 H       
  27 H27            1.5345     2.3798     0.9995 H       
  28 H28            1.9516     1.7878    -0.6377 H       
  29 H29           -1.8306     1.9666    -0.8733 H       
  30 H30           -1.8006     1.9973     0.9119 H       
  31 H31           -1.4036     4.2485    -0.6745 H       
  32 H32           -0.7297     4.0725     0.9790 H       
  33 H33            1.2889     4.3878    -0.2973 H       
  34 H34            0.6339     3.4968    -1.7121 H       
@<TRIPOS>BOND
   1    1    2 am
   2    1   18 1
   3    1   17 1
   4    2    3 1
   5    2   16 2
   6    3    4 2
   7    3    5 1
   8    4    7 1
   9    4   22 1
  10    5    6 1
  11    6    7 2
  12    6    8 1
  13    8    9 3
  14    9   10 1
  15   10   11 ar
  16   10   15 ar
  17   11   12 ar
  18   11   21 1
  19   12   13 ar
  20   12   23 1
  21   13   14 ar
  22   13   24 1
  23   14   15 ar
  24   14   25 1
  25   15   26 1
  26   17   20 1
  27   17   27 1
  28   17   28 1
  29   18   19 1
  30   18   29 1
  31   18   30 1
  32   19   20 1
  33   19   31 1
  34   19   32 1
  35   20   33 1
  36   20   34 1

#	End of record

