#	Name: ASD01914150
#	Creating user name:	WinNT
#	Creation time:	15. 06. 2019 20:02

#	Modifying user name:	WinNT
#	Modification time:	15. 06. 2019 20:02

#	Program:	/corina/corina34_cracker 3.40 0067  02.08.2006

@<TRIPOS>MOLECULE
ASD01914150
  44   47    0    0    0
SMALL
NO_CHARGES


@<TRIPOS>ATOM
   1 C1            -5.0295     1.3243    -0.2596 C.2     
   2 C2            -4.2450     0.0863    -0.3528 C.2     
   3 N3            -4.6558    -1.1367    -0.0504 N.2     
   4 C4            -3.6070    -1.9371    -0.2909 C.2     
   5 N5            -2.6301    -1.1914    -0.7170 N.2     
   6 O6            -2.9719    -0.0288    -0.7671 O.3     
   7 C7            -3.5674    -3.4316    -0.1015 C.3     
   8 C8            -3.2604    -4.1081    -1.4395 C.3     
   9 C9            -3.2523    -5.6273    -1.2549 C.3     
  10 C10           -2.1555    -6.0106    -0.2565 C.3     
  11 N11           -2.3609    -5.2529     0.9855 N.am    
  12 C12           -2.4741    -3.7900     0.9101 C.3     
  13 C13           -0.7848    -5.6698    -0.8445 C.3     
  14 C14           -2.4438    -5.8878     2.1715 C.2     
  15 C15           -2.5245    -5.1128     3.4142 C.2     
  16 O16           -2.4516    -7.1040     2.2113 O.2     
  17 C17           -4.5913     2.5911    -0.5772 C.2     
  18 C18           -5.6580     3.4680    -0.3411 C.2     
  19 C19           -6.7050     2.7359     0.1066 C.2     
  20 N20           -6.3364     1.4282     0.1548 N.pl3   
  21 Cl21          -5.6401     5.1874    -0.5796 Cl      
  22 S22           -1.5894    -3.6704     3.8018 S.3     
  23 C23           -2.3632    -3.5660     5.3226 C.2     
  24 N24           -3.2141    -4.5311     5.4629 N.2     
  25 C25           -3.3366    -5.3747     4.4689 C.2     
  26 C26           -4.2889    -6.5423     4.4987 C.3     
  27 H27           -4.5329    -3.7772     0.2679 H       
  28 H28           -4.0236    -3.8348    -2.1681 H       
  29 H29           -2.2840    -3.7805    -1.7964 H       
  30 H30           -4.2205    -5.9527    -0.8744 H       
  31 H31           -3.0568    -6.1091    -2.2129 H       
  32 H32           -2.2099    -7.0787    -0.0461 H       
  33 H33           -1.5236    -3.3661     0.5863 H       
  34 H34           -2.7387    -3.3930     1.8901 H       
  35 H35           -0.7322    -4.6001    -1.0475 H       
  36 H36           -0.0059    -5.9432    -0.1326 H       
  37 H37           -0.6396    -6.2232    -1.7722 H       
  38 H38           -3.6095     2.8581    -0.9395 H       
  39 H39           -7.6752     3.1260     0.3765 H       
  40 H40           -6.8996     0.6919     0.4403 H       
  41 H41           -2.1692    -2.8029     6.0618 H       
  42 H42           -5.2542    -6.2343     4.0968 H       
  43 H43           -3.8863    -7.3550     3.8942 H       
  44 H44           -4.4151    -6.8821     5.5267 H       
@<TRIPOS>BOND
   1    1    2 1
   2    1   17 2
   3    1   20 1
   4    2    3 2
   5    2    6 1
   6    3    4 1
   7    4    5 2
   8    4    7 1
   9    5    6 1
  10    7    8 1
  11    7   12 1
  12    7   27 1
  13    8    9 1
  14    8   28 1
  15    8   29 1
  16    9   10 1
  17    9   30 1
  18    9   31 1
  19   10   11 1
  20   10   13 1
  21   10   32 1
  22   11   12 1
  23   11   14 am
  24   12   33 1
  25   12   34 1
  26   13   35 1
  27   13   36 1
  28   13   37 1
  29   14   15 1
  30   14   16 2
  31   15   22 1
  32   15   25 2
  33   17   18 1
  34   17   38 1
  35   18   19 2
  36   18   21 1
  37   19   20 1
  38   19   39 1
  39   20   40 1
  40   22   23 1
  41   23   24 2
  42   23   41 1
  43   24   25 1
  44   25   26 1
  45   26   42 1
  46   26   43 1
  47   26   44 1

#	End of record

