#	Name: ASD00843320
#	Creating user name:	WinNT
#	Creation time:	15. 06. 2019 18:46

#	Modifying user name:	WinNT
#	Modification time:	15. 06. 2019 18:46

#	Program:	/corina/corina34_cracker 3.40 0067  02.08.2006

@<TRIPOS>MOLECULE
ASD00843320
  91   96    0    0    0
SMALL
NO_CHARGES


@<TRIPOS>ATOM
   1 N1             0.9728     1.1215    -0.0471 N.ar    
   2 C2             1.1540    -0.1398    -0.4010 C.ar    
   3 C3             1.0473    -1.1601     0.5357 C.ar    
   4 C4             0.7480    -0.8404     1.8483 C.ar    
   5 C5             0.5651     0.4955     2.1792 C.ar    
   6 C6             0.6864     1.4574     1.1965 C.ar    
   7 C7             1.2541    -2.5960     0.1277 C.3     
   8 C8             0.9430    -3.5256     1.2813 C.2     
   9 C9             0.3867    -2.9377    -1.0854 C.3     
  10 C10           -1.0526    -2.6096    -0.7822 C.2     
  11 N11           -2.0183    -2.9358    -1.6639 N.am    
  12 O12           -1.3418    -2.0519     0.2552 O.2     
  13 C13           -3.4129    -2.5245    -1.4426 C.3     
  14 C14           -3.9251    -1.8370    -2.7127 C.3     
  15 N15           -3.7145    -2.7239    -3.8646 N.3     
  16 C16           -2.2849    -2.9784    -4.0868 C.3     
  17 C17           -1.7044    -3.7074    -2.8761 C.3     
  18 C18           -4.3459    -2.1765    -5.0728 C.3     
  19 C19           -4.0015    -3.0600    -6.2751 C.3     
  20 C20           -4.7111    -2.5197    -7.5188 C.3     
  21 N21           -6.1620    -2.5141    -7.2923 N.3     
  22 C22           -6.5212    -1.6351    -6.1722 C.3     
  23 C23           -5.8656    -2.1489    -4.8883 C.3     
  24 C24           -6.8839    -2.1324    -8.5135 C.3     
  25 O25           -0.1259    -3.6446     1.8420 O.2     
  26 N26            2.0723    -4.1945     1.5672 N.am    
  27 C27            2.7132    -2.8575    -0.1699 C.ar    
  28 C28            3.1288    -3.8288     0.7377 C.ar    
  29 C29            3.5818    -2.3365    -1.0951 C.ar    
  30 C30            4.9076    -2.7829    -1.1337 C.ar    
  31 C31            5.3325    -3.7592    -0.2245 C.ar    
  32 C32            4.4496    -4.2758     0.6995 C.ar    
  33 F33            6.6103    -4.1968    -0.2537 F       
  34 C34            1.7946    -6.8879     2.0601 C.ar    
  35 C35            2.7916    -7.6692     1.5059 C.ar    
  36 C36            0.4855    -7.3328     2.0631 C.ar    
  37 C37            0.1706    -8.5598     1.5119 C.ar    
  38 C38            1.1691    -9.3456     0.9551 C.ar    
  39 C39            2.4818    -8.8967     0.9530 C.ar    
  40 O40            0.8619   -10.5532     0.4127 O.3     
  41 H41            3.8134    -7.3194     1.5048 H       
  42 C42            1.9406   -11.3083    -0.1426 C.3     
  43 C43           -8.3816    -2.3764    -8.3179 C.3     
  44 O44            1.4466    -0.4402    -1.6913 O.3     
  45 C45            1.5017     0.6491    -2.6146 C.3     
  46 C46            1.9362     0.1324    -3.9876 C.3     
  47 F47            3.1614    -0.5326    -3.8693 F       
  48 F48            0.9709    -0.7526    -4.4797 F       
  49 C49            5.8222    -2.2458    -2.0959 C.1     
  50 N50            6.5478    -1.8198    -2.8591 N.1     
  51 S51            2.1941    -5.3256     2.7705 S.o2    
  52 O52            3.5684    -5.3864     3.1265 O.2     
  53 O53            1.1621    -5.0329     3.7024 O.2     
  54 H54            0.6583    -1.6124     2.5982 H       
  55 H55            0.3301     0.7791     3.1945 H       
  56 H56            0.5455     2.4980     1.4487 H       
  57 H57            0.7188    -2.3557    -1.9451 H       
  58 H58            0.4776    -4.0006    -1.3093 H       
  59 H59           -4.0239    -3.4015    -1.2291 H       
  60 H60           -3.4609    -1.8287    -0.6049 H       
  61 H61           -4.9889    -1.6241    -2.6073 H       
  62 H62           -3.3808    -0.9053    -2.8667 H       
  63 H63           -2.1592    -3.5933    -4.9780 H       
  64 H64           -1.7635    -2.0308    -4.2217 H       
  65 H65           -0.6236    -3.7964    -2.9858 H       
  66 H66           -2.1502    -4.6990    -2.7974 H       
  67 H67           -3.9808    -1.1645    -5.2480 H       
  68 H68           -2.9238    -3.0494    -6.4377 H       
  69 H69           -4.3312    -4.0810    -6.0828 H       
  70 H70           -4.3708    -1.5037    -7.7185 H       
  71 H71           -4.4795    -3.1549    -8.3738 H       
  72 H72           -6.1724    -0.6232    -6.3783 H       
  73 H73           -7.6042    -1.6277    -6.0491 H       
  74 H74           -6.2246    -3.1556    -4.6741 H       
  75 H75           -6.1197    -1.4874    -4.0601 H       
  76 H76           -6.7120    -1.0764    -8.7221 H       
  77 H77           -6.5245    -2.7313    -9.3503 H       
  78 H78            3.2433    -1.5840    -1.7920 H       
  79 H79            4.7826    -5.0287     1.3984 H       
  80 H80           -0.2914    -6.7208     2.4970 H       
  81 H81           -0.8520    -8.9071     1.5148 H       
  82 H82            3.2610    -9.5068     0.5205 H       
  83 H83            1.5589   -12.2485    -0.5407 H       
  84 H84            2.4087   -10.7375    -0.9446 H       
  85 H85            2.6771   -11.5149     0.6340 H       
  86 H86           -8.9173    -2.0931    -9.2239 H       
  87 H87           -8.5535    -3.4323    -8.1092 H       
  88 H88           -8.7411    -1.7775    -7.4811 H       
  89 H89            0.5163     1.1081    -2.6943 H       
  90 H90            2.2197     1.3891    -2.2610 H       
  91 H91            2.0433     0.9719    -4.6745 H       
@<TRIPOS>BOND
   1    1    2 ar
   2    1    6 ar
   3    2    3 ar
   4    2   44 1
   5    3    4 ar
   6    3    7 1
   7    4    5 ar
   8    4   54 1
   9    5    6 ar
  10    5   55 1
  11    6   56 1
  12    7    8 1
  13    7    9 1
  14    7   27 1
  15    8   25 2
  16    8   26 am
  17    9   10 1
  18    9   57 1
  19    9   58 1
  20   10   11 am
  21   10   12 2
  22   11   13 1
  23   11   17 1
  24   13   14 1
  25   13   59 1
  26   13   60 1
  27   14   15 1
  28   14   61 1
  29   14   62 1
  30   15   16 1
  31   15   18 1
  32   16   17 1
  33   16   63 1
  34   16   64 1
  35   17   65 1
  36   17   66 1
  37   18   19 1
  38   18   23 1
  39   18   67 1
  40   19   20 1
  41   19   68 1
  42   19   69 1
  43   20   21 1
  44   20   70 1
  45   20   71 1
  46   21   22 1
  47   21   24 1
  48   22   23 1
  49   22   72 1
  50   22   73 1
  51   23   74 1
  52   23   75 1
  53   24   43 1
  54   24   76 1
  55   24   77 1
  56   26   51 am
  57   26   28 1
  58   27   28 ar
  59   27   29 ar
  60   28   32 ar
  61   29   30 ar
  62   29   78 1
  63   30   31 ar
  64   30   49 1
  65   31   32 ar
  66   31   33 1
  67   32   79 1
  68   34   35 ar
  69   34   36 ar
  70   34   51 1
  71   35   41 1
  72   35   39 ar
  73   36   37 ar
  74   36   80 1
  75   37   38 ar
  76   37   81 1
  77   38   39 ar
  78   38   40 1
  79   39   82 1
  80   40   42 1
  81   42   83 1
  82   42   84 1
  83   42   85 1
  84   43   86 1
  85   43   87 1
  86   43   88 1
  87   44   45 1
  88   45   46 1
  89   45   89 1
  90   45   90 1
  91   46   47 1
  92   46   48 1
  93   46   91 1
  94   49   50 3
  95   51   52 2
  96   51   53 2

#	End of record

