#	Name: ASD01810017
#	Creating user name:	WinNT
#	Creation time:	15. 06. 2019 19:23

#	Modifying user name:	WinNT
#	Modification time:	15. 06. 2019 19:23

#	Program:	/corina/corina34_cracker 3.40 0067  02.08.2006

@<TRIPOS>MOLECULE
ASD01810017
  43   47    0    0    0
SMALL
NO_CHARGES


@<TRIPOS>ATOM
   1 N1            -0.0163     1.3479     0.0095 N.am    
   2 C2             0.0021    -0.0041     0.0020 C.2     
   3 C3            -1.2674    -0.7373    -0.3573 C.3     
   4 C4            -2.5157    -0.1237     0.2722 C.3     
   5 C5            -2.5117     1.3732     0.1205 C.ar    
   6 C6            -1.2651     1.9808     0.0315 C.ar    
   7 C7            -3.6295     2.1616     0.0670 C.ar    
   8 C8            -3.5029     3.5494    -0.0500 C.ar    
   9 C9            -2.2642     4.1490    -0.1002 C.ar    
  10 C10           -1.1106     3.3592    -0.0516 C.ar    
  11 C11            0.9566     2.3073     0.0053 C.ar    
  12 C12            0.3354     3.5855    -0.0412 C.ar    
  13 C13            1.0844     4.7629    -0.0666 C.ar    
  14 C14            2.4501     4.6427    -0.0392 C.ar    
  15 C15            3.0757     3.3949     0.0126 C.ar    
  16 C16            2.3426     2.2032     0.0386 C.ar    
  17 C17           -4.7731     4.3582    -0.1248 C.3     
  18 N18           -4.5091     5.7655     0.1871 N.3     
  19 C19           -3.4209     6.2792    -0.6600 C.3     
  20 C20           -2.1092     5.6442    -0.1986 C.3     
  21 O21            1.0140    -0.6128     0.2770 O.2     
  22 C22            4.5499     3.3318     0.0435 C.2     
  23 O23            5.2735     4.4681     0.0216 O.3     
  24 C24            6.7185     4.3302     0.0542 C.3     
  25 O25            5.1110     2.2551     0.0886 O.2     
  26 H26           -1.3818    -0.7288    -1.4413 H       
  27 H27           -1.1802    -1.7718    -0.0252 H       
  28 H28           -3.4008    -0.5311    -0.2163 H       
  29 H29           -2.5439    -0.3765     1.3321 H       
  30 H30           -4.6100     1.7115     0.1148 H       
  31 H31            0.6070     5.7309    -0.1067 H       
  32 H32            3.0575     5.5355    -0.0584 H       
  33 H33            2.8333     1.2420     0.0792 H       
  34 H34           -5.1869     4.2847    -1.1305 H       
  35 H35           -5.4943     3.9611     0.5895 H       
  36 H36           -5.3438     6.3222     0.0806 H       
  37 H37           -3.6102     6.0157    -1.7006 H       
  38 H38           -3.3589     7.3629    -0.5607 H       
  39 H39           -1.8378     6.0445     0.7782 H       
  40 H40           -1.3220     5.8796    -0.9149 H       
  41 H41            7.0136     3.8127     0.9670 H       
  42 H42            7.0484     3.7563    -0.8117 H       
  43 H43            7.1784     5.3182     0.0319 H       
@<TRIPOS>BOND
   1    1    2 am
   2    1   11 1
   3    1    6 1
   4    2    3 1
   5    2   21 2
   6    3    4 1
   7    3   26 1
   8    3   27 1
   9    4    5 1
  10    4   28 1
  11    4   29 1
  12    5    6 ar
  13    5    7 ar
  14    6   10 ar
  15    7    8 ar
  16    7   30 1
  17    8    9 ar
  18    8   17 1
  19    9   10 ar
  20    9   20 1
  21   10   12 1
  22   11   12 ar
  23   11   16 ar
  24   12   13 ar
  25   13   14 ar
  26   13   31 1
  27   14   15 ar
  28   14   32 1
  29   15   16 ar
  30   15   22 1
  31   16   33 1
  32   17   18 1
  33   17   34 1
  34   17   35 1
  35   18   19 1
  36   18   36 1
  37   19   20 1
  38   19   37 1
  39   19   38 1
  40   20   39 1
  41   20   40 1
  42   22   23 1
  43   22   25 2
  44   23   24 1
  45   24   41 1
  46   24   42 1
  47   24   43 1

#	End of record

