#	Name: ASD08150471
#	Creating user name:	WinNT
#	Creation time:	15. 06. 2019 21:16

#	Modifying user name:	WinNT
#	Modification time:	15. 06. 2019 21:16

#	Program:	/corina/corina34_cracker 3.40 0067  02.08.2006

@<TRIPOS>MOLECULE
ASD08150471
  88   95    0    0    0
SMALL
NO_CHARGES


@<TRIPOS>ATOM
   1 N1            -0.9218     0.0548    -2.5472 N.am    
   2 C2            -0.6698     0.6960    -3.7076 C.2     
   3 C3             0.4379     0.2136    -4.5788 C.2     
   4 N4             1.1658    -0.8537    -4.1899 N.am    
   5 C5             0.8781    -1.4902    -2.9876 C.ar    
   6 C6             1.6308    -2.5975    -2.5809 C.ar    
   7 N7             1.3850    -3.2186    -1.4537 N.ar    
   8 C8             0.4042    -2.8313    -0.6295 C.ar    
   9 C9            -0.4058    -1.7183    -0.9654 C.ar    
  10 C10           -0.1569    -1.0352    -2.1790 C.ar    
  11 C11           -1.4307    -1.3173    -0.1015 C.ar    
  12 C12           -1.6414    -2.0157     1.0754 C.ar    
  13 C13           -0.8349    -3.1165     1.4014 C.ar    
  14 C14            0.1646    -3.5189     0.5735 C.ar    
  15 O15           -1.3387     1.6551    -4.0379 O.2     
  16 C16           -2.7256    -1.5975     1.9969 C.ar    
  17 C17           -1.9548     0.4978    -1.7134 C.ar    
  18 C18           -3.1709    -0.1736    -1.6976 C.ar    
  19 C19           -4.1898     0.2633    -0.8753 C.ar    
  20 C20           -3.9992     1.3745    -0.0636 C.ar    
  21 C21           -2.7827     2.0460    -0.0795 C.ar    
  22 C22           -1.7622     1.6058    -0.8973 C.ar    
  23 N23           -5.0311     1.8172     0.7688 N.3     
  24 C24           -6.0641     2.5206    -0.0024 C.3     
  25 C25           -4.5089     2.6617     1.8507 C.3     
  26 C26           -5.6405     3.0072     2.8214 C.3     
  27 C27           -6.7492     3.7432     2.0640 C.3     
  28 C28           -7.2422     2.8618     0.9130 C.3     
  29 C29           -7.8928     4.0331     3.0016 C.2     
  30 N30           -8.9868     4.6784     2.5509 N.am    
  31 O31           -7.8287     3.6858     4.1619 O.2     
  32 C32          -10.0985     4.9603     3.4624 C.3     
  33 C33          -10.8846     6.1710     2.9517 C.3     
  34 C34          -11.0297     3.7463     3.5246 C.3     
  35 C35          -12.2204     4.0688     4.4302 C.3     
  36 N36          -12.9400     5.2334     3.8988 N.3     
  37 C37          -12.0796     6.4231     3.8739 C.3     
  38 C38          -14.1680     5.4876     4.6639 C.3     
  39 C39           -3.0258    -0.2362     2.1640 C.ar    
  40 N40           -3.9766     0.1617     2.9706 N.ar    
  41 C41           -4.7094    -0.7073     3.6750 C.ar    
  42 C42           -4.4673    -2.0995     3.5604 C.ar    
  43 C43           -3.4545    -2.5489     2.6959 C.ar    
  44 C44           -5.7262    -0.2606     4.5369 C.ar    
  45 O45            0.6830     0.7749    -5.6283 O.2     
  46 C46           -6.4587    -1.1638     5.2440 C.ar    
  47 C47           -6.2192    -2.5318     5.1298 C.ar    
  48 C48           -5.2432    -3.0032     4.3062 C.ar    
  49 C49           -5.5092    -0.4647    -0.8584 C.3     
  50 F50           -5.2851    -1.8392    -0.9918 F       
  51 F51           -6.1645    -0.2144     0.3520 F       
  52 F52           -6.3027    -0.0164    -1.9198 F       
  53 H53            1.8894    -1.1771    -4.7491 H       
  54 H54            2.4339    -2.9490    -3.2118 H       
  55 H55           -2.0521    -0.4698    -0.3503 H       
  56 H56           -1.0109    -3.6514     2.3230 H       
  57 H57            0.7756    -4.3688     0.8394 H       
  58 H58           -3.3192    -1.0373    -2.3289 H       
  59 H59           -2.6347     2.9101     0.5513 H       
  60 H60           -0.8167     2.1276    -0.9093 H       
  61 H61           -5.6470     3.4391    -0.4151 H       
  62 H62           -6.4090     1.8813    -0.8151 H       
  63 H63           -3.7243     2.1250     2.3838 H       
  64 H64           -4.0990     3.5796     1.4293 H       
  65 H65           -6.0417     2.0905     3.2536 H       
  66 H66           -5.2560     3.6468     3.6157 H       
  67 H67           -6.3583     4.6789     1.6645 H       
  68 H68           -8.0019     3.3976     0.3439 H       
  69 H69           -7.6686     1.9428     1.3152 H       
  70 H70           -9.0382     4.9562     1.6229 H       
  71 H71           -9.7085     5.1727     4.4578 H       
  72 H72          -10.2381     7.0485     2.9457 H       
  73 H73          -11.2406     5.9736     1.9406 H       
  74 H74          -11.3879     3.5108     2.5225 H       
  75 H75          -10.4867     2.8915     3.9279 H       
  76 H76          -12.8927     3.2115     4.4653 H       
  77 H77          -11.8625     4.2908     5.4356 H       
  78 H78          -11.7223     6.6341     4.8819 H       
  79 H79          -12.6496     7.2758     3.5049 H       
  80 H80          -13.9134     5.6798     5.7061 H       
  81 H81          -14.6813     6.3552     4.2493 H       
  82 H82          -14.8204     4.6164     4.6039 H       
  83 H83           -2.4584     0.5001     1.6141 H       
  84 H84           -3.2445    -3.6025     2.5851 H       
  85 H85           -5.9252     0.7961     4.6379 H       
  86 H86           -7.2383    -0.8144     5.9047 H       
  87 H87           -6.8151    -3.2270     5.7026 H       
  88 H88           -5.0669    -4.0656     4.2255 H       
@<TRIPOS>BOND
   1    1    2 am
   2    1   10 1
   3    1   17 1
   4    2    3 1
   5    2   15 2
   6    3    4 am
   7    3   45 2
   8    4    5 1
   9    4   53 1
  10    5    6 ar
  11    5   10 ar
  12    6    7 ar
  13    6   54 1
  14    7    8 ar
  15    8    9 ar
  16    8   14 ar
  17    9   10 ar
  18    9   11 ar
  19   11   12 ar
  20   11   55 1
  21   12   13 ar
  22   12   16 1
  23   13   14 ar
  24   13   56 1
  25   14   57 1
  26   16   39 ar
  27   16   43 ar
  28   17   18 ar
  29   17   22 ar
  30   18   19 ar
  31   18   58 1
  32   19   20 ar
  33   19   49 1
  34   20   21 ar
  35   20   23 1
  36   21   22 ar
  37   21   59 1
  38   22   60 1
  39   23   24 1
  40   23   25 1
  41   24   28 1
  42   24   61 1
  43   24   62 1
  44   25   26 1
  45   25   63 1
  46   25   64 1
  47   26   27 1
  48   26   65 1
  49   26   66 1
  50   27   28 1
  51   27   29 1
  52   27   67 1
  53   28   68 1
  54   28   69 1
  55   29   30 am
  56   29   31 2
  57   30   32 1
  58   30   70 1
  59   32   33 1
  60   32   34 1
  61   32   71 1
  62   33   37 1
  63   33   72 1
  64   33   73 1
  65   34   35 1
  66   34   74 1
  67   34   75 1
  68   35   36 1
  69   35   76 1
  70   35   77 1
  71   36   37 1
  72   36   38 1
  73   37   78 1
  74   37   79 1
  75   38   80 1
  76   38   81 1
  77   38   82 1
  78   39   40 ar
  79   39   83 1
  80   40   41 ar
  81   41   42 ar
  82   41   44 ar
  83   42   43 ar
  84   42   48 ar
  85   43   84 1
  86   44   46 ar
  87   44   85 1
  88   46   47 ar
  89   46   86 1
  90   47   48 ar
  91   47   87 1
  92   48   88 1
  93   49   50 1
  94   49   51 1
  95   49   52 1

#	End of record

