#	Name: ASD01208060
#	Creating user name:	WinNT
#	Creation time:	15. 06. 2019 19:09

#	Modifying user name:	WinNT
#	Modification time:	15. 06. 2019 19:09

#	Program:	/corina/corina34_cracker 3.40 0067  02.08.2006

@<TRIPOS>MOLECULE
ASD01208060
  61   65    0    0    0
SMALL
NO_CHARGES


@<TRIPOS>ATOM
   1 C1             0.0150     1.3383     0.2941 C.ar    
   2 C2             0.1582    -0.0378     0.1917 C.ar    
   3 C3            -0.9622    -0.8569     0.1758 C.ar    
   4 C4            -2.2285    -0.3030     0.2617 C.ar    
   5 C5            -2.3771     1.0811     0.3649 C.ar    
   6 C6            -1.2475     1.9004     0.3863 C.ar    
   7 C7            -3.7262     1.6767     0.4564 C.2     
   8 C8            -4.0056     3.0090     0.5602 C.2     
   9 N9            -4.9099     0.9858     0.4455 N.pl3   
  10 C10           -5.9414     1.8871     0.5489 C.2     
  11 C11           -5.3946     3.1497     0.6212 C.2     
  12 O12            1.1155     2.1357     0.3097 O.3     
  13 C13            0.8940     3.5474     0.2976 C.3     
  14 C14            2.1176     4.2505    -0.2933 C.3     
  15 O15            3.2422     4.0517     0.5656 O.3     
  16 C16            0.6639     4.0398     1.7277 C.3     
  17 O17           -0.8163    -2.2043     0.0753 O.3     
  18 C18           -1.2730    -2.8117    -1.0467 C.ar    
  19 C19           -1.2387    -4.2012    -1.1377 C.ar    
  20 N20           -1.7505    -2.0763    -2.0388 N.ar    
  21 C21           -2.2059    -2.6193    -3.1484 C.ar    
  22 C22           -2.2001    -4.0043    -3.3171 C.ar    
  23 C23           -1.7058    -4.8136    -2.2832 C.ar    
  24 C24           -7.3755     1.5622     0.5737 C.2     
  25 C25            4.4438     4.6714     0.1028 C.3     
  26 N26           -8.3470     2.4282     0.6724 N.2     
  27 C27           -9.5707     1.9521     0.6786 C.2     
  28 C28           -9.6804     0.6231     0.5821 C.2     
  29 S29           -8.0590    -0.0581     0.4673 S.3     
  30 C30           -2.7120    -4.6093    -4.5624 C.2     
  31 N31           -2.8533    -5.9466    -4.6535 N.am    
  32 O32           -3.0063    -3.9013    -5.5060 O.2     
  33 C33           -3.3630    -6.8916    -5.6585 C.3     
  34 C34           -3.6981    -7.8506    -4.5078 C.3     
  35 C35           -2.5595    -7.1033    -3.7941 C.3     
  36 Cl36          -0.6151    -5.1518     0.1742 Cl      
  37 H37            1.1443    -0.4730     0.1238 H       
  38 H38           -3.0999    -0.9410     0.2486 H       
  39 H39           -1.3580     2.9717     0.4664 H       
  40 H40           -3.2825     3.8106     0.5902 H       
  41 H41           -5.0035     0.0229     0.3758 H       
  42 H42           -5.9396     4.0779     0.7095 H       
  43 H43            0.0172     3.7723    -0.3097 H       
  44 H44            2.3346     3.8362    -1.2778 H       
  45 H45            1.9146     5.3175    -0.3849 H       
  46 H46           -0.2078     3.5388     2.1487 H       
  47 H47            1.5407     3.8148     2.3350 H       
  48 H48            0.4949     5.1166     1.7185 H       
  49 H49           -2.5881    -1.9864    -3.9356 H       
  50 H50           -1.6873    -5.8889    -2.3828 H       
  51 H51            4.7091     4.2658    -0.8735 H       
  52 H52            4.2890     5.7471     0.0195 H       
  53 H53            5.2499     4.4740     0.8095 H       
  54 H54          -10.4354     2.5945     0.7571 H       
  55 H55          -10.6040     0.0635     0.5722 H       
  56 H56           -4.2421    -6.5275    -6.1902 H       
  57 H57           -2.5913    -7.2706    -6.3286 H       
  58 H58           -4.6836    -7.6947    -4.0687 H       
  59 H59           -3.4791    -8.8970    -4.7199 H       
  60 H60           -1.5765    -7.5403    -3.9697 H       
  61 H61           -2.7566    -6.9183    -2.7382 H       
@<TRIPOS>BOND
   1    1    2 ar
   2    1   12 1
   3    1    6 ar
   4    2    3 ar
   5    2   37 1
   6    3    4 ar
   7    3   17 1
   8    4    5 ar
   9    4   38 1
  10    5    6 ar
  11    5    7 1
  12    6   39 1
  13    7    8 2
  14    7    9 1
  15    8   11 1
  16    8   40 1
  17    9   10 1
  18    9   41 1
  19   10   11 2
  20   10   24 1
  21   11   42 1
  22   12   13 1
  23   13   14 1
  24   13   16 1
  25   13   43 1
  26   14   15 1
  27   14   44 1
  28   14   45 1
  29   15   25 1
  30   16   46 1
  31   16   47 1
  32   16   48 1
  33   17   18 1
  34   18   19 ar
  35   18   20 ar
  36   19   36 1
  37   19   23 ar
  38   20   21 ar
  39   21   22 ar
  40   21   49 1
  41   22   23 ar
  42   22   30 1
  43   23   50 1
  44   24   26 2
  45   24   29 1
  46   25   51 1
  47   25   52 1
  48   25   53 1
  49   26   27 1
  50   27   28 2
  51   27   54 1
  52   28   29 1
  53   28   55 1
  54   30   31 am
  55   30   32 2
  56   31   33 1
  57   31   35 1
  58   33   34 1
  59   33   56 1
  60   33   57 1
  61   34   35 1
  62   34   58 1
  63   34   59 1
  64   35   60 1
  65   35   61 1

#	End of record

