#	Name: ASD01230254
#	Creating user name:	WinNT
#	Creation time:	15. 06. 2019 19:12

#	Modifying user name:	WinNT
#	Modification time:	15. 06. 2019 19:12

#	Program:	/corina/corina34_cracker 3.40 0067  02.08.2006

@<TRIPOS>MOLECULE
ASD01230254
  28   29    0    0    0
SMALL
NO_CHARGES


@<TRIPOS>ATOM
   1 C1            -0.0168     1.3849     0.0097 C.ar    
   2 C2             0.0021    -0.0041     0.0020 C.ar    
   3 C3             1.2198    -0.6610    -0.0132 C.ar    
   4 C4             2.3824     0.0992    -0.0202 C.ar    
   5 C5             2.2882     1.4772    -0.0119 C.ar    
   6 N6             1.1116     2.0745     0.0026 N.ar    
   7 O7            -1.2047     2.0406     0.0188 O.3     
   8 C8            -1.1574     3.4688     0.0264 C.3     
   9 C9            -2.3925     4.0237    -0.6860 C.3     
  10 C10           -2.3418     5.5529    -0.6780 C.3     
  11 C11           -2.3181     6.0548     0.7672 C.3     
  12 C12           -1.0831     5.4998     1.4796 C.3     
  13 C13           -1.1337     3.9707     1.4715 C.3     
  14 Br14           4.0752    -0.7432    -0.0404 Br      
  15 H15           -0.9215    -0.5638     0.0082 H       
  16 H16            1.2654    -1.7400    -0.0191 H       
  17 H17            3.1888     2.0733    -0.0174 H       
  18 H18           -0.2583     3.8053    -0.4899 H       
  19 H19           -2.4094     3.6662    -1.7156 H       
  20 H20           -3.2916     3.6873    -0.1698 H       
  21 H21           -1.4428     5.8894    -1.1942 H       
  22 H22           -3.2217     5.9482    -1.1855 H       
  23 H23           -2.2821     7.1441     0.7729 H       
  24 H24           -3.2172     5.7183     1.2835 H       
  25 H25           -0.1840     5.8363     0.9633 H       
  26 H26           -1.0662     5.8573     2.5092 H       
  27 H27           -2.0328     3.6342     1.9878 H       
  28 H28           -0.2538     3.5753     1.9791 H       
@<TRIPOS>BOND
   1    1    2 ar
   2    1    6 ar
   3    1    7 1
   4    2    3 ar
   5    2   15 1
   6    3    4 ar
   7    3   16 1
   8    4    5 ar
   9    4   14 1
  10    5    6 ar
  11    5   17 1
  12    7    8 1
  13    8    9 1
  14    8   13 1
  15    8   18 1
  16    9   10 1
  17    9   19 1
  18    9   20 1
  19   10   11 1
  20   10   21 1
  21   10   22 1
  22   11   12 1
  23   11   23 1
  24   11   24 1
  25   12   13 1
  26   12   25 1
  27   12   26 1
  28   13   27 1
  29   13   28 1

#	End of record

