#	Name: ASD05130042
#	Creating user name:	WinNT
#	Creation time:	15. 06. 2019 20:56

#	Modifying user name:	WinNT
#	Modification time:	15. 06. 2019 20:56

#	Program:	/corina/corina34_cracker 3.40 0067  02.08.2006

@<TRIPOS>MOLECULE
ASD05130042
  55   58    0    0    0
SMALL
NO_CHARGES


@<TRIPOS>ATOM
   1 N1            -0.1439     1.4185    -0.4414 N.am    
   2 C2             0.0597     0.0928    -0.3089 C.2     
   3 O3             1.1114    -0.3998    -0.6691 O.2     
   4 N4            -0.9024    -0.6869     0.2230 N.am    
   5 C5            -0.7322    -2.0776     0.2683 C.ar    
   6 C6            -1.8418    -2.9161     0.2195 C.ar    
   7 C7            -1.6784    -4.2894     0.2640 C.ar    
   8 C8            -0.4117    -4.8354     0.3566 C.ar    
   9 C9             0.7062    -4.0002     0.4055 C.ar    
  10 C10            0.5406    -2.6168     0.3558 C.ar    
  11 F11           -0.2555    -6.1767     0.4003 F       
  12 F12           -3.0819    -2.3878     0.1290 F       
  13 N13            3.9240    -5.7329    -0.5770 N.am    
  14 C14            2.6880    -5.2039    -0.6662 C.2     
  15 C15            2.0649    -4.5826     0.5048 C.2     
  16 C16            2.7460    -4.5432     1.6908 C.2     
  17 C17            4.0426    -5.1061     1.7592 C.ar    
  18 C18            4.7751    -5.0888     2.9525 C.ar    
  19 N19            5.9785    -5.6172     2.9994 N.ar    
  20 C20            6.5459    -6.1814     1.9385 C.ar    
  21 C21            5.8901    -6.2414     0.7171 C.ar    
  22 C22            4.6152    -5.6978     0.6121 C.ar    
  23 O23            2.0869    -5.2412    -1.7251 O.2     
  24 N24            7.8190    -6.7206     2.0542 N.pl3   
  25 C25            8.4578    -7.3460     0.8936 C.3     
  26 C26            4.5339    -6.3570    -1.7538 C.3     
  27 C27            5.3170    -5.3043    -2.5410 C.3     
  28 C28            0.8877     2.2418    -0.9071 C.ar    
  29 C29            1.7602     1.7771    -1.8789 C.ar    
  30 C30            2.7866     2.6018    -2.3401 C.ar    
  31 C31            2.9278     3.8902    -1.8194 C.ar    
  32 C32            2.0539     4.3428    -0.8524 C.ar    
  33 C33            1.0337     3.5270    -0.3995 C.ar    
  34 C34            3.6923     2.1291    -3.3434 C.1     
  35 N35            4.4109     1.7540    -4.1394 N.1     
  36 H36           -1.0066     1.8014    -0.2178 H       
  37 H37           -1.7126    -0.2857     0.5744 H       
  38 H38           -2.5425    -4.9362     0.2266 H       
  39 H39            1.4025    -1.9669     0.3896 H       
  40 H40            2.3002    -4.0882     2.5630 H       
  41 H41            4.3502    -4.6394     3.8379 H       
  42 H42            6.3625    -6.7025    -0.1377 H       
  43 H43            8.2860    -6.6835     2.9035 H       
  44 H44            8.5542    -6.6128     0.0929 H       
  45 H45            9.4464    -7.7090     1.1748 H       
  46 H46            7.8482    -8.1816     0.5497 H       
  47 H47            5.2104    -7.1499    -1.4350 H       
  48 H48            3.7533    -6.7781    -2.3874 H       
  49 H49            5.7708    -5.7686    -3.4166 H       
  50 H50            4.6405    -4.5113    -2.8598 H       
  51 H51            6.0976    -4.8832    -1.9075 H       
  52 H52            1.6461     0.7798    -2.2773 H       
  53 H53            3.7212     4.5318    -2.1733 H       
  54 H54            2.1649     5.3392    -0.4507 H       
  55 H55            0.3500     3.8886     0.3544 H       
@<TRIPOS>BOND
   1    1    2 am
   2    1   28 1
   3    1   36 1
   4    2    3 2
   5    2    4 am
   6    4    5 1
   7    4   37 1
   8    5    6 ar
   9    5   10 ar
  10    6    7 ar
  11    6   12 1
  12    7    8 ar
  13    7   38 1
  14    8    9 ar
  15    8   11 1
  16    9   10 ar
  17    9   15 1
  18   10   39 1
  19   13   14 am
  20   13   22 1
  21   13   26 1
  22   14   15 1
  23   14   23 2
  24   15   16 2
  25   16   17 1
  26   16   40 1
  27   17   18 ar
  28   17   22 ar
  29   18   19 ar
  30   18   41 1
  31   19   20 ar
  32   20   21 ar
  33   20   24 1
  34   21   22 ar
  35   21   42 1
  36   24   25 1
  37   24   43 1
  38   25   44 1
  39   25   45 1
  40   25   46 1
  41   26   27 1
  42   26   47 1
  43   26   48 1
  44   27   49 1
  45   27   50 1
  46   27   51 1
  47   28   29 ar
  48   28   33 ar
  49   29   30 ar
  50   29   52 1
  51   30   31 ar
  52   30   34 1
  53   31   32 ar
  54   31   53 1
  55   32   33 ar
  56   32   54 1
  57   33   55 1
  58   34   35 3

#	End of record

