#	Name: ASD01811003
#	Creating user name:	WinNT
#	Creation time:	15. 06. 2019 19:25

#	Modifying user name:	WinNT
#	Modification time:	15. 06. 2019 19:25

#	Program:	/corina/corina34_cracker 3.40 0067  02.08.2006

@<TRIPOS>MOLECULE
ASD01811003
  61   64    0    0    0
SMALL
NO_CHARGES


@<TRIPOS>ATOM
   1 C1            -0.0184     1.5028     0.0103 C.3     
   2 C2             0.0021    -0.0041     0.0020 C.ar    
   3 C3             0.0229    -0.7016     1.1953 C.ar    
   4 C4             0.0417    -2.0838     1.1877 C.ar    
   5 C5             0.0392    -2.7685    -0.0132 C.ar    
   6 C6             0.0175    -2.0710    -1.2065 C.ar    
   7 C7            -0.0057    -0.6888    -1.1988 C.ar    
   8 C8             1.3954     2.0244    -0.0004 C.2     
   9 N9             1.6237     3.3527     0.0046 N.am    
  10 O10            2.3278     1.2489    -0.0135 O.2     
  11 C11            2.9981     3.8598    -0.0058 C.3     
  12 C12            3.0197     5.2672    -0.6084 C.3     
  13 C13            4.4477     5.8154    -0.5608 C.3     
  14 N14            4.9130     5.8524     0.8315 N.3     
  15 C15            4.9458     4.5059     1.4164 C.3     
  16 C16            3.5327     3.9186     1.4278 C.3     
  17 C17            6.2271     6.5015     0.9304 C.3     
  18 C18            6.5657     6.7462     2.4023 C.3     
  19 C19            7.9343     7.4222     2.5052 C.3     
  20 N20            8.2585     7.6565     3.9146 N.am    
  21 C21            8.9196     6.7157     4.6135 C.2     
  22 C22            7.8836     8.8594     4.5232 C.ar    
  23 C23            8.4976     9.2598     5.7028 C.ar    
  24 C24            9.2478     6.9253     6.0672 C.3     
  25 C25            9.5659     8.3964     6.3222 C.3     
  26 O26            9.2546     5.6867     4.0657 O.2     
  27 C27            6.8999     9.6535     3.9504 C.ar    
  28 C28            8.1295    10.4466     6.3053 C.ar    
  29 C29            7.1482    11.2386     5.7341 C.ar    
  30 C30            6.5333    10.8419     4.5562 C.ar    
  31 F31            6.7893    12.3994     6.3248 F       
  32 F32            5.5763    11.6164     3.9999 F       
  33 H33           -0.5455     1.8639    -0.8728 H       
  34 H34           -0.5286     1.8543     0.9071 H       
  35 H35            0.0248    -0.1667     2.1335 H       
  36 H36            0.0586    -2.6287     2.1200 H       
  37 H37            0.0546    -3.8483    -0.0191 H       
  38 H38            0.0159    -2.6059    -2.1447 H       
  39 H39           -0.0264    -0.1439    -2.1310 H       
  40 H40            0.8780     3.9729     0.0150 H       
  41 H41            3.6259     3.1983    -0.6028 H       
  42 H42            2.6804     5.2252    -1.6434 H       
  43 H43            2.3605     5.9188    -0.0349 H       
  44 H44            5.1038     5.1710    -1.1459 H       
  45 H45            4.4640     6.8231    -0.9761 H       
  46 H46            5.5996     3.8676     0.8220 H       
  47 H47            5.3239     4.5624     2.4372 H       
  48 H48            2.8815     4.5490     2.0334 H       
  49 H49            3.5598     2.9131     1.8476 H       
  50 H50            6.9851     5.8569     0.4855 H       
  51 H51            6.2029     7.4535     0.4000 H       
  52 H52            5.8076     7.3908     2.8472 H       
  53 H53            6.5898     5.7942     2.9326 H       
  54 H54            8.6924     6.7776     2.0603 H       
  55 H55            7.9101     8.3742     1.9749 H       
  56 H56            8.3952     6.6272     6.6774 H       
  57 H57           10.1125     6.3179     6.3344 H       
  58 H58           10.5307     8.6415     5.8782 H       
  59 H59            9.6037     8.5789     7.3961 H       
  60 H60            6.4215     9.3442     3.0329 H       
  61 H61            8.6071    10.7568     7.2229 H       
@<TRIPOS>BOND
   1    1    2 1
   2    1    8 1
   3    1   33 1
   4    1   34 1
   5    2    3 ar
   6    2    7 ar
   7    3    4 ar
   8    3   35 1
   9    4    5 ar
  10    4   36 1
  11    5    6 ar
  12    5   37 1
  13    6    7 ar
  14    6   38 1
  15    7   39 1
  16    8    9 am
  17    8   10 2
  18    9   11 1
  19    9   40 1
  20   11   12 1
  21   11   16 1
  22   11   41 1
  23   12   13 1
  24   12   42 1
  25   12   43 1
  26   13   14 1
  27   13   44 1
  28   13   45 1
  29   14   15 1
  30   14   17 1
  31   15   16 1
  32   15   46 1
  33   15   47 1
  34   16   48 1
  35   16   49 1
  36   17   18 1
  37   17   50 1
  38   17   51 1
  39   18   19 1
  40   18   52 1
  41   18   53 1
  42   19   20 1
  43   19   54 1
  44   19   55 1
  45   20   21 am
  46   20   22 1
  47   21   24 1
  48   21   26 2
  49   22   23 ar
  50   22   27 ar
  51   23   28 ar
  52   23   25 1
  53   24   25 1
  54   24   56 1
  55   24   57 1
  56   25   58 1
  57   25   59 1
  58   27   30 ar
  59   27   60 1
  60   28   29 ar
  61   28   61 1
  62   29   31 1
  63   29   30 ar
  64   30   32 1

#	End of record

