#	Name: ASD05380005
#	Creating user name:	WinNT
#	Creation time:	15. 06. 2019 20:59

#	Modifying user name:	WinNT
#	Modification time:	15. 06. 2019 20:59

#	Program:	/corina/corina34_cracker 3.40 0067  02.08.2006

@<TRIPOS>MOLECULE
ASD05380005
  67   68    0    0    0
SMALL
NO_CHARGES


@<TRIPOS>ATOM
   1 C1            -0.0170     1.4048     0.0098 C.ar    
   2 C2             0.0021    -0.0041     0.0020 C.ar    
   3 C3             1.2038     2.0840     0.0018 C.ar    
   4 N4             2.3225     1.3784    -0.0127 N.ar    
   5 C5             2.2997     0.0528    -0.0196 C.ar    
   6 N6             1.1695    -0.6331    -0.0125 N.ar    
   7 N7            -1.3119    -0.3994     0.0120 N.pl3   
   8 C8            -2.0784     0.7282     0.0251 C.2     
   9 N9            -1.3188     1.7845     0.0189 N.2     
  10 C10           -1.8016    -1.7801     0.0086 C.3     
  11 O11           -3.2305    -1.7788     0.0220 O.3     
  12 C12           -3.8130    -3.0836     0.0199 C.3     
  13 C13           -5.3381    -2.9614     0.0348 C.3     
  14 Si14          -6.0975    -4.6626     0.0322 Si      
  15 C15           -5.5345    -5.5963     1.5428 C.3     
  16 Br16           1.2558     3.9743     0.0108 Br      
  17 N17            3.5088    -0.6414    -0.0354 N.am    
  18 C18           -7.9544    -4.5138     0.0503 C.3     
  19 C19           -5.5628    -5.5789    -1.4993 C.3     
  20 C20            4.6743     0.0352    -0.0433 C.2     
  21 C21            3.5119    -1.9892    -0.0427 C.2     
  22 O22            5.8414    -0.6349    -0.0585 O.3     
  23 O23            4.6715     1.2497    -0.0368 O.2     
  24 C24            7.0572     0.1588    -0.0663 C.3     
  25 C25            7.1025     1.0348     1.1872 C.3     
  26 C26            8.2727    -0.7703    -0.0834 C.3     
  27 C27            7.0777     1.0482    -1.3111 C.3     
  28 O28            4.6789    -2.6593    -0.0579 O.3     
  29 O29            2.4615    -2.5989    -0.0355 O.2     
  30 C30            4.6063    -4.1095    -0.0650 C.3     
  31 C31            3.8481    -4.5761    -1.3093 C.3     
  32 C32            6.0214    -4.6909    -0.0822 C.3     
  33 C33            3.8729    -4.5895     1.1891 C.3     
  34 H34           -3.1583     0.7425     0.0351 H       
  35 H35           -1.4471    -2.2892    -0.8876 H       
  36 H36           -1.4305    -2.2993     0.8923 H       
  37 H37           -3.5002    -3.6198    -0.8761 H       
  38 H38           -3.4837    -3.6299     0.9038 H       
  39 H39           -5.6509    -2.4253     0.9308 H       
  40 H40           -5.6674    -2.4151    -0.8490 H       
  41 H41           -5.8473    -5.0602     2.4388 H       
  42 H42           -5.9788    -6.5917     1.5412 H       
  43 H43           -4.4481    -5.6834     1.5322 H       
  44 H44           -8.2838    -3.9675    -0.8336 H       
  45 H45           -8.3987    -5.5091     0.0487 H       
  46 H46           -8.2672    -3.9777     0.9463 H       
  47 H47           -4.4764    -5.6660    -1.5099 H       
  48 H48           -6.0072    -6.5743    -1.5008 H       
  49 H49           -5.8922    -5.0326    -2.3831 H       
  50 H50            7.0879     0.4011     2.0740 H       
  51 H51            8.0152     1.6306     1.1814 H       
  52 H52            6.2366     1.6967     1.1994 H       
  53 H53            8.2404    -1.3944    -0.9765 H       
  54 H54            9.1854    -0.1745    -0.0893 H       
  55 H55            8.2581    -1.4040     0.8033 H       
  56 H56            6.2117     1.7101    -1.2989 H       
  57 H57            7.9904     1.6440    -1.3169 H       
  58 H58            7.0454     0.4241    -2.2042 H       
  59 H59            4.3706    -4.2341    -2.2026 H       
  60 H60            3.7936    -5.6647    -1.3146 H       
  61 H61            2.8399    -4.1619    -1.2970 H       
  62 H62            6.5616    -4.3585     0.8043 H       
  63 H63            5.9669    -5.7795    -0.0875 H       
  64 H64            6.5439    -4.3489    -0.9755 H       
  65 H65            2.8648    -4.1753     1.2013 H       
  66 H66            3.8184    -5.6781     1.1837 H       
  67 H67            4.4131    -4.2571     2.0755 H       
@<TRIPOS>BOND
   1    1    2 ar
   2    1    3 ar
   3    1    9 1
   4    2    7 1
   5    2    6 ar
   6    3    4 ar
   7    3   16 1
   8    4    5 ar
   9    5    6 ar
  10    5   17 1
  11    7    8 1
  12    7   10 1
  13    8    9 2
  14    8   34 1
  15   10   11 1
  16   10   35 1
  17   10   36 1
  18   11   12 1
  19   12   13 1
  20   12   37 1
  21   12   38 1
  22   13   14 1
  23   13   39 1
  24   13   40 1
  25   14   15 1
  26   14   18 1
  27   14   19 1
  28   15   41 1
  29   15   42 1
  30   15   43 1
  31   17   20 am
  32   17   21 am
  33   18   44 1
  34   18   45 1
  35   18   46 1
  36   19   47 1
  37   19   48 1
  38   19   49 1
  39   20   22 1
  40   20   23 2
  41   21   28 1
  42   21   29 2
  43   22   24 1
  44   24   25 1
  45   24   26 1
  46   24   27 1
  47   25   50 1
  48   25   51 1
  49   25   52 1
  50   26   53 1
  51   26   54 1
  52   26   55 1
  53   27   56 1
  54   27   57 1
  55   27   58 1
  56   28   30 1
  57   30   31 1
  58   30   32 1
  59   30   33 1
  60   31   59 1
  61   31   60 1
  62   31   61 1
  63   32   62 1
  64   32   63 1
  65   32   64 1
  66   33   65 1
  67   33   66 1
  68   33   67 1

#	End of record

