#	Name: ASD03730856
#	Creating user name:	WinNT
#	Creation time:	15. 06. 2019 20:44

#	Modifying user name:	WinNT
#	Modification time:	15. 06. 2019 20:44

#	Program:	/corina/corina34_cracker 3.40 0067  02.08.2006

@<TRIPOS>MOLECULE
ASD03730856
  62   68    0    0    0
SMALL
NO_CHARGES


@<TRIPOS>ATOM
   1 C1             1.3551    -1.2445    -2.5626 C.2     
   2 C2             0.7451    -1.4900    -1.2387 C.ar    
   3 C3             1.4847    -1.2724    -0.0748 C.ar    
   4 C4             0.9095    -1.5034     1.1574 C.ar    
   5 C5            -0.3974    -1.9504     1.2415 C.ar    
   6 C6            -1.1357    -2.1685     0.0921 C.ar    
   7 C7            -0.5746    -1.9349    -1.1466 C.ar    
   8 O8             2.4736    -0.7744    -2.6388 O.2     
   9 N9             0.6734    -1.5471    -3.6852 N.am    
  10 C10            2.9084    -0.7866    -0.1645 C.3     
  11 O11            1.4279    -3.3829     6.3745 O.3     
  12 C12            1.6466    -3.4679     7.7951 C.3     
  13 O13            3.0789    -3.4011     7.9255 O.3     
  14 C14            3.5132    -2.7021     6.8358 C.ar    
  15 C15            2.4980    -2.6921     5.8820 C.ar    
  16 C16            4.7119    -2.0621     6.5767 C.ar    
  17 C17            4.9142    -1.4072     5.3656 C.ar    
  18 C18            3.8957    -1.4112     4.4174 C.ar    
  19 C19            2.6971    -2.0431     4.6751 C.ar    
  20 O20            5.9992    -0.7098     4.9221 O.3     
  21 C21            4.4183    -0.6581     3.2234 C.3     
  22 C22            5.9279    -0.5810     3.4890 C.3     
  23 N23            3.4083    -0.4886     1.1800 N.am    
  24 C24            4.1123    -1.3588     1.9311 C.2     
  25 C25            3.8028     0.7035     3.0930 C.ar    
  26 C26            3.7366     1.8010     3.9221 C.ar    
  27 C27            3.0797     2.9453     3.5058 C.ar    
  28 C28            2.4894     2.9838     2.2557 C.ar    
  29 C29            2.5522     1.8868     1.4220 C.ar    
  30 C30            3.2117     0.7308     1.8326 C.ar    
  31 O31            4.4355    -2.4866     1.6232 O.2     
  32 C32            1.2343    -1.2772    -4.9387 C.ar    
  33 C33            0.5961    -1.7100    -6.0939 C.ar    
  34 C34            1.1513    -1.4426    -7.3296 C.ar    
  35 C35            2.3435    -0.7433    -7.4176 C.ar    
  36 C36            2.9816    -0.3113    -6.2673 C.ar    
  37 C37            2.4265    -0.5713    -5.0294 C.ar    
  38 C38           -0.7009    -2.4713    -5.9987 C.3     
  39 F39           -1.1462    -2.7966    -7.2845 F       
  40 F40           -0.5000    -3.6448    -5.2640 F       
  41 F41           -1.6607    -1.6793    -5.3593 F       
  42 F42            2.8850    -0.4828    -8.6277 F       
  43 H43            1.4805    -1.3354     2.0586 H       
  44 H44           -0.8430    -2.1301     2.2088 H       
  45 H45           -2.1551    -2.5177     0.1646 H       
  46 H46           -1.1536    -2.1006    -2.0431 H       
  47 H47           -0.2060    -1.9520    -3.6243 H       
  48 H48            3.5280    -1.5593    -0.6195 H       
  49 H49            2.9467     0.1159    -0.7746 H       
  50 H50            1.1759    -2.6279     8.3059 H       
  51 H51            1.2702    -4.4138     8.1845 H       
  52 H52            5.4961    -2.0709     7.3193 H       
  53 H53            1.9120    -2.0320     3.9336 H       
  54 H54            6.3292     0.3797     3.1663 H       
  55 H55            6.4496    -1.4037     3.0000 H       
  56 H56            4.1981     1.7686     4.8980 H       
  57 H57            3.0283     3.8065     4.1555 H       
  58 H58            1.9765     3.8770     1.9308 H       
  59 H59            2.0883     1.9243     0.4474 H       
  60 H60            0.6556    -1.7793    -8.2281 H       
  61 H61            3.9114     0.2335    -6.3381 H       
  62 H62            2.9219    -0.2297    -4.1325 H       
@<TRIPOS>BOND
   1    1    2 1
   2    1    8 2
   3    1    9 am
   4    2    3 ar
   5    2    7 ar
   6    3    4 ar
   7    3   10 1
   8    4    5 ar
   9    4   43 1
  10    5    6 ar
  11    5   44 1
  12    6    7 ar
  13    6   45 1
  14    7   46 1
  15    9   32 1
  16    9   47 1
  17   10   23 1
  18   10   48 1
  19   10   49 1
  20   11   12 1
  21   11   15 1
  22   12   13 1
  23   12   50 1
  24   12   51 1
  25   13   14 1
  26   14   15 ar
  27   14   16 ar
  28   15   19 ar
  29   16   17 ar
  30   16   52 1
  31   17   18 ar
  32   17   20 1
  33   18   19 ar
  34   18   21 1
  35   19   53 1
  36   20   22 1
  37   21   22 1
  38   21   24 1
  39   21   25 1
  40   22   54 1
  41   22   55 1
  42   23   24 am
  43   23   30 1
  44   24   31 2
  45   25   26 ar
  46   25   30 ar
  47   26   27 ar
  48   26   56 1
  49   27   28 ar
  50   27   57 1
  51   28   29 ar
  52   28   58 1
  53   29   30 ar
  54   29   59 1
  55   32   33 ar
  56   32   37 ar
  57   33   34 ar
  58   33   38 1
  59   34   35 ar
  60   34   60 1
  61   35   36 ar
  62   35   42 1
  63   36   37 ar
  64   36   61 1
  65   37   62 1
  66   38   39 1
  67   38   40 1
  68   38   41 1

#	End of record

