#	Name: ASD01916899
#	Creating user name:	WinNT
#	Creation time:	15. 06. 2019 20:08

#	Modifying user name:	WinNT
#	Modification time:	15. 06. 2019 20:08

#	Program:	/corina/corina34_cracker 3.40 0067  02.08.2006

@<TRIPOS>MOLECULE
ASD01916899
  59   63    0    0    0
SMALL
NO_CHARGES


@<TRIPOS>ATOM
   1 C1             0.0019     1.3348     0.1709 C.ar    
   2 C2             0.0391    -0.0272     0.4372 C.ar    
   3 C3             1.2579    -0.6756     0.5836 C.ar    
   4 C4             2.4356     0.0321     0.4647 C.ar    
   5 C5             2.4014     1.3993     0.1969 C.ar    
   6 C6             1.1764     2.0476     0.0505 C.ar    
   7 C7             3.6669     2.1636     0.0690 C.2     
   8 N8             4.8980     1.6543     0.1888 N.2     
   9 N9             3.7600     3.4509    -0.1864 N.2     
  10 N10            5.1288     3.7624    -0.2219 N.pl3   
  11 C11            5.7907     2.6066     0.0179 C.2     
  12 C12            7.2598     2.4424     0.0786 C.ar    
  13 C13            5.7229     5.0777    -0.4735 C.3     
  14 C14            5.8498     5.8287     0.8269 C.2     
  15 O15            5.4803     5.3157     1.8619 O.2     
  16 N16            6.3739     7.0703     0.8397 N.am    
  17 C17            6.5068     7.8207     2.0976 C.3     
  18 C18            7.9473     8.3312     2.2101 C.3     
  19 N19            8.2921     9.0854     0.9975 N.3     
  20 C20            8.2559     8.2257    -0.1931 C.3     
  21 C21            6.8337     7.7084    -0.4032 C.3     
  22 C22            9.5264     9.6991     1.1291 C.ar    
  23 N23            9.9976    10.4247     0.1259 N.ar    
  24 N24           10.2050     9.5508     2.2571 N.ar    
  25 C25           11.1729    11.0247     0.2188 C.ar    
  26 C26           11.9126    10.8864     1.3838 C.ar    
  27 C27           11.3867    10.1237     2.4160 C.ar    
  28 C28            8.0795     3.5499     0.2983 C.ar    
  29 O29           -1.1196    -0.7268     0.5553 O.3     
  30 C30            9.4484     3.3915     0.3539 C.ar    
  31 C31           10.0100     2.1349     0.1921 C.ar    
  32 C32            9.2003     1.0317    -0.0269 C.ar    
  33 C33            7.8299     1.1786    -0.0780 C.ar    
  34 F34           11.3516     1.9849     0.2474 F       
  35 C35           -1.0083    -2.1248     0.8298 C.3     
  36 Cl36          13.4601    11.6558     1.5488 Cl      
  37 H37           -0.9476     1.8359     0.0534 H       
  38 H38            1.2838    -1.7351     0.7911 H       
  39 H39            3.3835    -0.4727     0.5794 H       
  40 H40            1.1469     3.1070    -0.1574 H       
  41 H41            6.7101     4.9514    -0.9180 H       
  42 H42            5.0860     5.6394    -1.1568 H       
  43 H43            5.8181     8.6655     2.0945 H       
  44 H44            6.2836     7.1658     2.9399 H       
  45 H45            8.0358     8.9815     3.0803 H       
  46 H46            8.6258     7.4849     2.3173 H       
  47 H47            8.5682     8.7994    -1.0656 H       
  48 H48            8.9301     7.3809    -0.0524 H       
  49 H49            6.8247     6.9812    -1.2151 H       
  50 H50            6.1734     8.5410    -0.6462 H       
  51 H51           11.5519    11.6147    -0.6026 H       
  52 H52           11.9367     9.9962     3.3366 H       
  53 H53            7.6427     4.5296     0.4242 H       
  54 H54           10.0837     4.2482     0.5236 H       
  55 H55            9.6428     0.0546    -0.1528 H       
  56 H56            7.1997     0.3183    -0.2487 H       
  57 H57           -0.4539    -2.6098     0.0264 H       
  58 H58           -0.4817    -2.2689     1.7732 H       
  59 H59           -2.0044    -2.5619     0.8993 H       
@<TRIPOS>BOND
   1    1    2 ar
   2    1    6 ar
   3    1   37 1
   4    2    3 ar
   5    2   29 1
   6    3    4 ar
   7    3   38 1
   8    4    5 ar
   9    4   39 1
  10    5    6 ar
  11    5    7 1
  12    6   40 1
  13    7    8 1
  14    7    9 2
  15    8   11 2
  16    9   10 1
  17   10   11 1
  18   10   13 1
  19   11   12 1
  20   12   28 ar
  21   12   33 ar
  22   13   14 1
  23   13   41 1
  24   13   42 1
  25   14   15 2
  26   14   16 am
  27   16   17 1
  28   16   21 1
  29   17   18 1
  30   17   43 1
  31   17   44 1
  32   18   19 1
  33   18   45 1
  34   18   46 1
  35   19   20 1
  36   19   22 1
  37   20   21 1
  38   20   47 1
  39   20   48 1
  40   21   49 1
  41   21   50 1
  42   22   23 ar
  43   22   24 ar
  44   23   25 ar
  45   24   27 ar
  46   25   26 ar
  47   25   51 1
  48   26   27 ar
  49   26   36 1
  50   27   52 1
  51   28   30 ar
  52   28   53 1
  53   29   35 1
  54   30   31 ar
  55   30   54 1
  56   31   32 ar
  57   31   34 1
  58   32   33 ar
  59   32   55 1
  60   33   56 1
  61   35   57 1
  62   35   58 1
  63   35   59 1

#	End of record

