#	Name: ASD07930369
#	Creating user name:	WinNT
#	Creation time:	15. 06. 2019 21:12

#	Modifying user name:	WinNT
#	Modification time:	15. 06. 2019 21:12

#	Program:	/corina/corina34_cracker 3.40 0067  02.08.2006

@<TRIPOS>MOLECULE
ASD07930369
  45   47    0    0    0
SMALL
NO_CHARGES


@<TRIPOS>ATOM
   1 N1             1.9366    -2.8721    -0.6399 N.2     
   2 N2            -0.3470    -2.8186    -1.1333 N.pl3   
   3 C3            -1.3847    -1.7908    -1.0002 C.3     
   4 C4            -1.4486    -0.9658    -2.2930 C.3     
   5 S5             0.2061    -0.2776    -2.6137 S.o2    
   6 N6             1.1927    -1.6128    -2.4713 N.am    
   7 C7             0.9576    -2.4494    -1.3895 C.2     
   8 C8            -2.7180    -2.4502    -0.7577 C.ar    
   9 C9            -3.1960    -3.3926    -1.6515 C.ar    
  10 C10            2.2555    -1.8901    -3.4408 C.3     
  11 C11           -1.0464    -0.8724     0.1758 C.3     
  12 C12           -3.4589    -2.1177     0.3591 C.ar    
  13 C13           -4.6875    -2.7262     0.5823 C.ar    
  14 C14           -5.1671    -3.6675    -0.3188 C.ar    
  15 C15           -4.4197    -3.9999    -1.4318 C.ar    
  16 N16           -5.4400    -2.3915     1.7132 N.am    
  17 Cl17          -2.2589    -3.8131    -3.0510 Cl      
  18 C18           -6.7859    -2.3687     1.6445 C.2     
  19 O19           -7.3434    -2.5457     0.5782 O.2     
  20 C20           -7.5819    -2.1293     2.8617 C.2     
  21 C21           -8.9397    -2.0793     2.9431 C.2     
  22 O22           -9.2461    -1.8404     4.2282 O.3     
  23 C23           -8.1027    -1.7457     4.9214 C.2     
  24 N24           -7.0980    -1.9225     4.1165 N.2     
  25 C25           -7.9989    -1.4824     6.4016 C.3     
  26 O26            0.3332     0.1177    -3.9727 O.2     
  27 O27            0.6096     0.5797    -1.5547 O.2     
  28 H28            2.8478    -2.6022    -0.8344 H       
  29 H29           -0.5767    -3.7562    -1.0375 H       
  30 H30           -1.7475    -1.6059    -3.1231 H       
  31 H31           -2.1675    -0.1549    -2.1763 H       
  32 H32            3.1787    -1.4110    -3.1147 H       
  33 H33            2.4104    -2.9666    -3.5121 H       
  34 H34            1.9682    -1.4988    -4.4167 H       
  35 H35           -0.0829    -0.3946    -0.0018 H       
  36 H36           -1.8180    -0.1088     0.2741 H       
  37 H37           -0.9973    -1.4595     1.0928 H       
  38 H38           -3.0834    -1.3855     1.0586 H       
  39 H39           -6.1221    -4.1421    -0.1476 H       
  40 H40           -4.7923    -4.7320    -2.1330 H       
  41 H41           -4.9932    -2.1759     2.5467 H       
  42 H42           -9.6376    -2.2068     2.1288 H       
  43 H43           -8.9988    -1.3810     6.8235 H       
  44 H44           -7.4839    -2.3137     6.8832 H       
  45 H45           -7.4390    -0.5623     6.5686 H       
@<TRIPOS>BOND
   1    1    7 2
   2    1   28 1
   3    2    3 1
   4    2    7 1
   5    2   29 1
   6    3    4 1
   7    3    8 1
   8    3   11 1
   9    4    5 1
  10    4   30 1
  11    4   31 1
  12    5    6 am
  13    5   26 2
  14    5   27 2
  15    6    7 1
  16    6   10 1
  17    8   12 ar
  18    8    9 ar
  19    9   17 1
  20    9   15 ar
  21   10   32 1
  22   10   33 1
  23   10   34 1
  24   11   35 1
  25   11   36 1
  26   11   37 1
  27   12   13 ar
  28   12   38 1
  29   13   14 ar
  30   13   16 1
  31   14   15 ar
  32   14   39 1
  33   15   40 1
  34   16   18 am
  35   16   41 1
  36   18   19 2
  37   18   20 1
  38   20   21 2
  39   20   24 1
  40   21   22 1
  41   21   42 1
  42   22   23 1
  43   23   24 2
  44   23   25 1
  45   25   43 1
  46   25   44 1
  47   25   45 1

#	End of record

