#	Name: ASD09890108
#	Creating user name:	WinNT
#	Creation time:	15. 06. 2019 21:24

#	Modifying user name:	WinNT
#	Modification time:	15. 06. 2019 21:24

#	Program:	/corina/corina34_cracker 3.40 0067  02.08.2006

@<TRIPOS>MOLECULE
ASD09890108
  53   57    0    0    0
SMALL
NO_CHARGES


@<TRIPOS>ATOM
   1 C1            -0.0176     1.3672     0.0649 C.2     
   2 N2            -0.0056    -0.0001     0.0347 N.pl3   
   3 C3            -1.2997    -0.4349     0.1190 C.2     
   4 N4            -2.0758     0.6196     0.1977 N.2     
   5 N5            -1.2619     1.7594     0.1690 N.2     
   6 S6            -1.8305    -2.1151     0.1209 S.3     
   7 C7            -3.6340    -1.9731     0.2546 C.3     
   8 C8             1.1332    -0.8132    -0.0651 C.ar    
   9 C9             2.0782    -0.8331     0.9565 C.ar    
  10 C10            3.1864    -1.6523     0.8122 C.ar    
  11 C11            3.3163    -2.4167    -0.3320 C.ar    
  12 N12            2.4024    -2.3749    -1.2820 N.ar    
  13 C13            1.3310    -1.6140    -1.1817 C.ar    
  14 C14           -4.2819    -3.3645     0.1449 C.3     
  15 C15           -5.0378    -3.6042     1.4681 C.3     
  16 C16           -5.3141    -2.1802     2.0111 C.3     
  17 C17           -4.0189    -1.4158     1.6407 C.3     
  18 O18            1.0701     2.1752     0.0035 O.3     
  19 C19            0.8651     3.5145    -0.0919 C.ar    
  20 C20           -0.4195     4.0069    -0.2839 C.ar    
  21 C21           -0.6310     5.3655    -0.3811 C.ar    
  22 C22            0.4467     6.2463    -0.2859 C.ar    
  23 C23            1.7355     5.7484    -0.0926 C.ar    
  24 C24            1.9396     4.3890     0.0086 C.ar    
  25 C25            0.2231     7.7067    -0.3904 C.ar    
  26 C26           -0.5214     8.2276    -1.4450 C.ar    
  27 C27           -0.7278     9.5894    -1.5384 C.ar    
  28 C28           -0.1980    10.4464    -0.5881 C.ar    
  29 C29            0.5431     9.9502     0.4642 C.ar    
  30 C30            0.7572     8.5760     0.5791 C.ar    
  31 C31            1.5252     8.0549     1.6696 C.1     
  32 N32            2.1345     7.6415     2.5347 N.1     
  33 H33           -4.0161    -1.3203    -0.5303 H       
  34 H34            1.9511    -0.2248     1.8398 H       
  35 H35            3.9401    -1.6927     1.5847 H       
  36 H36            4.1782    -3.0567    -0.4499 H       
  37 H37            0.6041    -1.6065    -1.9804 H       
  38 H38           -4.9790    -3.3867    -0.6927 H       
  39 H39           -3.5126    -4.1250     0.0113 H       
  40 H40           -5.9744    -4.1301     1.2825 H       
  41 H41           -4.4163    -4.1648     2.1664 H       
  42 H42           -6.1785    -1.7386     1.5151 H       
  43 H43           -5.4556    -2.1995     3.0917 H       
  44 H44           -3.2328    -1.6230     2.3668 H       
  45 H45           -4.2118    -0.3447     1.5811 H       
  46 H46           -1.2534     3.3245    -0.3574 H       
  47 H47           -1.6299     5.7477    -0.5311 H       
  48 H48            2.5719     6.4277    -0.0185 H       
  49 H49            2.9371     4.0029     0.1582 H       
  50 H50           -0.9375     7.5662    -2.1906 H       
  51 H51           -1.3061     9.9892    -2.3582 H       
  52 H52           -0.3658    11.5100    -0.6718 H       
  53 H53            0.9537    10.6244     1.2012 H       
@<TRIPOS>BOND
   1    1    2 1
   2    1   18 1
   3    1    5 2
   4    2    3 1
   5    2    8 1
   6    3    4 2
   7    3    6 1
   8    4    5 1
   9    6    7 1
  10    7   14 1
  11    7   17 1
  12    7   33 1
  13    8    9 ar
  14    8   13 ar
  15    9   10 ar
  16    9   34 1
  17   10   11 ar
  18   10   35 1
  19   11   12 ar
  20   11   36 1
  21   12   13 ar
  22   13   37 1
  23   14   15 1
  24   14   38 1
  25   14   39 1
  26   15   16 1
  27   15   40 1
  28   15   41 1
  29   16   17 1
  30   16   42 1
  31   16   43 1
  32   17   44 1
  33   17   45 1
  34   18   19 1
  35   19   20 ar
  36   19   24 ar
  37   20   21 ar
  38   20   46 1
  39   21   22 ar
  40   21   47 1
  41   22   23 ar
  42   22   25 1
  43   23   24 ar
  44   23   48 1
  45   24   49 1
  46   25   26 ar
  47   25   30 ar
  48   26   27 ar
  49   26   50 1
  50   27   28 ar
  51   27   51 1
  52   28   29 ar
  53   28   52 1
  54   29   30 ar
  55   29   53 1
  56   30   31 1
  57   31   32 3

#	End of record

