#	Name: ASD09080130
#	Creating user name:	WinNT
#	Creation time:	15. 06. 2019 21:20

#	Modifying user name:	WinNT
#	Modification time:	15. 06. 2019 21:20

#	Program:	/corina/corina34_cracker 3.40 0067  02.08.2006

@<TRIPOS>MOLECULE
ASD09080130
  20   20    0    0    0
SMALL
NO_CHARGES


@<TRIPOS>ATOM
   1 C1            -0.0184     1.5067     0.0103 C.3     
   2 C2             0.0021    -0.0041     0.0020 C.2     
   3 C3             1.2984    -0.3707    -0.0123 C.2     
   4 C4             2.1280     0.8287    -0.0138 C.2     
   5 O5             1.3494     1.9272    -0.0005 O.3     
   6 O6            -1.0696    -0.8262     0.0082 O.3     
   7 O7             1.7592    -1.6532    -0.0232 O.3     
   8 O8             3.3446     0.8356    -0.0250 O.2     
   9 C9            -0.7147     2.0158     1.2740 C.3     
  10 C10           -0.6181     3.5417     1.3299 C.3     
  11 O11           -1.3670     4.0258     2.4465 O.3     
  12 O12           -0.0807     1.4559     2.4257 O.3     
  13 H13           -0.5316     1.8790    -0.8763 H       
  14 H14           -0.8441    -1.7665     0.0009 H       
  15 H15            2.7236    -1.7245    -0.0329 H       
  16 H16           -1.7633     1.7186     1.2559 H       
  17 H17            0.4259     3.8360     1.4375 H       
  18 H18           -1.0221     3.9653     0.4104 H       
  19 H19           -1.3502     4.9878     2.5441 H       
  20 H20            0.8566     1.6797     2.5065 H       
@<TRIPOS>BOND
   1    1    2 1
   2    1    5 1
   3    1    9 1
   4    1   13 1
   5    2    3 2
   6    2    6 1
   7    3    4 1
   8    3    7 1
   9    4    5 1
  10    4    8 2
  11    6   14 1
  12    7   15 1
  13    9   10 1
  14    9   12 1
  15    9   16 1
  16   10   11 1
  17   10   17 1
  18   10   18 1
  19   11   19 1
  20   12   20 1

#	End of record

