#	Name: ASD03091916
#	Creating user name:	WinNT
#	Creation time:	15. 06. 2019 20:31

#	Modifying user name:	WinNT
#	Modification time:	15. 06. 2019 20:31

#	Program:	/corina/corina34_cracker 3.40 0067  02.08.2006

@<TRIPOS>MOLECULE
ASD03091916
  58   62    0    0    0
SMALL
NO_CHARGES


@<TRIPOS>ATOM
   1 C1            -0.0170     1.3998     0.0097 C.ar    
   2 C2            -1.2283     2.0682     0.0306 C.ar    
   3 C3            -2.4087     1.3494     0.0435 C.ar    
   4 C4            -2.3914    -0.0360     0.0356 C.ar    
   5 C5            -1.1918    -0.7183     0.0148 C.ar    
   6 C6             0.0021    -0.0041     0.0020 C.ar    
   7 O7             1.1631     2.0665     0.0021 O.3     
   8 C8             2.2620     1.4580     0.6804 C.3     
   9 N9             2.4081     0.0565     0.2863 N.am    
  10 C10            1.3144    -0.6822    -0.0142 C.2     
  11 C11           -3.6892    -0.8018     0.0501 C.3     
  12 C12           -4.1424    -1.0492    -1.3657 C.ar    
  13 C13           -4.9541    -0.1277    -2.0013 C.ar    
  14 C14           -3.7410    -2.1946    -2.0284 C.ar    
  15 C15           -4.1544    -2.4239    -3.3262 C.ar    
  16 C16           -4.9737    -1.5030    -3.9653 C.ar    
  17 C17           -5.3711    -0.3517    -3.2989 C.ar    
  18 O18            1.4088    -1.8630    -0.2883 O.2     
  19 C19            3.7406    -0.5484     0.2167 C.3     
  20 C20            3.8150    -1.7311     1.1845 C.3     
  21 N21           -5.3949    -1.7330    -5.2824 N.pl3   
  22 C22            5.2066    -2.3628     1.1119 C.3     
  23 C23            4.0045    -1.0383    -1.2085 C.3     
  24 C24            5.3961    -1.6701    -1.2812 C.3     
  25 C25            5.4705    -2.8527    -0.3133 C.3     
  26 O26            3.9351     0.0662    -2.1124 O.3     
  27 C27           -1.2604     3.5748     0.0397 C.3     
  28 C28           -6.1849    -0.9193    -6.0188 C.2     
  29 C29           -6.3563    -1.4977    -7.2301 C.2     
  30 C30           -5.6482    -2.7045    -7.2353 C.2     
  31 N31           -5.0669    -2.8434    -6.0709 N.2     
  32 H32           -3.3534     1.8725     0.0602 H       
  33 H33           -1.1800    -1.7983     0.0090 H       
  34 H34            3.1773     1.9966     0.4346 H       
  35 H35            2.0934     1.5120     1.7559 H       
  36 H36           -3.5425    -1.7558     0.5566 H       
  37 H37           -4.4468    -0.2228     0.5782 H       
  38 H38           -5.2626     0.7679    -1.4825 H       
  39 H39           -3.1034    -2.9103    -1.5309 H       
  40 H40           -3.8403    -3.3184    -3.8435 H       
  41 H41           -6.0056     0.3681    -3.7946 H       
  42 H42            4.4910     0.1931     0.4908 H       
  43 H43            3.6270    -1.3820     2.1999 H       
  44 H44            3.0646    -2.4726     0.9104 H       
  45 H45            5.9570    -1.6213     1.3860 H       
  46 H46            5.2596    -3.2053     1.8014 H       
  47 H47            3.2541    -1.7799    -1.4826 H       
  48 H48            5.5841    -2.0191    -2.2965 H       
  49 H49            6.1465    -0.9285    -1.0071 H       
  50 H50            6.4619    -3.3028    -0.3651 H       
  51 H51            4.7201    -3.5943    -0.5874 H       
  52 H52            4.0927    -0.1712    -3.0365 H       
  53 H53           -1.2825     3.9440    -0.9856 H       
  54 H54           -2.1506     3.9161     0.5681 H       
  55 H55           -0.3712     3.9541     0.5433 H       
  56 H56           -6.6041     0.0228    -5.6978 H       
  57 H57           -6.9375    -1.0986    -8.0482 H       
  58 H58           -5.5880    -3.3995    -8.0598 H       
@<TRIPOS>BOND
   1    1    6 ar
   2    1    7 1
   3    1    2 ar
   4    2    3 ar
   5    2   27 1
   6    3    4 ar
   7    3   32 1
   8    4    5 ar
   9    4   11 1
  10    5    6 ar
  11    5   33 1
  12    6   10 1
  13    7    8 1
  14    8    9 1
  15    8   34 1
  16    8   35 1
  17    9   10 am
  18    9   19 1
  19   10   18 2
  20   11   12 1
  21   11   36 1
  22   11   37 1
  23   12   14 ar
  24   12   13 ar
  25   13   17 ar
  26   13   38 1
  27   14   15 ar
  28   14   39 1
  29   15   16 ar
  30   15   40 1
  31   16   17 ar
  32   16   21 1
  33   17   41 1
  34   19   23 1
  35   19   20 1
  36   19   42 1
  37   20   22 1
  38   20   43 1
  39   20   44 1
  40   21   31 1
  41   21   28 1
  42   22   25 1
  43   22   45 1
  44   22   46 1
  45   23   24 1
  46   23   26 1
  47   23   47 1
  48   24   25 1
  49   24   48 1
  50   24   49 1
  51   25   50 1
  52   25   51 1
  53   26   52 1
  54   27   53 1
  55   27   54 1
  56   27   55 1
  57   28   29 2
  58   28   56 1
  59   29   30 1
  60   29   57 1
  61   30   31 2
  62   30   58 1

#	End of record

