#	Name: ASD01940067
#	Creating user name:	WinNT
#	Creation time:	15. 06. 2019 20:11

#	Modifying user name:	WinNT
#	Modification time:	15. 06. 2019 20:11

#	Program:	/corina/corina34_cracker 3.40 0067  02.08.2006

@<TRIPOS>MOLECULE
ASD01940067
  42   44    0    0    0
SMALL
NO_CHARGES


@<TRIPOS>ATOM
   1 Br1           -2.7143    -1.9687    -6.3769 Br      
   2 Cl2           -5.7792    -1.4591    -1.7950 Cl      
   3 F3            -3.2793    -4.9760     0.3809 F       
   4 O4            -0.1956     1.5902     0.3626 O.3     
   5 O5            -2.2007    -0.0967    -0.1476 O.2     
   6 O6            -0.1992     4.3934     0.9963 O.3     
   7 N7             0.6748    -4.6079     2.7128 N.pl3   
   8 N8            -3.3212    -2.3231    -0.3607 N.pl3   
   9 N9            -0.9566    -5.9015     2.0592 N.2     
  10 N10           -0.1882     0.2245     0.7365 N.am    
  11 C11           -0.1874    -3.8197     1.9699 C.ar    
  12 C12           -1.2308    -4.6708     1.5583 C.ar    
  13 C13           -2.2798    -2.8298     0.4163 C.ar    
  14 C14           -1.2350    -1.9815     0.8295 C.ar    
  15 C15           -0.1920    -2.4859     1.6069 C.ar    
  16 C16           -2.2759    -4.1636     0.7789 C.ar    
  17 C17            0.1564    -5.8639     2.7333 C.2     
  18 C18            1.9181    -4.1708     3.3526 C.3     
  19 C19           -1.2427    -0.5610     0.4406 C.2     
  20 C20           -3.1815    -2.2415    -1.7493 C.ar    
  21 C21           -4.2581    -1.8484    -2.5358 C.ar    
  22 C22           -1.9648    -2.5474    -2.3456 C.ar    
  23 C23           -4.1163    -1.7683    -3.9082 C.ar    
  24 C24           -1.8295    -2.4654    -3.7175 C.ar    
  25 C25           -2.9043    -2.0789    -4.4987 C.ar    
  26 C26            0.9847     2.3023     0.7391 C.3     
  27 C27            0.8672     3.7593     0.2872 C.3     
  28 H28           -0.3316     5.3216     0.7598 H       
  29 H29           -4.1424    -2.0274     0.0623 H       
  30 H30            0.5759    -0.1458     1.2056 H       
  31 H31            0.6097    -1.8357     1.9246 H       
  32 H32            0.6033    -6.7089     3.2358 H       
  33 H33            1.7048    -3.8282     4.3651 H       
  34 H34            2.6195    -5.0043     3.3912 H       
  35 H35            2.3552    -3.3545     2.7774 H       
  36 H36           -1.1252    -2.8488    -1.7368 H       
  37 H37           -4.9523    -1.4633    -4.5201 H       
  38 H38           -0.8835    -2.7029    -4.1813 H       
  39 H39            1.1010     2.2660     1.8222 H       
  40 H40            1.8525     1.8437     0.2649 H       
  41 H41            0.6624     3.7925    -0.7828 H       
  42 H42            1.8018     4.2805     0.4946 H       
@<TRIPOS>BOND
   1    1   25 1
   2    2   21 1
   3    3   16 1
   4    4   10 1
   5    4   26 1
   6    5   19 2
   7    6   27 1
   8    6   28 1
   9    7   11 1
  10    7   17 1
  11    7   18 1
  12    8   13 1
  13    8   20 1
  14    8   29 1
  15    9   12 1
  16    9   17 2
  17   10   19 am
  18   10   30 1
  19   11   12 ar
  20   11   15 ar
  21   12   16 ar
  22   13   14 ar
  23   13   16 ar
  24   14   15 ar
  25   14   19 1
  26   15   31 1
  27   17   32 1
  28   18   33 1
  29   18   34 1
  30   18   35 1
  31   20   21 ar
  32   20   22 ar
  33   21   23 ar
  34   22   24 ar
  35   22   36 1
  36   23   25 ar
  37   23   37 1
  38   24   25 ar
  39   24   38 1
  40   26   27 1
  41   26   39 1
  42   26   40 1
  43   27   41 1
  44   27   42 1

#	End of record

