#	Name: ASD01001106
#	Creating user name:	WinNT
#	Creation time:	15. 06. 2019 18:55

#	Modifying user name:	WinNT
#	Modification time:	15. 06. 2019 18:55

#	Program:	/corina/corina34_cracker 3.40 0067  02.08.2006

@<TRIPOS>MOLECULE
ASD01001106
  61   64    0    0    0
SMALL
NO_CHARGES


@<TRIPOS>ATOM
   1 C1             0.3593     0.4073    -1.3107 C.2     
   2 N2             0.0699     0.2343     0.0291 N.pl3   
   3 N3            -1.1128    -0.4261     0.3850 N.2     
   4 C4            -1.9289    -0.8716    -0.5103 C.2     
   5 N5            -1.7001    -0.7323    -1.8560 N.am    
   6 C6            -0.5893    -0.1040    -2.3010 C.2     
   7 C7             1.5606     1.0748    -1.3991 C.2     
   8 C8             1.9936     1.3032    -0.0903 C.2     
   9 C9             1.0662     0.7807     0.7529 C.2     
  10 O10           -0.3785     0.0244    -3.4935 O.2     
  11 C11           -2.6698    -1.2631    -2.8173 C.3     
  12 C12           -3.7557    -0.2444    -3.0498 C.ar    
  13 C13           -3.5715     0.7624    -3.9790 C.ar    
  14 C14           -4.5676     1.6968    -4.1923 C.ar    
  15 C15           -5.7481     1.6242    -3.4767 C.ar    
  16 C16           -5.9327     0.6169    -2.5482 C.ar    
  17 C17           -4.9383    -0.3201    -2.3380 C.ar    
  18 C18           -3.1838    -1.5737    -0.0592 C.3     
  19 N19           -2.8260    -2.7930     0.6698 N.am    
  20 C20           -3.9847    -0.6474     0.8581 C.3     
  21 C21           -2.1255    -2.7002     1.9532 C.3     
  22 C22           -3.1413    -4.0000     0.1599 C.2     
  23 C23           -3.7549    -4.0984    -1.1816 C.ar    
  24 O24           -2.9211    -5.0078     0.8029 O.2     
  25 C25           -3.1466    -2.6993     3.0926 C.3     
  26 H26            1.1186     0.8005     1.8314 H       
  27 C27           -3.2519    -5.0032    -2.1178 C.ar    
  28 C28           -3.8291    -5.0900    -3.3678 C.ar    
  29 C29           -4.9042    -4.2827    -3.6943 C.ar    
  30 C30           -5.4074    -3.3834    -2.7710 C.ar    
  31 C31           -4.8434    -3.2910    -1.5154 C.ar    
  32 C32           -5.5297    -4.3830    -5.0617 C.3     
  33 C33           -5.3336    -1.2926     1.1823 C.3     
  34 O34           -3.8272    -3.9555     3.1233 O.3     
  35 H35            2.0704     1.3655    -2.3058 H       
  36 H36            2.9047     1.8056     0.1993 H       
  37 H37           -2.1663    -1.4790    -3.7596 H       
  38 H38           -3.1093    -2.1789    -2.4220 H       
  39 H39           -2.6492     0.8191    -4.5380 H       
  40 H40           -4.4234     2.4838    -4.9177 H       
  41 H41           -6.5261     2.3547    -3.6428 H       
  42 H42           -6.8549     0.5604    -1.9889 H       
  43 H43           -5.0825    -1.1071    -1.6126 H       
  44 H44           -3.7870    -1.8341    -0.9289 H       
  45 H45           -3.4298    -0.4819     1.7815 H       
  46 H46           -4.1493     0.3066     0.3571 H       
  47 H47           -1.4572    -3.5540     2.0649 H       
  48 H48           -1.5453    -1.7780     1.9846 H       
  49 H49           -2.6328    -2.5412     4.0408 H       
  50 H50           -3.8688    -1.8987     2.9327 H       
  51 H51           -2.4124    -5.6337    -1.8643 H       
  52 H52           -3.4406    -5.7894    -4.0933 H       
  53 H53           -6.2467    -2.7558    -3.0322 H       
  54 H54           -5.2373    -2.5889    -0.7955 H       
  55 H55           -6.3264    -5.1266    -5.0432 H       
  56 H56           -5.9429    -3.4147    -5.3441 H       
  57 H57           -4.7721    -4.6801    -5.7869 H       
  58 H58           -5.8835    -0.6561     1.8756 H       
  59 H59           -5.9092    -1.4122     0.2644 H       
  60 H60           -5.1692    -2.2690     1.6379 H       
  61 H61           -4.4910    -4.0261     3.8229 H       
@<TRIPOS>BOND
   1    1    2 1
   2    1    7 2
   3    1    6 1
   4    2    3 1
   5    2    9 1
   6    3    4 2
   7    4    5 1
   8    4   18 1
   9    5    6 am
  10    5   11 1
  11    6   10 2
  12    7    8 1
  13    7   35 1
  14    8    9 2
  15    8   36 1
  16    9   26 1
  17   11   12 1
  18   11   37 1
  19   11   38 1
  20   12   13 ar
  21   12   17 ar
  22   13   14 ar
  23   13   39 1
  24   14   15 ar
  25   14   40 1
  26   15   16 ar
  27   15   41 1
  28   16   17 ar
  29   16   42 1
  30   17   43 1
  31   18   19 1
  32   18   20 1
  33   18   44 1
  34   19   21 1
  35   19   22 am
  36   20   33 1
  37   20   45 1
  38   20   46 1
  39   21   25 1
  40   21   47 1
  41   21   48 1
  42   22   23 1
  43   22   24 2
  44   23   27 ar
  45   23   31 ar
  46   25   34 1
  47   25   49 1
  48   25   50 1
  49   27   28 ar
  50   27   51 1
  51   28   29 ar
  52   28   52 1
  53   29   30 ar
  54   29   32 1
  55   30   31 ar
  56   30   53 1
  57   31   54 1
  58   32   55 1
  59   32   56 1
  60   32   57 1
  61   33   58 1
  62   33   59 1
  63   33   60 1
  64   34   61 1

#	End of record

