#	Name: ASD01560035
#	Creating user name:	WinNT
#	Creation time:	15. 06. 2019 19:22

#	Modifying user name:	WinNT
#	Modification time:	15. 06. 2019 19:22

#	Program:	/corina/corina34_cracker 3.40 0067  02.08.2006

@<TRIPOS>MOLECULE
ASD01560035
  45   48    0    0    0
SMALL
NO_CHARGES


@<TRIPOS>ATOM
   1 C1            -0.0187     1.5258     0.0104 C.3     
   2 C2             0.0021    -0.0041     0.0020 C.3     
   3 O3            -1.3386    -0.4987     0.0122 O.3     
   4 C4            -1.4983    -1.8480     0.0064 C.ar    
   5 C5            -2.7744    -2.3946     0.0157 C.ar    
   6 C6            -2.9396    -3.7638     0.0099 C.ar    
   7 C7            -1.8239    -4.5988    -0.0052 C.ar    
   8 C8            -0.5441    -4.0472    -0.0145 C.ar    
   9 C9            -0.3851    -2.6773    -0.0144 C.ar    
  10 C10           -1.9984    -6.0725    -0.0110 C.2     
  11 C11           -0.9621    -7.0208    -0.0259 C.2     
  12 C12           -1.5423    -8.2702    -0.0257 C.2     
  13 N13           -2.9027    -8.0874    -0.0110 N.am    
  14 N14           -3.1509    -6.7104     0.0028 N.2     
  15 C15           -3.7184    -9.1604    -0.0076 C.2     
  16 O16           -4.9248    -9.0111     0.0050 O.2     
  17 N17           -3.1887   -10.4005    -0.0187 N.am    
  18 C18           -1.8254   -10.5683    -0.0334 C.2     
  19 N19           -1.0263    -9.5243    -0.0374 N.2     
  20 S20           -1.1433   -12.1928    -0.0478 S.3     
  21 C21            0.6218   -11.7926    -0.0640 C.3     
  22 C22            1.4258   -13.0671    -0.0780 C.2     
  23 N23            1.5454   -13.8179     1.0610 N.am    
  24 C24            2.2610   -14.9572     1.0587 C.2     
  25 O25            2.3544   -15.6082     2.0814 O.2     
  26 N26            2.8745   -15.3869    -0.0596 N.am    
  27 C27            2.7813   -14.6768    -1.2019 C.2     
  28 O28            3.3365   -15.0650    -2.2139 O.2     
  29 C29            2.0273   -13.4776    -1.2154 C.2     
  30 Cl30           1.8884   -12.5419    -2.6711 Cl      
  31 H31            1.0039     1.9031     0.0027 H       
  32 H32           -0.5459     1.8868    -0.8726 H       
  33 H33           -0.5289     1.8773     0.9072 H       
  34 H34            0.5123    -0.3556    -0.8948 H       
  35 H35            0.5293    -0.3651     0.8851 H       
  36 H36           -3.6386    -1.7470     0.0278 H       
  37 H37           -3.9326    -4.1884     0.0175 H       
  38 H38            0.3222    -4.6920    -0.0262 H       
  39 H39            0.6064    -2.2493    -0.0215 H       
  40 H40            0.0968    -6.8089    -0.0363 H       
  41 H41           -3.7717   -11.1757    -0.0160 H       
  42 H42            0.8534   -11.2070    -0.9537 H       
  43 H43            0.8716   -11.2152     0.8262 H       
  44 H44            1.1105   -13.5253     1.8772 H       
  45 H45            3.3861   -16.2109    -0.0435 H       
@<TRIPOS>BOND
   1    1    2 1
   2    1   31 1
   3    1   32 1
   4    1   33 1
   5    2    3 1
   6    2   34 1
   7    2   35 1
   8    3    4 1
   9    4    5 ar
  10    4    9 ar
  11    5    6 ar
  12    5   36 1
  13    6    7 ar
  14    6   37 1
  15    7    8 ar
  16    7   10 1
  17    8    9 ar
  18    8   38 1
  19    9   39 1
  20   10   11 1
  21   10   14 2
  22   11   12 2
  23   11   40 1
  24   12   13 1
  25   12   19 1
  26   13   14 1
  27   13   15 am
  28   15   16 2
  29   15   17 am
  30   17   18 1
  31   17   41 1
  32   18   19 2
  33   18   20 1
  34   20   21 1
  35   21   22 1
  36   21   42 1
  37   21   43 1
  38   22   23 1
  39   22   29 2
  40   23   24 am
  41   23   44 1
  42   24   25 2
  43   24   26 am
  44   26   27 am
  45   26   45 1
  46   27   28 2
  47   27   29 1
  48   29   30 1

#	End of record

