#	Name: ASD01917956
#	Creating user name:	WinNT
#	Creation time:	15. 06. 2019 20:10

#	Modifying user name:	WinNT
#	Modification time:	15. 06. 2019 20:10

#	Program:	/corina/corina34_cracker 3.40 0067  02.08.2006

@<TRIPOS>MOLECULE
ASD01917956
  30   31    0    0    0
SMALL
NO_CHARGES


@<TRIPOS>ATOM
   1 C1            -0.0126     1.0758     0.0080 C.ar    
   2 N2             1.1637     3.1304     0.0078 N.ar    
   3 C3             7.1182    -0.1095    -0.0635 C.ar    
   4 C4             7.1437    -1.4923    -0.0713 C.ar    
   5 C5             5.9578    -2.2143    -0.0647 C.ar    
   6 C6             4.7425    -1.5512    -0.0504 C.ar    
   7 C7             7.2781    -4.1914    -0.0881 C.3     
   8 C8             1.1820     1.8010     0.0004 C.ar    
   9 C9             0.0322     3.8045     0.0223 C.ar    
  10 C10           -1.1856     3.1493     0.0248 C.ar    
  11 C11           -1.2137     1.7610     0.0173 C.ar    
  12 C12            0.0652     5.3111     0.0304 C.3     
  13 C13            2.4346     1.1073    -0.0148 C.1     
  14 C14            3.4616     0.5386    -0.0273 C.1     
  15 C15            4.7143    -0.1551    -0.0426 C.ar    
  16 C16            5.9139     0.5626    -0.0435 C.ar    
  17 O17            5.9899    -3.5730    -0.0729 O.3     
  18 H18            0.0021    -0.0041     0.0020 H       
  19 H19            8.0444     0.4459    -0.0687 H       
  20 H20            8.0900    -2.0127    -0.0828 H       
  21 H21            3.8194    -2.1118    -0.0456 H       
  22 H22            7.8199    -3.8803    -0.9812 H       
  23 H23            7.8360    -3.8905     0.7986 H       
  24 H24            7.1608    -5.2751    -0.0933 H       
  25 H25           -2.1070     3.7126     0.0371 H       
  26 H26           -2.1531     1.2281     0.0184 H       
  27 H27            0.0783     5.6687     1.0599 H       
  28 H28            0.9603     5.6577    -0.4861 H       
  29 H29           -0.8192     5.6966    -0.4769 H       
  30 H30            5.8977     1.6424    -0.0327 H       
@<TRIPOS>BOND
   1    1   18 1
   2    1    8 ar
   3    1   11 ar
   4    2    8 ar
   5    2    9 ar
   6    3    4 ar
   7    3   19 1
   8    3   16 ar
   9    4   20 1
  10    4    5 ar
  11    5   17 1
  12    5    6 ar
  13    6   21 1
  14    6   15 ar
  15    7   17 1
  16    7   22 1
  17    7   23 1
  18    7   24 1
  19    8   13 1
  20    9   10 ar
  21    9   12 1
  22   10   11 ar
  23   10   25 1
  24   11   26 1
  25   12   27 1
  26   12   28 1
  27   12   29 1
  28   13   14 3
  29   14   15 1
  30   15   16 ar
  31   16   30 1

#	End of record

