#	Name: ASD03090391
#	Creating user name:	WinNT
#	Creation time:	15. 06. 2019 20:28

#	Modifying user name:	WinNT
#	Modification time:	15. 06. 2019 20:28

#	Program:	/corina/corina34_cracker 3.40 0067  02.08.2006

@<TRIPOS>MOLECULE
ASD03090391
  41   43    0    0    0
SMALL
NO_CHARGES


@<TRIPOS>ATOM
   1 C1            -0.0169     1.3956     0.0097 C.ar    
   2 C2             0.0021    -0.0041     0.0020 C.ar    
   3 C3             1.2332    -0.6365    -0.0131 C.ar    
   4 C4             2.3778     0.1582    -0.0198 C.ar    
   5 N5             2.2662     1.4802    -0.0116 N.ar    
   6 N6             1.1263     2.0702     0.0024 N.ar    
   7 C7            -1.3065     2.1204     0.0198 C.2     
   8 O8            -2.3520     1.5005     0.0213 O.2     
   9 N9            -1.3221     3.4680     0.0272 N.am    
  10 O10            3.6040    -0.4187    -0.0342 O.3     
  11 C11            4.7331     0.4572    -0.0403 C.3     
  12 C12            5.1495     0.7625     1.4000 C.3     
  13 C13            5.8949    -0.2136    -0.7758 C.3     
  14 C14           -2.5991     4.1858     0.0371 C.3     
  15 N15           -1.6388     9.7305    -0.2106 N.pl3   
  16 C16           -1.6162     9.9039    -1.5676 C.2     
  17 C17           -1.8228     8.7287    -2.1827 C.2     
  18 C18           -1.9915     7.7203    -1.1337 C.ar    
  19 C19           -2.2303     6.3446    -1.1393 C.ar    
  20 C20           -2.3409     5.6705     0.0439 C.ar    
  21 C21           -2.2176     6.3424     1.2526 C.ar    
  22 C22           -1.9824     7.6994     1.2812 C.ar    
  23 C23           -1.8663     8.4058     0.0883 C.ar    
  24 H24           -0.9158    -0.5731     0.0081 H       
  25 H25            1.3046    -1.7142    -0.0193 H       
  26 H26           -0.4877     3.9627     0.0259 H       
  27 H27            4.4699     1.3856    -0.5470 H       
  28 H28            6.0107     1.4306     1.3953 H       
  29 H29            4.3218     1.2404     1.9240 H       
  30 H30            5.4127    -0.1660     1.9067 H       
  31 H31            5.5983    -0.4312    -1.8018 H       
  32 H32            6.7562     0.4545    -0.7804 H       
  33 H33            6.1581    -1.1421    -0.2691 H       
  34 H34           -3.1718     3.9207    -0.8516 H       
  35 H35           -3.1634     3.9111     0.9283 H       
  36 H36           -1.5097    10.4351     0.4435 H       
  37 H37           -1.4562    10.8467    -2.0696 H       
  38 H38           -1.8579     8.5590    -3.2487 H       
  39 H39           -2.3282     5.8154    -2.0757 H       
  40 H40           -2.3074     5.7958     2.1797 H       
  41 H41           -1.8884     8.2131     2.2265 H       
@<TRIPOS>BOND
   1    1    2 ar
   2    1    6 ar
   3    1    7 1
   4    2    3 ar
   5    2   24 1
   6    3    4 ar
   7    3   25 1
   8    4    5 ar
   9    4   10 1
  10    5    6 ar
  11    7    8 2
  12    7    9 am
  13    9   14 1
  14    9   26 1
  15   10   11 1
  16   11   12 1
  17   11   13 1
  18   11   27 1
  19   12   28 1
  20   12   29 1
  21   12   30 1
  22   13   31 1
  23   13   32 1
  24   13   33 1
  25   14   20 1
  26   14   34 1
  27   14   35 1
  28   15   16 1
  29   15   23 1
  30   15   36 1
  31   16   17 2
  32   16   37 1
  33   17   18 1
  34   17   38 1
  35   18   19 ar
  36   18   23 ar
  37   19   20 ar
  38   19   39 1
  39   20   21 ar
  40   21   22 ar
  41   21   40 1
  42   22   23 ar
  43   22   41 1

#	End of record

