#	Name: ASD00990047
#	Creating user name:	WinNT
#	Creation time:	15. 06. 2019 18:54

#	Modifying user name:	WinNT
#	Modification time:	15. 06. 2019 18:54

#	Program:	/corina/corina34_cracker 3.40 0067  02.08.2006

@<TRIPOS>MOLECULE
ASD00990047
  27   26    0    0    0
SMALL
NO_CHARGES


@<TRIPOS>ATOM
   1 C1            -0.0170     1.4003     0.0097 C.ar    
   2 C2             0.0021    -0.0041     0.0020 C.ar    
   3 C3            -1.1907    -0.7144     0.0100 C.ar    
   4 C4            -2.3929    -0.0374     0.0255 C.ar    
   5 C5            -2.4172     1.3542     0.0327 C.ar    
   6 C6            -1.2423     2.0729     0.0302 C.ar    
   7 N7             1.2767     1.8141    -0.0004 N.2     
   8 C8             2.0666     0.7805    -0.0135 C.2     
   9 N9             1.3351    -0.3669    -0.0127 N.pl3   
  10 C10            3.5722     0.8446    -0.0275 C.3     
  11 N11            4.0431     0.9940    -1.4110 N.3     
  12 C12            5.5096     1.0600    -1.4636 C.3     
  13 F13           -3.6013     2.0044     0.0470 F       
  14 F14           -3.5532    -0.7294     0.0333 F       
  15 H15           -1.1777    -1.7943     0.0037 H       
  16 H16           -1.2676     3.1526     0.0361 H       
  17 H17            1.6847    -1.2717    -0.0206 H       
  18 H18            3.9051     1.6976     0.5637 H       
  19 H19            3.9789    -0.0730     0.3976 H       
  20 H20            3.6935     0.2487    -1.9944 H       
  21 H21            5.8560     1.9146    -0.8824 H       
  22 H22            5.9298     0.1439    -1.0485 H       
  23 H23            5.8314     1.1706    -2.4992 H       
  24 Cl24          10.9298     8.1526     5.5637 Cl      
  25 H25           10.9298     9.5226     5.5637 H       
  26 Cl26          15.9298    14.5226    10.5637 Cl      
  27 H27           15.9298    15.8926    10.5637 H       
@<TRIPOS>BOND
   1    1    2 ar
   2    1    7 1
   3    1    6 ar
   4    2    3 ar
   5    2    9 1
   6    3    4 ar
   7    3   15 1
   8    4    5 ar
   9    4   14 1
  10    5    6 ar
  11    5   13 1
  12    6   16 1
  13    7    8 2
  14    8    9 1
  15    8   10 1
  16    9   17 1
  17   10   11 1
  18   10   18 1
  19   10   19 1
  20   11   12 1
  21   11   20 1
  22   12   21 1
  23   12   22 1
  24   12   23 1
  25   24   25 1
  26   26   27 1

#	End of record

