#	Name: ASD01151020
#	Creating user name:	WinNT
#	Creation time:	15. 06. 2019 19:05

#	Modifying user name:	WinNT
#	Modification time:	15. 06. 2019 19:05

#	Program:	/corina/corina34_cracker 3.40 0067  02.08.2006

@<TRIPOS>MOLECULE
ASD01151020
  63   66    0    0    0
SMALL
NO_CHARGES


@<TRIPOS>ATOM
   1 C1            -0.0015     1.4201     0.1745 C.2     
   2 C2             0.0693     0.0374     0.0867 C.2     
   3 N3            -1.1726    -0.4139    -0.1226 N.2     
   4 C4            -2.0080     0.5907    -0.1708 C.2     
   5 N5            -1.3408     1.7438     0.0114 N.pl3   
   6 C6            -3.4941     0.4736    -0.3913 C.3     
   7 C7            -1.9184     3.0900     0.0264 C.3     
   8 C8             1.0724     2.3170     0.3920 C.2     
   9 O9             0.8405     3.6452     0.4533 O.3     
  10 O10            2.2045     1.8902     0.5238 O.2     
  11 C11            1.9704     4.4914     0.6752 C.3     
  12 C12            2.9799     4.3022    -0.4588 C.3     
  13 N13            1.2200    -0.7373     0.1963 N.am    
  14 C14           -4.1880     0.2006     0.9447 C.3     
  15 C15           -2.0320     3.6036    -1.3859 C.ar    
  16 C16           -3.2270     3.4847    -2.0705 C.ar    
  17 C17           -3.3312     3.9557    -3.3659 C.ar    
  18 C18           -2.2406     4.5461    -3.9766 C.ar    
  19 C19           -1.0459     4.6659    -3.2916 C.ar    
  20 C20           -0.9429     4.1987    -1.9946 C.ar    
  21 C21            1.5143     5.9514     0.7138 C.3     
  22 C22            2.6266     4.1268     2.0084 C.3     
  23 C23            1.1419    -2.0786     0.0902 C.2     
  24 C24            2.3881    -2.9176     0.2089 C.3     
  25 O25            0.0688    -2.6103    -0.1007 O.2     
  26 O26            2.0400    -4.3061     0.1799 O.3     
  27 C27            3.0574    -5.1878    -0.0204 C.ar    
  28 C28            4.2773    -4.7618    -0.5321 C.ar    
  29 O29            4.4846    -3.4523    -0.8397 O.3     
  30 C30            3.3197    -2.6312    -0.9766 C.3     
  31 C31            2.8696    -6.5263     0.2909 C.ar    
  32 C32            3.8925    -7.4338     0.0911 C.ar    
  33 C33            5.1055    -7.0103    -0.4195 C.ar    
  34 C34            5.2993    -5.6781    -0.7316 C.ar    
  35 H35           -3.8731     1.4040    -0.8142 H       
  36 H36           -3.6957    -0.3471    -1.0798 H       
  37 H37           -2.9083     3.0556     0.4812 H       
  38 H38           -1.2760     3.7546     0.6041 H       
  39 H39            2.5124     4.5620    -1.4085 H       
  40 H40            3.8417     4.9478    -0.2894 H       
  41 H41            3.3048     3.2622    -0.4862 H       
  42 H42            2.0783    -0.3120     0.3490 H       
  43 H43           -3.9156     0.9760     1.6607 H       
  44 H44           -5.2684     0.2029     0.8001 H       
  45 H45           -3.8745    -0.7716     1.3250 H       
  46 H46           -4.0791     3.0234    -1.5934 H       
  47 H47           -4.2647     3.8622    -3.9011 H       
  48 H48           -2.3218     4.9135    -4.9889 H       
  49 H49           -0.1937     5.1268    -3.7688 H       
  50 H50           -0.0095     4.2923    -1.4595 H       
  51 H51            0.7951     6.0862     1.5216 H       
  52 H52            2.3762     6.5969     0.8831 H       
  53 H53            1.0468     6.2112    -0.2360 H       
  54 H54            2.9515     3.0867     1.9809 H       
  55 H55            3.4885     4.7723     2.1777 H       
  56 H56            1.9074     4.2616     2.8163 H       
  57 H57            2.8994    -2.6863     1.1433 H       
  58 H58            2.8101    -2.8689    -1.9104 H       
  59 H59            3.6083    -1.5801    -0.9719 H       
  60 H60            1.9230    -6.8597     0.6901 H       
  61 H61            3.7443    -8.4754     0.3347 H       
  62 H62            5.9030    -7.7219    -0.5747 H       
  63 H63            6.2477    -5.3499    -1.1306 H       
@<TRIPOS>BOND
   1    1    2 2
   2    1    8 1
   3    1    5 1
   4    2    3 1
   5    2   13 1
   6    3    4 2
   7    4    5 1
   8    4    6 1
   9    5    7 1
  10    6   14 1
  11    6   35 1
  12    6   36 1
  13    7   15 1
  14    7   37 1
  15    7   38 1
  16    8    9 1
  17    8   10 2
  18    9   11 1
  19   11   12 1
  20   11   21 1
  21   11   22 1
  22   12   39 1
  23   12   40 1
  24   12   41 1
  25   13   23 am
  26   13   42 1
  27   14   43 1
  28   14   44 1
  29   14   45 1
  30   15   16 ar
  31   15   20 ar
  32   16   17 ar
  33   16   46 1
  34   17   18 ar
  35   17   47 1
  36   18   19 ar
  37   18   48 1
  38   19   20 ar
  39   19   49 1
  40   20   50 1
  41   21   51 1
  42   21   52 1
  43   21   53 1
  44   22   54 1
  45   22   55 1
  46   22   56 1
  47   23   24 1
  48   23   25 2
  49   24   26 1
  50   24   30 1
  51   24   57 1
  52   26   27 1
  53   27   28 ar
  54   27   31 ar
  55   28   29 1
  56   28   34 ar
  57   29   30 1
  58   30   58 1
  59   30   59 1
  60   31   32 ar
  61   31   60 1
  62   32   33 ar
  63   32   61 1
  64   33   34 ar
  65   33   62 1
  66   34   63 1

#	End of record

