#	Name: ASD02560479
#	Creating user name:	WinNT
#	Creation time:	15. 06. 2019 20:25

#	Modifying user name:	WinNT
#	Modification time:	15. 06. 2019 20:25

#	Program:	/corina/corina34_cracker 3.40 0067  02.08.2006

@<TRIPOS>MOLECULE
ASD02560479
  43   46    0    0    0
SMALL
NO_CHARGES


@<TRIPOS>ATOM
   1 C1             0.1328     2.0696     0.2477 C.2     
   2 C2            -0.0289     0.6728     0.2210 C.2     
   3 C3             1.0481    -0.1372     0.1895 C.2     
   4 N4             2.3134     0.3858     0.1830 N.pl3   
   5 C5             2.5029     1.7487     0.2086 C.2     
   6 C6             1.3821     2.6054     0.2416 C.2     
   7 C7             3.5502    -0.1965     0.1540 C.2     
   8 C8             4.4738     0.8275     0.1626 C.2     
   9 N9             3.8029     1.9935     0.1958 N.2     
  10 C10            5.9471     0.6713     0.1387 C.ar    
  11 N11            3.8251    -1.5643     0.1220 N.3     
  12 C12            2.5996    -2.3521     0.3099 C.3     
  13 C13            1.8973    -2.5320    -1.0374 C.3     
  14 C14            6.5676    -0.2453     0.9863 C.ar    
  15 C15            6.7193     1.4374    -0.7369 C.ar    
  16 C16            2.9582    -3.7238     0.8852 C.3     
  17 C17            1.6817    -4.5443     1.0809 C.3     
  18 C18            0.9795    -4.7241    -0.2665 C.3     
  19 C19            0.6209    -3.3525    -0.8417 C.3     
  20 C20            7.9403    -0.3874     0.9600 C.ar    
  21 C21            8.7022     0.3773     0.0953 C.ar    
  22 C22            8.0937     1.2859    -0.7539 C.ar    
  23 F23            6.1252     2.3239    -1.5655 F       
  24 Cl24           9.0579     2.2411    -1.8363 Cl      
  25 H25           -0.7330     2.7148     0.2683 H       
  26 H26           -1.0214     0.2469     0.2261 H       
  27 H27            0.9117    -1.2083     0.1696 H       
  28 H28            1.5157     3.6769     0.2623 H       
  29 H29            4.2911    -1.8195    -0.7358 H       
  30 H30            1.9351    -1.8314     0.9994 H       
  31 H31            1.6418    -1.5548    -1.4473 H       
  32 H32            2.5618    -3.0527    -1.7269 H       
  33 H33            5.9750    -0.8431     1.6630 H       
  34 H34            3.6227    -4.2445     0.1957 H       
  35 H35            3.4585    -3.5957     1.8451 H       
  36 H36            1.9372    -5.5215     1.4907 H       
  37 H37            1.0172    -4.0236     1.7704 H       
  38 H38            1.6440    -5.2448    -0.9559 H       
  39 H39            0.0701    -5.3087    -0.1270 H       
  40 H40           -0.0437    -2.8318    -0.1523 H       
  41 H41            0.1205    -3.4806    -1.8016 H       
  42 H42            8.4208    -1.0975     1.6167 H       
  43 H43            9.7759     0.2621     0.0793 H       
@<TRIPOS>BOND
   1    1    2 1
   2    1    6 2
   3    1   25 1
   4    2    3 2
   5    2   26 1
   6    3    4 1
   7    3   27 1
   8    4    5 1
   9    4    7 1
  10    5    6 1
  11    5    9 2
  12    6   28 1
  13    7    8 2
  14    7   11 1
  15    8    9 1
  16    8   10 1
  17   10   14 ar
  18   10   15 ar
  19   11   12 1
  20   11   29 1
  21   12   16 1
  22   12   13 1
  23   12   30 1
  24   13   19 1
  25   13   31 1
  26   13   32 1
  27   14   20 ar
  28   14   33 1
  29   15   23 1
  30   15   22 ar
  31   16   17 1
  32   16   34 1
  33   16   35 1
  34   17   18 1
  35   17   36 1
  36   17   37 1
  37   18   19 1
  38   18   38 1
  39   18   39 1
  40   19   40 1
  41   19   41 1
  42   20   21 ar
  43   20   42 1
  44   21   22 ar
  45   21   43 1
  46   22   24 1

#	End of record

