#	Name: ASD01910897
#	Creating user name:	WinNT
#	Creation time:	15. 06. 2019 19:56

#	Modifying user name:	WinNT
#	Modification time:	15. 06. 2019 19:56

#	Program:	/corina/corina34_cracker 3.40 0067  02.08.2006

@<TRIPOS>MOLECULE
ASD01910897
  55   58    0    0    0
SMALL
NO_CHARGES


@<TRIPOS>ATOM
   1 C1            -0.2349     1.4972     0.2739 C.ar    
   2 N2            -0.1384     0.1055     0.2038 N.3     
   3 C3            -1.4695    -0.5115     0.1319 C.3     
   4 C4            -1.3189    -2.0147    -0.1253 C.3     
   5 N5            -0.4273    -2.5771     0.9004 N.am    
   6 C6             0.8719    -1.9257     1.1261 C.3     
   7 C7             0.6350    -0.4261     1.3340 C.3     
   8 C8            -0.7914    -3.6603     1.6149 C.2     
   9 C9             0.1673    -4.2845     2.5518 C.ar    
  10 C10           -0.2731    -4.7634     3.7877 C.ar    
  11 C11            0.6203    -5.3468     4.6647 C.ar    
  12 C12            1.9538    -5.4610     4.3275 C.ar    
  13 C13            2.4091    -4.9855     3.0937 C.ar    
  14 C14            1.5105    -4.4010     2.2013 C.ar    
  15 C15            3.7929    -5.1039     2.7449 C.1     
  16 O16           -1.9078    -4.1243     1.4890 O.2     
  17 C17            4.9274    -5.2011     2.4590 C.1     
  18 C18            6.3112    -5.3196     2.1102 C.ar    
  19 C19            6.7770    -4.8480     0.8804 C.ar    
  20 N20            8.0496    -4.9573     0.5604 N.ar    
  21 C21            8.9283    -5.5091     1.3752 C.ar    
  22 C22            8.5470    -6.0010     2.6110 C.ar    
  23 C23            7.2228    -5.9054     2.9990 C.ar    
  24 C24            0.9156     2.2718     0.3487 C.ar    
  25 C25            0.8165     3.6477     0.4173 C.ar    
  26 C26           -0.4260     4.2541     0.4116 C.ar    
  27 C27           -1.5736     3.4858     0.3377 C.ar    
  28 C28           -1.4817     2.1100     0.2630 C.ar    
  29 C29           -0.5301     5.7557     0.4867 C.3     
  30 C30            2.0642     4.4890     0.4990 C.3     
  31 H31           -1.9946    -0.3545     1.0741 H       
  32 H32           -2.0370    -0.0585    -0.6811 H       
  33 H33           -2.2951    -2.4960    -0.0657 H       
  34 H34           -0.8878    -2.1757    -1.1134 H       
  35 H35            1.3442    -2.3482     2.0130 H       
  36 H36            1.5136    -2.0782     0.2583 H       
  37 H37            1.5939     0.0889     1.3928 H       
  38 H38            0.0806    -0.2703     2.2594 H       
  39 H39           -1.3151    -4.6771     4.0584 H       
  40 H40            0.2739    -5.7150     5.6190 H       
  41 H41            2.6470    -5.9182     5.0180 H       
  42 H42            1.8562    -4.0319     1.2470 H       
  43 H43            6.0876    -4.3903     0.1864 H       
  44 H44            9.9626    -5.5783     1.0724 H       
  45 H45            9.2768    -6.4509     3.2679 H       
  46 H46            6.8980    -6.2812     3.9581 H       
  47 H47            1.8864     1.7987     0.3535 H       
  48 H48           -2.5427     3.9626     0.3338 H       
  49 H49           -2.3782     1.5106     0.2054 H       
  50 H50           -0.5245     6.1711    -0.5210 H       
  51 H51           -1.4581     6.0309     0.9879 H       
  52 H52            0.3168     6.1510     1.0474 H       
  53 H53            2.3962     4.7452    -0.5071 H       
  54 H54            1.8510     5.4020     1.0549 H       
  55 H55            2.8479     3.9281     1.0084 H       
@<TRIPOS>BOND
   1    1    2 1
   2    1   24 ar
   3    1   28 ar
   4    2    3 1
   5    2    7 1
   6    3    4 1
   7    3   31 1
   8    3   32 1
   9    4    5 1
  10    4   33 1
  11    4   34 1
  12    5    6 1
  13    5    8 am
  14    6    7 1
  15    6   35 1
  16    6   36 1
  17    7   37 1
  18    7   38 1
  19    8    9 1
  20    8   16 2
  21    9   10 ar
  22    9   14 ar
  23   10   11 ar
  24   10   39 1
  25   11   12 ar
  26   11   40 1
  27   12   13 ar
  28   12   41 1
  29   13   14 ar
  30   13   15 1
  31   14   42 1
  32   15   17 3
  33   17   18 1
  34   18   19 ar
  35   18   23 ar
  36   19   20 ar
  37   19   43 1
  38   20   21 ar
  39   21   22 ar
  40   21   44 1
  41   22   23 ar
  42   22   45 1
  43   23   46 1
  44   24   25 ar
  45   24   47 1
  46   25   26 ar
  47   25   30 1
  48   26   27 ar
  49   26   29 1
  50   27   28 ar
  51   27   48 1
  52   28   49 1
  53   29   50 1
  54   29   51 1
  55   29   52 1
  56   30   53 1
  57   30   54 1
  58   30   55 1

#	End of record

