#	Name: ASD08151190
#	Creating user name:	WinNT
#	Creation time:	15. 06. 2019 21:17

#	Modifying user name:	WinNT
#	Modification time:	15. 06. 2019 21:17

#	Program:	/corina/corina34_cracker 3.40 0067  02.08.2006

@<TRIPOS>MOLECULE
ASD08151190
  77   80    0    0    0
SMALL
NO_CHARGES


@<TRIPOS>ATOM
   1 C1             1.6084     2.5903    -1.7690 C.ar    
   2 C2             2.3484     2.4227    -2.9318 C.ar    
   3 C3             3.5629     1.7740    -2.9078 C.ar    
   4 C4             4.0583     1.2783    -1.7004 C.ar    
   5 C5             3.3028     1.4510    -0.5190 C.ar    
   6 C6             2.0761     2.1099    -0.5652 C.ar    
   7 C7             1.2672     2.2968     0.6925 C.3     
   8 N8             5.2494     0.6328    -1.6316 N.2     
   9 C9             5.7097     0.1715    -0.5086 C.2     
  10 N10            5.0508     0.2924     0.6756 N.am    
  11 C11            3.8517     0.9172     0.7359 C.2     
  12 O12            3.2513     1.0329     1.7885 O.2     
  13 C13            7.0413    -0.5342    -0.5174 C.3     
  14 C14            7.4421    -0.8490    -1.9600 C.3     
  15 C15            5.6183    -0.2348     1.8426 C.ar    
  16 C16            6.0659     0.6162     2.8444 C.ar    
  17 C17            6.6245     0.0932     3.9942 C.ar    
  18 C18            6.7387    -1.2762     4.1481 C.ar    
  19 C19            6.2939    -2.1263     3.1522 C.ar    
  20 C20            5.7291    -1.6097     2.0026 C.ar    
  21 C21            8.7306    -1.6740    -1.9629 C.3     
  22 C22            9.1315    -1.9888    -3.4055 C.3     
  23 N23           10.3652    -2.7788    -3.4082 N.am    
  24 C24           10.9096    -3.1743    -4.5760 C.2     
  25 O25           10.3770    -2.8758    -5.6266 O.2     
  26 O26           12.0434    -3.9003    -4.5785 O.3     
  27 C27           12.5729    -4.2915    -5.8727 C.3     
  28 C28           13.8350    -5.0916    -5.6781 C.ar    
  29 C29           13.7688    -6.4662    -5.5482 C.ar    
  30 C30           14.9265    -7.2002    -5.3697 C.ar    
  31 C31           16.1505    -6.5595    -5.3216 C.ar    
  32 C32           16.2168    -5.1850    -5.4524 C.ar    
  33 C33           15.0595    -4.4515    -5.6352 C.ar    
  34 N34            8.0552     0.3286     0.0939 N.am    
  35 O35            9.2666     2.3226     0.1022 O.3     
  36 C36            9.3616     3.6887    -0.3806 C.3     
  37 C37            8.0517     4.4243    -0.0908 C.3     
  38 C38           10.5146     4.4014     0.3291 C.3     
  39 C39            9.6187     3.6799    -1.8888 C.3     
  40 C40            8.2662     1.5683    -0.3908 C.2     
  41 O41            7.5537     2.0053    -1.2727 O.2     
  42 H42            0.6600     3.1056    -1.8077 H       
  43 H43            1.9667     2.8056    -3.8667 H       
  44 H44            4.1293     1.6490    -3.8189 H       
  45 H45            1.6347     3.1680     1.2348 H       
  46 H46            0.2195     2.4465     0.4318 H       
  47 H47            1.3623     1.4111     1.3207 H       
  48 H48            6.9644    -1.4622     0.0491 H       
  49 H49            6.6463    -1.4164    -2.4427 H       
  50 H50            7.6055     0.0818    -2.5031 H       
  51 H51            5.9776     1.6859     2.7245 H       
  52 H52            6.9728     0.7546     4.7737 H       
  53 H53            7.1766    -1.6827     5.0478 H       
  54 H54            6.3845    -3.1955     3.2754 H       
  55 H55            5.3816    -2.2742     1.2253 H       
  56 H56            9.5264    -1.1066    -1.4802 H       
  57 H57            8.5673    -2.6048    -1.4198 H       
  58 H58            8.3357    -2.5562    -3.8881 H       
  59 H59            9.2948    -1.0580    -3.9486 H       
  60 H60           10.7904    -3.0171    -2.5695 H       
  61 H61           11.8356    -4.8980    -6.3986 H       
  62 H62           12.7947    -3.3998    -6.4591 H       
  63 H63           12.8125    -6.9668    -5.5859 H       
  64 H64           14.8747    -8.2741    -5.2675 H       
  65 H65           17.0550    -7.1329    -5.1814 H       
  66 H66           17.1730    -4.6844    -5.4144 H       
  67 H67           15.1112    -3.3776    -5.7374 H       
  68 H68            8.5747     0.0076     0.8476 H       
  69 H69            7.9062     4.4963     0.9870 H       
  70 H70            8.0949     5.4257    -0.5193 H       
  71 H71            7.2209     3.8751    -0.5338 H       
  72 H72           11.4326     3.8292     0.1956 H       
  73 H73           10.6422     5.3973    -0.0951 H       
  74 H74           10.2902     4.4854     1.3925 H       
  75 H75            8.7973     3.1721    -2.3944 H       
  76 H76            9.6900     4.7054    -2.2513 H       
  77 H77           10.5519     3.1558    -2.0953 H       
@<TRIPOS>BOND
   1    1    2 ar
   2    1    6 ar
   3    1   42 1
   4    2    3 ar
   5    2   43 1
   6    3    4 ar
   7    3   44 1
   8    4    5 ar
   9    4    8 1
  10    5    6 ar
  11    5   11 1
  12    6    7 1
  13    7   45 1
  14    7   46 1
  15    7   47 1
  16    8    9 2
  17    9   10 1
  18    9   13 1
  19   10   11 am
  20   10   15 1
  21   11   12 2
  22   13   14 1
  23   13   34 1
  24   13   48 1
  25   14   21 1
  26   14   49 1
  27   14   50 1
  28   15   16 ar
  29   15   20 ar
  30   16   17 ar
  31   16   51 1
  32   17   18 ar
  33   17   52 1
  34   18   19 ar
  35   18   53 1
  36   19   20 ar
  37   19   54 1
  38   20   55 1
  39   21   22 1
  40   21   56 1
  41   21   57 1
  42   22   23 1
  43   22   58 1
  44   22   59 1
  45   23   24 am
  46   23   60 1
  47   24   25 2
  48   24   26 1
  49   26   27 1
  50   27   28 1
  51   27   61 1
  52   27   62 1
  53   28   29 ar
  54   28   33 ar
  55   29   30 ar
  56   29   63 1
  57   30   31 ar
  58   30   64 1
  59   31   32 ar
  60   31   65 1
  61   32   33 ar
  62   32   66 1
  63   33   67 1
  64   34   40 am
  65   34   68 1
  66   35   36 1
  67   35   40 1
  68   36   37 1
  69   36   38 1
  70   36   39 1
  71   37   69 1
  72   37   70 1
  73   37   71 1
  74   38   72 1
  75   38   73 1
  76   38   74 1
  77   39   75 1
  78   39   76 1
  79   39   77 1
  80   40   41 2

#	End of record

