#	Name: ASD01810572
#	Creating user name:	WinNT
#	Creation time:	15. 06. 2019 19:24

#	Modifying user name:	WinNT
#	Modification time:	15. 06. 2019 19:24

#	Program:	/corina/corina34_cracker 3.40 0067  02.08.2006

@<TRIPOS>MOLECULE
ASD01810572
  63   68    0    0    0
SMALL
NO_CHARGES


@<TRIPOS>ATOM
   1 C1            -0.0166     1.3753     0.0096 C.ar    
   2 C2             0.0021    -0.0041     0.0020 C.ar    
   3 C3             1.2091    -0.6848    -0.0131 C.ar    
   4 C4             2.4041     0.0035    -0.0208 C.ar    
   5 C5             2.4071     1.3943    -0.0134 C.ar    
   6 C6             1.1822     2.0811     0.0019 C.ar    
   7 N7             3.6032     2.0911    -0.0216 N.pl3   
   8 C8             3.6682     3.4322    -0.0147 C.2     
   9 C9             2.5370     4.2098     0.0011 C.2     
  10 C10            1.2082     3.5566     0.0096 C.2     
  11 C11            2.2570     5.6421     0.0120 C.2     
  12 N12            0.9118     5.7622     0.0259 N.am    
  13 N13            0.3123     4.5002     0.0239 N.2     
  14 C14            0.1851     7.0341     0.0405 C.3     
  15 C15           -0.0780     7.4787    -1.3752 C.ar    
  16 O16            3.0739     6.5488     0.0097 O.2     
  17 C17            4.8552     1.3305    -0.0379 C.3     
  18 C18            5.2704     1.0772    -1.4643 C.ar    
  19 C19            0.7283     8.4371    -1.9597 C.ar    
  20 C20            0.4869     8.8450    -3.2584 C.ar    
  21 C21           -0.5604     8.2940    -3.9725 C.ar    
  22 C22           -1.3664     7.3347    -3.3881 C.ar    
  23 C23           -1.1224     6.9238    -2.0912 C.ar    
  24 C24           -2.0009     5.8780    -1.4542 C.3     
  25 C25           -0.8242     8.7394    -5.3878 C.3     
  26 C26            5.9060     2.0744    -2.1858 C.ar    
  27 C27            6.2885     1.8458    -3.4947 C.ar    
  28 C28            6.0339     0.6110    -4.0858 C.ar    
  29 C29            5.3947    -0.3879    -3.3544 C.ar    
  30 C30            5.0209    -0.1520    -2.0469 C.ar    
  31 C31            6.4419     0.3597    -5.4911 C.2     
  32 F32            6.1519     3.2716    -1.6101 F       
  33 C33            7.0921     1.2720    -6.3448 C.2     
  34 N34            7.2825     0.6851    -7.4966 N.2     
  35 N35            6.7657    -0.6142    -7.4247 N.pl3   
  36 C36            6.2603    -0.7988    -6.1885 C.2     
  37 C37            6.7778    -1.6044    -8.5044 C.3     
  38 H38           -0.9578     1.9050     0.0170 H       
  39 H39           -0.9267    -0.5551     0.0083 H       
  40 H40            1.2140    -1.7648    -0.0186 H       
  41 H41            3.3385    -0.5379    -0.0323 H       
  42 H42            4.6359     3.9117    -0.0215 H       
  43 H43           -0.7628     6.9050     0.5629 H       
  44 H44            0.7826     7.7881     0.5530 H       
  45 H45            5.6328     1.8998     0.4712 H       
  46 H46            4.7087     0.3785     0.4723 H       
  47 H47            1.5467     8.8677    -1.4017 H       
  48 H48            1.1165     9.5944    -3.7149 H       
  49 H49           -2.1850     6.9044    -3.9459 H       
  50 H50           -1.5892     4.8883    -1.6517 H       
  51 H51           -2.0435     6.0457    -0.3781 H       
  52 H52           -3.0054     5.9437    -1.8723 H       
  53 H53           -0.2623     8.1095    -6.0775 H       
  54 H54           -1.8892     8.6538    -5.6031 H       
  55 H55           -0.5117     9.7768    -5.5065 H       
  56 H56            6.7834     2.6234    -4.0576 H       
  57 H57            5.1950    -1.3470    -3.8090 H       
  58 H58            4.5258    -0.9264    -1.4799 H       
  59 H59            7.3823     2.2810    -6.0916 H       
  60 H60            5.7900    -1.6983    -5.8195 H       
  61 H61            7.6922    -2.1948    -8.4456 H       
  62 H62            5.9140    -2.2615    -8.4044 H       
  63 H63            6.7363    -1.0935    -9.4663 H       
@<TRIPOS>BOND
   1    1    2 ar
   2    1    6 ar
   3    1   38 1
   4    2    3 ar
   5    2   39 1
   6    3    4 ar
   7    3   40 1
   8    4    5 ar
   9    4   41 1
  10    5    6 ar
  11    5    7 1
  12    6   10 1
  13    7    8 1
  14    7   17 1
  15    8    9 2
  16    8   42 1
  17    9   10 1
  18    9   11 1
  19   10   13 2
  20   11   12 am
  21   11   16 2
  22   12   13 1
  23   12   14 1
  24   14   15 1
  25   14   43 1
  26   14   44 1
  27   15   19 ar
  28   15   23 ar
  29   17   18 1
  30   17   45 1
  31   17   46 1
  32   18   26 ar
  33   18   30 ar
  34   19   20 ar
  35   19   47 1
  36   20   21 ar
  37   20   48 1
  38   21   22 ar
  39   21   25 1
  40   22   23 ar
  41   22   49 1
  42   23   24 1
  43   24   50 1
  44   24   51 1
  45   24   52 1
  46   25   53 1
  47   25   54 1
  48   25   55 1
  49   26   27 ar
  50   26   32 1
  51   27   28 ar
  52   27   56 1
  53   28   29 ar
  54   28   31 1
  55   29   30 ar
  56   29   57 1
  57   30   58 1
  58   31   33 1
  59   31   36 2
  60   33   34 2
  61   33   59 1
  62   34   35 1
  63   35   36 1
  64   35   37 1
  65   36   60 1
  66   37   61 1
  67   37   62 1
  68   37   63 1

#	End of record

