#	Name: ASD01810556
#	Creating user name:	WinNT
#	Creation time:	15. 06. 2019 19:24

#	Modifying user name:	WinNT
#	Modification time:	15. 06. 2019 19:24

#	Program:	/corina/corina34_cracker 3.40 0067  02.08.2006

@<TRIPOS>MOLECULE
ASD01810556
  52   56    0    0    0
SMALL
NO_CHARGES


@<TRIPOS>ATOM
   1 C1             0.0726     1.2435     0.0251 C.ar    
   2 C2             0.2380    -0.1273     0.0338 C.ar    
   3 C3            -0.8743    -0.9595     0.0562 C.ar    
   4 C4            -2.1494    -0.4091     0.0696 C.ar    
   5 C5            -2.3077     0.9630     0.0607 C.ar    
   6 C6            -1.1985     1.7884     0.0438 C.ar    
   7 C7             1.2785     2.1469     0.0014 C.3     
   8 N8             1.7466     2.3005    -1.3783 N.pl3   
   9 C9             1.2582     3.3496    -2.1283 C.ar    
  10 C10            2.6347     1.4194    -1.8557 C.2     
  11 C11            3.1253     1.4944    -3.1437 C.2     
  12 C12            2.6565     2.5794    -4.0214 C.2     
  13 C13            1.6835     3.5305    -3.4554 C.ar    
  14 C14            1.1834     4.5909    -4.2153 C.ar    
  15 C15            0.2727     5.4625    -3.6526 C.ar    
  16 C16           -0.1438     5.2884    -2.3418 C.ar    
  17 C17            0.3387     4.2427    -1.5813 C.ar    
  18 F18            1.5889     4.7625    -5.4926 F       
  19 O19            3.0597     2.6891    -5.1662 O.2     
  20 C20            4.0998     0.5081    -3.6305 C.2     
  21 O21            4.4804    -0.3835    -2.8970 O.2     
  22 O22            4.5717     0.5919    -4.8905 O.3     
  23 F23           -0.0773     4.0872    -0.3054 F       
  24 N24           -0.7103    -2.3491     0.0646 N.pl3   
  25 N25            0.2282    -2.9719    -0.5514 N.2     
  26 C26           -1.5293    -3.2225     0.7380 C.ar    
  27 C27           -1.0179    -4.5101     0.4866 C.ar    
  28 C28            0.1504    -4.2772    -0.3763 C.2     
  29 C29           -2.6558    -3.0837     1.5415 C.ar    
  30 C30           -3.2530    -4.2028     2.0778 C.ar    
  31 C31           -2.7426    -5.4695     1.8251 C.ar    
  32 C32           -1.6367    -5.6278     1.0366 C.ar    
  33 C33            1.0485    -5.2930    -0.9316 C.2     
  34 O34            0.8601    -6.4670    -0.6897 O.2     
  35 C35            2.2063    -4.8796    -1.8032 C.3     
  36 H36            1.2308    -0.5522     0.0230 H       
  37 H37           -3.0161    -1.0532     0.0866 H       
  38 H38           -3.2990     1.3917     0.0711 H       
  39 H39           -1.3251     2.8609     0.0369 H       
  40 H40            1.0091     3.1232     0.4044 H       
  41 H41            2.0719     1.7099     0.6077 H       
  42 H42            2.9788     0.6238    -1.2115 H       
  43 H43           -0.1168     6.2837    -4.2360 H       
  44 H44           -0.8562     5.9770    -1.9119 H       
  45 H45            5.2110    -0.0795    -5.1655 H       
  46 H46           -3.0602    -2.1030     1.7443 H       
  47 H47           -4.1276    -4.0942     2.7020 H       
  48 H48           -3.2234    -6.3362     2.2541 H       
  49 H49           -1.2445    -6.6154     0.8437 H       
  50 H50            2.8685    -4.2221    -1.2399 H       
  51 H51            2.7570    -5.7653    -2.1199 H       
  52 H52            1.8308    -4.3524    -2.6802 H       
@<TRIPOS>BOND
   1    1    2 ar
   2    1    7 1
   3    1    6 ar
   4    2    3 ar
   5    2   36 1
   6    3    4 ar
   7    3   24 1
   8    4    5 ar
   9    4   37 1
  10    5    6 ar
  11    5   38 1
  12    6   39 1
  13    7    8 1
  14    7   40 1
  15    7   41 1
  16    8    9 1
  17    8   10 1
  18    9   13 ar
  19    9   17 ar
  20   10   11 2
  21   10   42 1
  22   11   12 1
  23   11   20 1
  24   12   13 1
  25   12   19 2
  26   13   14 ar
  27   14   15 ar
  28   14   18 1
  29   15   16 ar
  30   15   43 1
  31   16   17 ar
  32   16   44 1
  33   17   23 1
  34   20   21 2
  35   20   22 1
  36   22   45 1
  37   24   25 1
  38   24   26 1
  39   25   28 2
  40   26   27 ar
  41   26   29 ar
  42   27   28 1
  43   27   32 ar
  44   28   33 1
  45   29   30 ar
  46   29   46 1
  47   30   31 ar
  48   30   47 1
  49   31   32 ar
  50   31   48 1
  51   32   49 1
  52   33   34 2
  53   33   35 1
  54   35   50 1
  55   35   51 1
  56   35   52 1

#	End of record

