#	Name: ASD01884099
#	Creating user name:	WinNT
#	Creation time:	15. 06. 2019 19:47

#	Modifying user name:	WinNT
#	Modification time:	15. 06. 2019 19:47

#	Program:	/corina/corina34_cracker 3.40 0067  02.08.2006

@<TRIPOS>MOLECULE
ASD01884099
  56   59    0    0    0
SMALL
NO_CHARGES


@<TRIPOS>ATOM
   1 C1            -0.0168     1.3884     0.0097 C.2     
   2 C2             0.0021    -0.0041     0.0020 C.2     
   3 C3            -1.2095    -0.6965     0.0104 C.2     
   4 C4            -2.3831    -0.0157     0.0252 C.2     
   5 N5            -2.4093     1.3392     0.0327 N.am    
   6 C6            -1.2693     2.0558     0.0312 C.2     
   7 O7            -1.3129     3.2741     0.0380 O.2     
   8 C8            -3.6983     2.0352     0.0483 C.3     
   9 C9            -4.1338     2.2698     1.4962 C.3     
  10 C10            1.2059     2.1337     0.0020 C.1     
  11 N11            2.1759     2.7249    -0.0041 N.1     
  12 C12            1.3105    -0.7515    -0.0155 C.3     
  13 N13            1.6901    -1.1066     1.3585 N.3     
  14 C14            2.8290    -2.0352     1.3670 C.3     
  15 C15            3.2431    -2.3172     2.8131 C.3     
  16 N16            2.1012    -2.8822     3.5456 N.3     
  17 C17            0.9623    -1.9536     3.5371 C.3     
  18 C18            0.5482    -1.6716     2.0910 C.3     
  19 C19            2.4808    -3.2373     4.9196 C.3     
  20 C20           -5.4044     3.0902     1.7276 C.3     
  21 C21           -5.4146     1.5794     1.9693 C.3     
  22 C22            1.2440    -3.5790     5.7100 C.ar    
  23 C23            0.7855    -4.8820     5.7460 C.ar    
  24 C24           -0.3510    -5.1957     6.4724 C.ar    
  25 C25           -1.0265    -4.2032     7.1617 C.ar    
  26 C26           -0.5660    -2.9005     7.1242 C.ar    
  27 C27            0.5717    -2.5896     6.4034 C.ar    
  28 F28           -0.8004    -6.4692     6.5080 F       
  29 C29           -1.3011    -1.8198     7.8744 C.3     
  30 F30           -2.4072    -2.3749     8.5268 F       
  31 F31           -0.4448    -1.2420     8.8179 F       
  32 F32           -1.7337    -0.8394     6.9751 F       
  33 H33           -1.2130    -1.7765     0.0046 H       
  34 H34           -3.3137    -0.5638     0.0308 H       
  35 H35           -3.5999     2.9937    -0.4613 H       
  36 H36           -4.4456     1.4275    -0.4619 H       
  37 H37           -3.3249     2.3801     2.2184 H       
  38 H38            1.2023    -1.6595    -0.6087 H       
  39 H39            2.0835    -0.1207    -0.4544 H       
  40 H40            2.5411    -2.9683     0.8826 H       
  41 H41            3.6659    -1.5892     0.8295 H       
  42 H42            4.0692    -3.0283     2.8228 H       
  43 H43            3.5569    -1.3883     3.2893 H       
  44 H44            0.1254    -2.3996     4.0746 H       
  45 H45            1.2502    -1.0205     4.0215 H       
  46 H46           -0.2779    -0.9605     2.0813 H       
  47 H47            0.2344    -2.6005     1.6148 H       
  48 H48            3.1494    -4.0979     4.9010 H       
  49 H49            2.9883    -2.3929     5.3861 H       
  50 H50           -5.4315     3.7400     2.6023 H       
  51 H51           -5.9300     3.4628     0.8484 H       
  52 H52           -5.9470     0.9581     1.2491 H       
  53 H53           -5.4485     1.2353     3.0030 H       
  54 H54            1.3131    -5.6554     5.2076 H       
  55 H55           -1.9132    -4.4466     7.7282 H       
  56 H56            0.9310    -1.5715     6.3750 H       
@<TRIPOS>BOND
   1    1    2 2
   2    1   10 1
   3    1    6 1
   4    2    3 1
   5    2   12 1
   6    3    4 2
   7    3   33 1
   8    4    5 1
   9    4   34 1
  10    5    6 am
  11    5    8 1
  12    6    7 2
  13    8    9 1
  14    8   35 1
  15    8   36 1
  16    9   20 1
  17    9   21 1
  18    9   37 1
  19   10   11 3
  20   12   13 1
  21   12   38 1
  22   12   39 1
  23   13   14 1
  24   13   18 1
  25   14   15 1
  26   14   40 1
  27   14   41 1
  28   15   16 1
  29   15   42 1
  30   15   43 1
  31   16   17 1
  32   16   19 1
  33   17   18 1
  34   17   44 1
  35   17   45 1
  36   18   46 1
  37   18   47 1
  38   19   22 1
  39   19   48 1
  40   19   49 1
  41   20   21 1
  42   20   50 1
  43   20   51 1
  44   21   52 1
  45   21   53 1
  46   22   23 ar
  47   22   27 ar
  48   23   24 ar
  49   23   54 1
  50   24   25 ar
  51   24   28 1
  52   25   26 ar
  53   25   55 1
  54   26   29 1
  55   26   27 ar
  56   27   56 1
  57   29   30 1
  58   29   31 1
  59   29   32 1

#	End of record

