#	Name: ASD01811444
#	Creating user name:	WinNT
#	Creation time:	15. 06. 2019 19:26

#	Modifying user name:	WinNT
#	Modification time:	15. 06. 2019 19:26

#	Program:	/corina/corina34_cracker 3.40 0067  02.08.2006

@<TRIPOS>MOLECULE
ASD01811444
  55   57    0    0    0
SMALL
NO_CHARGES


@<TRIPOS>ATOM
   1 N1             0.2752     4.0715     1.0008 N.am    
   2 C2             0.5234     5.3277     1.4213 C.2     
   3 O3             1.6520     5.7764     1.3633 O.2     
   4 N4            -0.4794     6.0865     1.9060 N.am    
   5 C5            -0.2097     7.4520     2.3630 C.3     
   6 C6            -0.2591     8.4084     1.1698 C.3     
   7 C7            -1.2656     7.8638     3.3908 C.3     
   8 N8             2.4622     1.6015    -0.3617 N.pl3   
   9 N9             1.2035     2.0495     0.0578 N.2     
  10 C10            1.3186     3.2819     0.4964 C.2     
  11 C11            2.6547     3.6754     0.3768 C.2     
  12 C12            3.3560     2.6158    -0.1603 C.2     
  13 C13            2.7679     0.2788    -0.9123 C.3     
  14 C14            4.7966     2.5834    -0.4596 C.2     
  15 O15            5.3921     1.5229    -0.4686 O.2     
  16 N16            5.4560     3.7287    -0.7239 N.am    
  17 C17            6.9176     3.7337    -0.8731 C.3     
  18 C18            7.5067     4.7811     0.0769 C.3     
  19 C19            6.8432     6.1346    -0.1877 C.3     
  20 C20            5.3404     6.0293     0.0814 C.3     
  21 C21            4.7262     4.9950    -0.8742 C.3     
  22 C22            7.4445     7.1749     0.7219 C.ar    
  23 C23            8.0787     8.2791     0.1807 C.ar    
  24 C24            8.6313     9.2352     1.0074 C.ar    
  25 C25            8.5489     9.0869     2.3934 C.ar    
  26 C26            7.9070     7.9703     2.9328 C.ar    
  27 C27            7.3547     7.0243     2.0943 C.ar    
  28 C28            9.1207    10.0752     3.2577 C.1     
  29 N29            9.5742    10.8592     3.9434 N.1     
  30 H30           -0.6244     3.7121     1.0508 H       
  31 H31           -1.3798     5.7286     1.9523 H       
  32 H32            0.7786     7.4933     2.8210 H       
  33 H33           -1.2474     8.3671     0.7118 H       
  34 H34           -0.0584     9.4243     1.5098 H       
  35 H35            0.4931     8.1150     0.4376 H       
  36 H36           -1.2304     7.1825     4.2409 H       
  37 H37           -1.0649     8.8798     3.7308 H       
  38 H38           -2.2539     7.8226     2.9328 H       
  39 H39            3.0639     4.6356     0.6544 H       
  40 H40            2.7485     0.3252    -2.0012 H       
  41 H41            3.7578    -0.0334    -0.5796 H       
  42 H42            2.0248    -0.4395    -0.5660 H       
  43 H43            7.3138     2.7496    -0.6230 H       
  44 H44            7.1791     3.9847    -1.9011 H       
  45 H45            7.3224     4.4812     1.1085 H       
  46 H46            8.5804     4.8630    -0.0924 H       
  47 H47            7.0069     6.4223    -1.2263 H       
  48 H48            5.1765     5.7176     1.1129 H       
  49 H49            4.8721     6.9995    -0.0848 H       
  50 H50            4.8126     5.3468    -1.9023 H       
  51 H51            3.6760     4.8434    -0.6248 H       
  52 H52            8.1417     8.3926    -0.8915 H       
  53 H53            9.1267    10.0962     0.5837 H       
  54 H54            7.8398     7.8495     4.0039 H       
  55 H55            6.8543     6.1623     2.5101 H       
@<TRIPOS>BOND
   1    1    2 am
   2    1   10 1
   3    1   30 1
   4    2    3 2
   5    2    4 am
   6    4    5 1
   7    4   31 1
   8    5    6 1
   9    5    7 1
  10    5   32 1
  11    6   33 1
  12    6   34 1
  13    6   35 1
  14    7   36 1
  15    7   37 1
  16    7   38 1
  17    8    9 1
  18    8   12 1
  19    8   13 1
  20    9   10 2
  21   10   11 1
  22   11   12 2
  23   11   39 1
  24   12   14 1
  25   13   40 1
  26   13   41 1
  27   13   42 1
  28   14   15 2
  29   14   16 am
  30   16   17 1
  31   16   21 1
  32   17   18 1
  33   17   43 1
  34   17   44 1
  35   18   19 1
  36   18   45 1
  37   18   46 1
  38   19   20 1
  39   19   22 1
  40   19   47 1
  41   20   21 1
  42   20   48 1
  43   20   49 1
  44   21   50 1
  45   21   51 1
  46   22   23 ar
  47   22   27 ar
  48   23   24 ar
  49   23   52 1
  50   24   25 ar
  51   24   53 1
  52   25   26 ar
  53   25   28 1
  54   26   27 ar
  55   26   54 1
  56   27   55 1
  57   28   29 3

#	End of record

