#	Name: ASD07480023
#	Creating user name:	WinNT
#	Creation time:	15. 06. 2019 21:11

#	Modifying user name:	WinNT
#	Modification time:	15. 06. 2019 21:11

#	Program:	/corina/corina34_cracker 3.40 0067  02.08.2006

@<TRIPOS>MOLECULE
ASD07480023
  60   64    0    0    0
SMALL
NO_CHARGES


@<TRIPOS>ATOM
   1 C1            -0.0169     1.3977     0.0097 C.ar    
   2 C2             0.0021    -0.0041     0.0020 C.ar    
   3 N3             1.1357    -0.6765    -0.0124 N.ar    
   4 C4             2.3096    -0.0464    -0.0202 C.ar    
   5 C5             2.3606     1.3663    -0.0131 C.ar    
   6 C6             1.1559     2.0936     0.0023 C.ar    
   7 C7             3.5386    -0.7549    -0.0352 C.ar    
   8 N8             4.6651    -0.0577    -0.0418 N.ar    
   9 C9             4.6602     1.2660    -0.0348 C.ar    
  10 N10            3.5552     1.9729    -0.0209 N.ar    
  11 N11           -1.1996    -0.6993     0.0102 N.3     
  12 C12           -2.0147    -0.3596    -1.1705 C.3     
  13 C13           -2.3176    -1.6787    -1.9119 C.3     
  14 C14           -2.1391    -2.7507    -0.8048 C.3     
  15 C15           -0.9669    -2.1593     0.0173 C.3     
  16 C16           -0.9961    -2.6884     1.4281 C.ar    
  17 C17           -1.6419    -1.9756     2.4200 C.ar    
  18 C18           -1.6683    -2.4614     3.7164 C.ar    
  19 C19           -1.0481    -3.6615     4.0185 C.ar    
  20 C20           -0.4029    -4.3750     3.0262 C.ar    
  21 C21           -0.3806    -3.8917     1.7292 C.ar    
  22 F22            0.2497    -4.5893     0.7590 F       
  23 F23           -2.2990    -1.7640     4.6864 F       
  24 N24            3.5601    -2.1349    -0.0423 N.pl3   
  25 C25            4.8401    -2.8474    -0.0578 C.3     
  26 C26            4.5840    -4.3558    -0.0629 C.3     
  27 C27            5.9006    -5.0888    -0.0788 C.ar    
  28 C28            6.5157    -5.4310     1.1109 C.ar    
  29 C29            7.7234    -6.1033     1.0963 C.ar    
  30 C30            8.3159    -6.4339    -0.1081 C.ar    
  31 C31            7.7004    -6.0925    -1.2979 C.ar    
  32 C32            6.4905    -5.4240    -1.2832 C.ar    
  33 S33            9.8559    -7.2898    -0.1268 S.o2    
  34 N34            9.5160    -8.9105    -0.1305 N.am    
  35 O35           10.4590    -7.0034    -1.3812 O.2     
  36 O36           10.4833    -7.0142     1.1181 O.2     
  37 H37           -0.9590     1.9257     0.0171 H       
  38 H38            1.1600     3.1736     0.0080 H       
  39 H39            5.6066     1.7864    -0.0403 H       
  40 H40           -2.9460     0.1110    -0.8553 H       
  41 H41           -1.4590     0.3136    -1.8234 H       
  42 H42           -3.3398    -1.6820    -2.2904 H       
  43 H43           -1.6053    -1.8382    -2.7213 H       
  44 H44           -3.0390    -2.8366    -0.1957 H       
  45 H45           -1.8671    -3.7146    -1.2349 H       
  46 H46           -0.0142    -2.3941    -0.4572 H       
  47 H47           -2.1258    -1.0392     2.1842 H       
  48 H48           -1.0681    -4.0401     5.0298 H       
  49 H49            0.0812    -5.3112     3.2620 H       
  50 H50            2.7278    -2.6330    -0.0370 H       
  51 H51            5.3991    -2.5708    -0.9517 H       
  52 H52            5.4158    -2.5796     0.8282 H       
  53 H53            4.0250    -4.6325     0.8310 H       
  54 H54            4.0083    -4.6237    -0.9489 H       
  55 H55            6.0528    -5.1727     2.0519 H       
  56 H56            8.2043    -6.3699     2.0258 H       
  57 H57            8.1635    -6.3505    -2.2389 H       
  58 H58            6.0096    -5.1574    -2.2128 H       
  59 H59           10.1243    -9.5327    -0.5591 H       
  60 H60            8.7085    -9.2377     0.2960 H       
@<TRIPOS>BOND
   1    1    2 ar
   2    1    6 ar
   3    1   37 1
   4    2    3 ar
   5    2   11 1
   6    3    4 ar
   7    4    5 ar
   8    4    7 ar
   9    5    6 ar
  10    5   10 ar
  11    6   38 1
  12    7    8 ar
  13    7   24 1
  14    8    9 ar
  15    9   10 ar
  16    9   39 1
  17   11   12 1
  18   11   15 1
  19   12   13 1
  20   12   40 1
  21   12   41 1
  22   13   14 1
  23   13   42 1
  24   13   43 1
  25   14   15 1
  26   14   44 1
  27   14   45 1
  28   15   16 1
  29   15   46 1
  30   16   17 ar
  31   16   21 ar
  32   17   18 ar
  33   17   47 1
  34   18   19 ar
  35   18   23 1
  36   19   20 ar
  37   19   48 1
  38   20   21 ar
  39   20   49 1
  40   21   22 1
  41   24   25 1
  42   24   50 1
  43   25   26 1
  44   25   51 1
  45   25   52 1
  46   26   27 1
  47   26   53 1
  48   26   54 1
  49   27   28 ar
  50   27   32 ar
  51   28   29 ar
  52   28   55 1
  53   29   30 ar
  54   29   56 1
  55   30   31 ar
  56   30   33 1
  57   31   32 ar
  58   31   57 1
  59   32   58 1
  60   33   34 am
  61   33   35 2
  62   33   36 2
  63   34   59 1
  64   34   60 1

#	End of record

