#	Name: ASD02039285
#	Creating user name:	WinNT
#	Creation time:	15. 06. 2019 20:18

#	Modifying user name:	WinNT
#	Modification time:	15. 06. 2019 20:18

#	Program:	/corina/corina34_cracker 3.40 0067  02.08.2006

@<TRIPOS>MOLECULE
ASD02039285
  50   52    0    0    0
SMALL
NO_CHARGES


@<TRIPOS>ATOM
   1 C1             0.1356     1.1847    -0.3170 C.ar    
   2 C2             0.5172    -0.0933     0.0492 C.ar    
   3 C3            -0.3871    -1.1374    -0.0190 C.ar    
   4 C4            -1.6790    -0.9081    -0.4543 C.ar    
   5 C5            -2.0685     0.3800    -0.8244 C.ar    
   6 C6            -1.1533     1.4273    -0.7479 C.ar    
   7 C7            -3.4532     0.6337    -1.2930 C.ar    
   8 C8            -4.2065     1.6706    -0.7469 C.ar    
   9 N9            -5.4360     1.8971    -1.1625 N.ar    
  10 C10           -6.0000     1.1621    -2.1011 C.ar    
  11 C11           -5.3178     0.1141    -2.6922 C.ar    
  12 C12           -4.0210    -0.1601    -2.2936 C.ar    
  13 C13            1.1276     2.3165    -0.2396 C.3     
  14 N14            1.9438     2.3345    -1.4560 N.am    
  15 C15            1.4504     3.0089    -2.6593 C.3     
  16 C16            3.1487     1.7307    -1.4680 C.2     
  17 C17            3.6001     0.9639    -0.2938 C.2     
  18 C18            4.7329     0.2083    -0.2110 C.2     
  19 C19            2.4335     4.1080    -3.0673 C.3     
  20 N20            2.9677     0.8854     0.9049 N.2     
  21 C21            3.6603     0.1188     1.6968 C.2     
  22 N22            4.7633    -0.3190     1.0355 N.pl3   
  23 O23            3.8633     1.8187    -2.4482 O.2     
  24 C24            5.7992    -1.2036     1.5744 C.3     
  25 F25           -2.5621    -1.9284    -0.5217 F       
  26 C26            1.3204     1.9933    -3.7961 C.3     
  27 C27           -7.4100     1.4685    -2.5361 C.3     
  28 F28           -7.8555     2.6273    -1.8912 F       
  29 F29           -7.4384     1.6653    -3.9209 F       
  30 F30           -8.2449     0.3975    -2.2000 F       
  31 H31            1.5257    -0.2767     0.3894 H       
  32 H32           -0.0835    -2.1333     0.2679 H       
  33 H33           -1.4492     2.4260    -1.0330 H       
  34 H34           -3.7789     2.2941     0.0243 H       
  35 H35           -5.7904    -0.4812    -3.4594 H       
  36 H36           -3.4649    -0.9721    -2.7384 H       
  37 H37            0.5934     3.2621    -0.1464 H       
  38 H38            1.7719     2.1761     0.6283 H       
  39 H39            0.4756     3.4513    -2.4540 H       
  40 H40            5.4652     0.0590    -0.9907 H       
  41 H41            3.4242     3.6756    -3.2077 H       
  42 H42            2.1011     4.5651    -3.9993 H       
  43 H43            2.4756     4.8664    -2.2855 H       
  44 H44            3.4015    -0.1269     2.7162 H       
  45 H45            5.5310    -2.2411     1.3745 H       
  46 H46            6.7537    -0.9771     1.0992 H       
  47 H47            5.8837    -1.0510     2.6503 H       
  48 H48            0.5860     1.2352    -3.5238 H       
  49 H49            0.9969     2.5031    -4.7036 H       
  50 H50            2.2856     1.5179    -3.9708 H       
@<TRIPOS>BOND
   1    1    2 ar
   2    1   13 1
   3    1    6 ar
   4    2    3 ar
   5    2   31 1
   6    3    4 ar
   7    3   32 1
   8    4    5 ar
   9    4   25 1
  10    5    6 ar
  11    5    7 1
  12    6   33 1
  13    7    8 ar
  14    7   12 ar
  15    8    9 ar
  16    8   34 1
  17    9   10 ar
  18   10   11 ar
  19   10   27 1
  20   11   12 ar
  21   11   35 1
  22   12   36 1
  23   13   14 1
  24   13   37 1
  25   13   38 1
  26   14   15 1
  27   14   16 am
  28   15   26 1
  29   15   19 1
  30   15   39 1
  31   16   17 1
  32   16   23 2
  33   17   18 2
  34   17   20 1
  35   18   22 1
  36   18   40 1
  37   19   41 1
  38   19   42 1
  39   19   43 1
  40   20   21 2
  41   21   22 1
  42   21   44 1
  43   22   24 1
  44   24   45 1
  45   24   46 1
  46   24   47 1
  47   26   48 1
  48   26   49 1
  49   26   50 1
  50   27   28 1
  51   27   29 1
  52   27   30 1

#	End of record

