#	Name: ASD02030331
#	Creating user name:	WinNT
#	Creation time:	15. 06. 2019 20:15

#	Modifying user name:	WinNT
#	Modification time:	15. 06. 2019 20:15

#	Program:	/corina/corina34_cracker 3.40 0067  02.08.2006

@<TRIPOS>MOLECULE
ASD02030331
  38   39    0    0    0
SMALL
NO_CHARGES


@<TRIPOS>ATOM
   1 N1             0.0138     1.4021     0.0166 N.am    
   2 C2             0.0089     0.0674     0.0985 C.2     
   3 C3             1.2692    -0.7505     0.1169 C.3     
   4 N4             2.3972     0.0545    -0.3706 N.3     
   5 C5             2.4424     1.3451     0.3356 C.3     
   6 C6             1.2405     2.1856    -0.0989 C.3     
   7 O7            -1.0575    -0.5069     0.1610 O.2     
   8 C8             2.3818     1.1061     1.8456 C.3     
   9 C9             3.7371     2.0790    -0.0192 C.3     
  10 O10            3.8473     2.1910    -1.4396 O.3     
  11 C11            5.0282     2.8646    -1.8797 C.3     
  12 C12            3.6654    -0.6718    -0.2219 C.3     
  13 C13            3.6648    -1.8748    -1.1295 C.ar    
  14 C14            4.1452    -1.7664    -2.4211 C.ar    
  15 C15            4.1446    -2.8699    -3.2537 C.ar    
  16 C16            3.6640    -4.0819    -2.7945 C.ar    
  17 C17            3.1844    -4.1906    -1.5026 C.ar    
  18 C18            3.1890    -3.0881    -0.6686 C.ar    
  19 H19           -0.8355     1.8703     0.0306 H       
  20 H20            1.4727    -1.0787     1.1362 H       
  21 H21            1.1436    -1.6230    -0.5243 H       
  22 H22            1.3735     2.4985    -1.1345 H       
  23 H23            1.1673     3.0678     0.5370 H       
  24 H24            3.2317     0.4959     2.1513 H       
  25 H25            2.4154     2.0629     2.3666 H       
  26 H26            1.4550     0.5891     2.0947 H       
  27 H27            3.7234     3.0749     0.4237 H       
  28 H28            4.5892     1.5207     0.3684 H       
  29 H29            5.0413     3.8767    -1.4753 H       
  30 H30            5.9071     2.3225    -1.5306 H       
  31 H31            5.0371     2.9083    -2.9688 H       
  32 H32            4.4935    -0.0154    -0.4892 H       
  33 H33            3.7787    -0.9969     0.8123 H       
  34 H34            4.5207    -0.8194    -2.7799 H       
  35 H35            4.5193    -2.7850    -4.2631 H       
  36 H36            3.6629    -4.9439    -3.4452 H       
  37 H37            2.8086    -5.1374    -1.1439 H       
  38 H38            2.8177    -3.1739     0.3419 H       
@<TRIPOS>BOND
   1    1    2 am
   2    1    6 1
   3    1   19 1
   4    2    3 1
   5    2    7 2
   6    3    4 1
   7    3   20 1
   8    3   21 1
   9    4    5 1
  10    4   12 1
  11    5    6 1
  12    5    8 1
  13    5    9 1
  14    6   22 1
  15    6   23 1
  16    8   24 1
  17    8   25 1
  18    8   26 1
  19    9   10 1
  20    9   27 1
  21    9   28 1
  22   10   11 1
  23   11   29 1
  24   11   30 1
  25   11   31 1
  26   12   13 1
  27   12   32 1
  28   12   33 1
  29   13   14 ar
  30   13   18 ar
  31   14   15 ar
  32   14   34 1
  33   15   16 ar
  34   15   35 1
  35   16   17 ar
  36   16   36 1
  37   17   18 ar
  38   17   37 1
  39   18   38 1

#	End of record

