#	Name: ASD03331744
#	Creating user name:	WinNT
#	Creation time:	15. 06. 2019 20:39

#	Modifying user name:	WinNT
#	Modification time:	15. 06. 2019 20:39

#	Program:	/corina/corina34_cracker 3.40 0067  02.08.2006

@<TRIPOS>MOLECULE
ASD03331744
  59   63    0    0    0
SMALL
NO_CHARGES


@<TRIPOS>ATOM
   1 C1             2.3364    -2.1743    -2.4251 C.3     
   2 C2             3.1439    -3.3203    -3.0408 C.3     
   3 C3             3.9832    -2.7773    -4.2006 C.3     
   4 C4             4.8926    -1.6591    -3.6860 C.3     
   5 N5             4.0727    -0.5869    -3.1075 N.3     
   6 C6             3.2935    -1.0736    -1.9620 C.3     
   7 C7             4.8620     0.5077    -2.7473 C.ar    
   8 C8             6.2342     0.4770    -2.9612 C.ar    
   9 C9             4.2757     1.6318    -2.1795 C.ar    
  10 C10            5.0590     2.7123    -1.8244 C.ar    
  11 C11            6.4254     2.6764    -2.0339 C.ar    
  12 C12            7.0116     1.5610    -2.6037 C.ar    
  13 C13            7.2768     3.8578    -1.6460 C.3     
  14 C14            8.0883     3.5125    -0.4240 C.2     
  15 C15            8.2175     4.2094    -2.8003 C.3     
  16 C16            9.2319     2.6036    -0.3672 C.ar    
  17 N17            8.8387     3.4452     1.6769 N.pl3   
  18 C18            7.9005     3.9904     0.8311 C.2     
  19 C19            9.8971     1.8243    -1.3178 C.ar    
  20 C20           10.9638     1.0583    -0.9408 C.ar    
  21 C21           11.3927     1.0475     0.3792 C.ar    
  22 C22           10.7518     1.8081     1.3333 C.ar    
  23 C23            9.6636     2.5957     0.9732 C.ar    
  24 N24            7.4310     4.6597    -3.9514 N.pl3   
  25 C25            6.8484     4.9504     1.2295 C.ar    
  26 C26            6.5906     6.0739     0.4429 C.ar    
  27 C27            6.1054     4.7336     2.3907 C.ar    
  28 C28            5.1254     5.6330     2.7569 C.ar    
  29 C29            4.8786     6.7479     1.9757 C.ar    
  30 C30            5.6079     6.9656     0.8202 C.ar    
  31 O31            6.5167     5.4487    -3.7931 O.2     
  32 O32            7.6914     4.2450    -5.0666 O.2     
  33 H33            1.6509    -1.7707    -3.1703 H       
  34 H34            1.7692    -2.5462    -1.5717 H       
  35 H35            3.8016    -3.7497    -2.2850 H       
  36 H36            2.4637    -4.0873    -3.4112 H       
  37 H37            4.5927    -3.5800    -4.6158 H       
  38 H38            3.3237    -2.3832    -4.9738 H       
  39 H39            5.5612    -2.0571    -2.9227 H       
  40 H40            5.4813    -1.2606    -4.5123 H       
  41 H41            2.7207    -0.2498    -1.5361 H       
  42 H42            3.9696    -1.4743    -1.2068 H       
  43 H43            6.6926    -0.3938    -3.4061 H       
  44 H44            3.2085     1.6608    -2.0163 H       
  45 H45            4.6038     3.5866    -1.3829 H       
  46 H46            8.0785     1.5378    -2.7697 H       
  47 H47            6.6355     4.7115    -1.4270 H       
  48 H48            8.8936     5.0054    -2.4885 H       
  49 H49            8.7967     3.3288    -3.0781 H       
  50 H50            8.9104     3.6331     2.6259 H       
  51 H51            9.5688     1.8274    -2.3467 H       
  52 H52           11.4772     0.4561    -1.6758 H       
  53 H53           12.2373     0.4365     0.6617 H       
  54 H54           11.0934     1.7922     2.3577 H       
  55 H55            7.1595     6.2451    -0.4590 H       
  56 H56            6.2969     3.8635     3.0012 H       
  57 H57            4.5494     5.4662     3.6551 H       
  58 H58            4.1104     7.4490     2.2667 H       
  59 H59            5.4076     7.8357     0.2126 H       
@<TRIPOS>BOND
   1    1    2 1
   2    1    6 1
   3    1   33 1
   4    1   34 1
   5    2    3 1
   6    2   35 1
   7    2   36 1
   8    3    4 1
   9    3   37 1
  10    3   38 1
  11    4    5 1
  12    4   39 1
  13    4   40 1
  14    5    6 1
  15    5    7 1
  16    6   41 1
  17    6   42 1
  18    7    9 ar
  19    7    8 ar
  20    8   12 ar
  21    8   43 1
  22    9   10 ar
  23    9   44 1
  24   10   11 ar
  25   10   45 1
  26   11   12 ar
  27   11   13 1
  28   12   46 1
  29   13   14 1
  30   13   15 1
  31   13   47 1
  32   14   16 1
  33   14   18 2
  34   15   24 1
  35   15   48 1
  36   15   49 1
  37   16   19 ar
  38   16   23 ar
  39   17   18 1
  40   17   23 1
  41   17   50 1
  42   18   25 1
  43   19   20 ar
  44   19   51 1
  45   20   21 ar
  46   20   52 1
  47   21   22 ar
  48   21   53 1
  49   22   23 ar
  50   22   54 1
  51   24   31 2
  52   24   32 2
  53   25   27 ar
  54   25   26 ar
  55   26   30 ar
  56   26   55 1
  57   27   28 ar
  58   27   56 1
  59   28   29 ar
  60   28   57 1
  61   29   30 ar
  62   29   58 1
  63   30   59 1

#	End of record

