#	Name: ASD03240532
#	Creating user name:	WinNT
#	Creation time:	15. 06. 2019 20:35

#	Modifying user name:	WinNT
#	Modification time:	15. 06. 2019 20:35

#	Program:	/corina/corina34_cracker 3.40 0067  02.08.2006

@<TRIPOS>MOLECULE
ASD03240532
  76   83    0    0    0
SMALL
NO_CHARGES


@<TRIPOS>ATOM
   1 C1            -0.0166     1.3755     0.0096 C.ar    
   2 C2             0.0021    -0.0041     0.0020 C.ar    
   3 N3             1.1422    -0.6683    -0.0058 N.ar    
   4 C4             2.3145    -0.0481    -0.0058 C.ar    
   5 C5             2.3702     1.3442    -0.0124 C.ar    
   6 C6             1.1860     2.0698     0.0018 C.ar    
   7 N7             3.4820    -0.8058     0.0220 N.pl3   
   8 C8             4.3592    -0.7194     1.0997 C.ar    
   9 C9             4.9952     0.4890     1.4036 C.ar    
  10 C10            4.7637     1.6835     0.5620 C.2     
  11 N11            3.5939     2.0276    -0.0512 N.pl3   
  12 C12            4.6051    -1.8391     1.8830 C.ar    
  13 C13            5.4649    -1.7538     2.9614 C.ar    
  14 C14            6.0859    -0.5557     3.2701 C.ar    
  15 C15            5.8562     0.5653     2.4982 C.ar    
  16 N16            5.6751     2.5941     0.2849 N.2     
  17 C17            5.1448     3.5398    -0.5058 C.2     
  18 C18            3.8224     3.2037    -0.7368 C.2     
  19 C19            2.8495     3.9538    -1.5545 C.ar    
  20 C20            2.7505     5.3418    -1.4300 C.ar    
  21 C21            2.0271     3.2799    -2.4608 C.ar    
  22 C22            1.1201     3.9875    -3.2217 C.ar    
  23 C23            1.0235     5.3615    -3.0890 C.ar    
  24 C24            1.8389     6.0363    -2.1974 C.ar    
  25 C25            5.8486     4.7306    -1.0358 C.ar    
  26 C26            0.0299     6.1275    -3.9240 C.3     
  27 N27           -1.0489     5.2792    -4.4480 N.3     
  28 C28           -0.4712     7.4184    -3.2552 C.3     
  29 C29           -0.3849     8.0771    -4.6422 C.3     
  30 C30            0.6822     7.0234    -4.9902 C.3     
  31 C31            6.8180     5.3718    -0.2647 C.ar    
  32 C32            7.4705     6.4803    -0.7641 C.ar    
  33 C33            7.1646     6.9562    -2.0266 C.ar    
  34 C34            6.2040     6.3245    -2.7961 C.ar    
  35 C35            5.5487     5.2117    -2.3101 C.ar    
  36 C36            7.8803     8.1680    -2.5655 C.3     
  37 N37            9.0882     7.7432    -3.2855 N.3     
  38 C38            9.6836     8.8663    -4.0241 C.3     
  39 C39            8.7955     6.6217    -4.1899 C.3     
  40 C40           10.0900     6.1732    -4.8734 C.3     
  41 O41           10.6706     7.2852    -5.5602 O.3     
  42 C42           10.9691     8.3953    -4.7093 C.3     
  43 H43           -0.9556     1.9091     0.0170 H       
  44 H44           -0.9306    -0.5486     0.0028 H       
  45 H45            1.2002     3.1497     0.0064 H       
  46 H46            3.6863    -1.4002    -0.7168 H       
  47 H47            4.1238    -2.7773     1.6495 H       
  48 H48            5.6534    -2.6275     3.5676 H       
  49 H49            6.7523    -0.4979     4.1181 H       
  50 H50            6.3420     1.4988     2.7410 H       
  51 H51            3.3860     5.8696    -0.7344 H       
  52 H52            2.1017     2.2076    -2.5656 H       
  53 H53            0.4839     3.4679    -3.9229 H       
  54 H54            1.7581     7.1088    -2.0991 H       
  55 H55           -0.6759     4.4574    -4.8991 H       
  56 H56           -1.6982     5.0277    -3.7178 H       
  57 H57           -1.4880     7.3441    -2.8697 H       
  58 H58            0.2282     7.8344    -2.5300 H       
  59 H59           -1.2987     7.9814    -5.2286 H       
  60 H60           -0.0011     9.0970    -4.6180 H       
  61 H61            1.6975     7.3308    -4.7395 H       
  62 H62            0.5954     6.6323    -6.0039 H       
  63 H63            7.0572     5.0016     0.7212 H       
  64 H64            8.2213     6.9776    -0.1680 H       
  65 H65            5.9692     6.7009    -3.7808 H       
  66 H66            4.7990     4.7195    -2.9117 H       
  67 H67            7.2213     8.7059    -3.2471 H       
  68 H68            8.1606     8.8216    -1.7395 H       
  69 H69            8.9793     9.2214    -4.7764 H       
  70 H70            9.9158     9.6752    -3.3314 H       
  71 H71            8.3795     5.7922    -3.6182 H       
  72 H72            8.0770     6.9410    -4.9449 H       
  73 H73           10.7887     5.8037    -4.1229 H       
  74 H74            9.8685     5.3798    -5.5873 H       
  75 H75           11.3835     9.2090    -5.3045 H       
  76 H76           11.6935     8.0904    -3.9540 H       
@<TRIPOS>BOND
   1    1    2 ar
   2    1    6 ar
   3    1   43 1
   4    2    3 ar
   5    2   44 1
   6    3    4 ar
   7    4    5 ar
   8    4    7 1
   9    5    6 ar
  10    5   11 1
  11    6   45 1
  12    7    8 1
  13    7   46 1
  14    8    9 ar
  15    8   12 ar
  16    9   10 1
  17    9   15 ar
  18   10   11 1
  19   10   16 2
  20   11   18 1
  21   12   13 ar
  22   12   47 1
  23   13   14 ar
  24   13   48 1
  25   14   15 ar
  26   14   49 1
  27   15   50 1
  28   16   17 1
  29   17   18 2
  30   17   25 1
  31   18   19 1
  32   19   20 ar
  33   19   21 ar
  34   20   24 ar
  35   20   51 1
  36   21   22 ar
  37   21   52 1
  38   22   23 ar
  39   22   53 1
  40   23   24 ar
  41   23   26 1
  42   24   54 1
  43   25   31 ar
  44   25   35 ar
  45   26   27 1
  46   26   28 1
  47   26   30 1
  48   27   55 1
  49   27   56 1
  50   28   29 1
  51   28   57 1
  52   28   58 1
  53   29   30 1
  54   29   59 1
  55   29   60 1
  56   30   61 1
  57   30   62 1
  58   31   32 ar
  59   31   63 1
  60   32   33 ar
  61   32   64 1
  62   33   34 ar
  63   33   36 1
  64   34   35 ar
  65   34   65 1
  66   35   66 1
  67   36   37 1
  68   36   67 1
  69   36   68 1
  70   37   38 1
  71   37   39 1
  72   38   42 1
  73   38   69 1
  74   38   70 1
  75   39   40 1
  76   39   71 1
  77   39   72 1
  78   40   41 1
  79   40   73 1
  80   40   74 1
  81   41   42 1
  82   42   75 1
  83   42   76 1

#	End of record

