#	Name: ASD09080114
#	Creating user name:	WinNT
#	Creation time:	15. 06. 2019 21:20

#	Modifying user name:	WinNT
#	Modification time:	15. 06. 2019 21:20

#	Program:	/corina/corina34_cracker 3.40 0067  02.08.2006

@<TRIPOS>MOLECULE
ASD09080114
  28   27    0    0    0
SMALL
NO_CHARGES


@<TRIPOS>ATOM
   1 C1            -0.0167     1.3790     0.0096 C.ar    
   2 C2             0.0021    -0.0041     0.0020 C.ar    
   3 C3            -1.1855    -0.7112     0.0100 C.ar    
   4 C4            -2.3919    -0.0363     0.0257 C.ar    
   5 C5            -2.4112     1.3459     0.0333 C.ar    
   6 C6            -1.2240     2.0538     0.0306 C.ar    
   7 C7            -3.6865    -0.8078     0.0339 C.3     
   8 C8            -4.1105    -1.0770     1.4791 C.3     
   9 N9            -4.4127     0.1964     2.1461 N.3     
  10 Br10           1.6078     2.3470    -0.0007 Br      
  11 C11           -5.3373    -1.9522     1.4879 C.2     
  12 O12           -6.4287    -1.4610     1.6538 O.2     
  13 O13           -5.2176    -3.2775     1.3114 O.3     
  14 C14           -6.4415    -4.0584     1.3317 C.3     
  15 H15            0.9445    -0.5314    -0.0105 H       
  16 H16           -1.1710    -1.7911     0.0037 H       
  17 H17           -3.3539     1.8727     0.0455 H       
  18 H18           -1.2391     3.1337     0.0365 H       
  19 H19           -4.4591    -0.2263    -0.4691 H       
  20 H20           -3.5481    -1.7553    -0.4867 H       
  21 H21           -3.3010    -1.5808     2.0074 H       
  22 H22           -3.5888     0.7753     2.2105 H       
  23 H23           -5.1606     0.6829     1.6748 H       
  24 H24           -6.2035    -5.1109     1.1778 H       
  25 H25           -6.9355    -3.9347     2.2954 H       
  26 H26           -7.1043    -3.7158     0.5370 H       
  27 Cl27           6.6078     8.1337     7.2954 Cl      
  28 H28            6.6078     9.5037     7.2954 H       
@<TRIPOS>BOND
   1    1    2 ar
   2    1   10 1
   3    1    6 ar
   4    2    3 ar
   5    2   15 1
   6    3    4 ar
   7    3   16 1
   8    4    5 ar
   9    4    7 1
  10    5    6 ar
  11    5   17 1
  12    6   18 1
  13    7    8 1
  14    7   19 1
  15    7   20 1
  16    8    9 1
  17    8   11 1
  18    8   21 1
  19    9   22 1
  20    9   23 1
  21   11   12 2
  22   11   13 1
  23   13   14 1
  24   14   24 1
  25   14   25 1
  26   14   26 1
  27   27   28 1

#	End of record

