#	Name: ASD02620005
#	Creating user name:	WinNT
#	Creation time:	15. 06. 2019 20:26

#	Modifying user name:	WinNT
#	Modification time:	15. 06. 2019 20:26

#	Program:	/corina/corina34_cracker 3.40 0067  02.08.2006

@<TRIPOS>MOLECULE
ASD02620005
  43   44    0    0    0
SMALL
NO_CHARGES


@<TRIPOS>ATOM
   1 C1            -0.0167     1.3833     0.0096 C.ar    
   2 C2             0.0021    -0.0041     0.0020 C.ar    
   3 C3             1.2081    -0.6771    -0.0131 C.ar    
   4 C4             2.3962     0.0305    -0.0202 C.ar    
   5 C5             2.3801     1.4128    -0.0126 C.ar    
   6 C6             1.1763     2.0908     0.0021 C.ar    
   7 O7            -1.2021     2.0479     0.0189 O.3     
   8 C8             3.7106    -0.7064    -0.0357 C.3     
   9 C9            -1.2922    -0.7759     0.0107 C.3     
  10 C10            1.2293    -2.1840    -0.0214 C.3     
  11 C11            1.2228    -2.6786    -1.4449 C.2     
  12 N12            1.2025    -1.8868    -2.4535 N.2     
  13 C13            1.2014    -2.6587    -3.7043 C.3     
  14 C14            1.2259    -4.1265    -3.2319 C.3     
  15 N15            1.2437    -4.0034    -1.7642 N.pl3   
  16 C16            1.1596     3.5977     0.0098 C.3     
  17 C17            2.5962     4.1238    -0.0010 C.3     
  18 C18            0.4210     4.1059    -1.2300 C.3     
  19 C19            0.4444     4.0933     1.2683 C.3     
  20 H20            3.3093     1.9633    -0.0182 H       
  21 H21           -1.5410     2.2354     0.9049 H       
  22 H22            4.0183    -0.8789    -1.0671 H       
  23 H23            4.4674    -0.1104     0.4744 H       
  24 H24            3.5969    -1.6630     0.4743 H       
  25 H25           -1.6145    -0.9565    -1.0148 H       
  26 H26           -1.1435    -1.7291     0.5180 H       
  27 H27           -2.0550    -0.2003     0.5353 H       
  28 H28            2.1291    -2.5375     0.4820 H       
  29 H29            0.3494    -2.5626     0.4988 H       
  30 H30            0.2970    -2.4563    -4.2780 H       
  31 H31            2.0891    -2.4318    -4.2948 H       
  32 H32            0.3329    -4.6541    -3.5670 H       
  33 H33            2.1266    -4.6295    -3.5837 H       
  34 H34            1.2646    -4.7394    -1.1328 H       
  35 H35            3.1057     3.7707    -0.8976 H       
  36 H36            2.5841     5.2137     0.0046 H       
  37 H37            3.1224     3.7618     0.8823 H       
  38 H38           -0.6025     3.7311    -1.2223 H       
  39 H39            0.4089     5.1958    -1.2244 H       
  40 H40            0.9305     3.7528    -2.1266 H       
  41 H41            0.9705     3.7313     2.1516 H       
  42 H42            0.4323     5.1832     1.2739 H       
  43 H43           -0.5791     3.7185     1.2760 H       
@<TRIPOS>BOND
   1    1    2 ar
   2    1    6 ar
   3    1    7 1
   4    2    3 ar
   5    2    9 1
   6    3    4 ar
   7    3   10 1
   8    4    5 ar
   9    4    8 1
  10    5    6 ar
  11    5   20 1
  12    6   16 1
  13    7   21 1
  14    8   22 1
  15    8   23 1
  16    8   24 1
  17    9   25 1
  18    9   26 1
  19    9   27 1
  20   10   11 1
  21   10   28 1
  22   10   29 1
  23   11   12 2
  24   11   15 1
  25   12   13 1
  26   13   14 1
  27   13   30 1
  28   13   31 1
  29   14   15 1
  30   14   32 1
  31   14   33 1
  32   15   34 1
  33   16   17 1
  34   16   19 1
  35   16   18 1
  36   17   35 1
  37   17   36 1
  38   17   37 1
  39   18   38 1
  40   18   39 1
  41   18   40 1
  42   19   41 1
  43   19   42 1
  44   19   43 1

#	End of record

