#	Name: ASD03091303
#	Creating user name:	WinNT
#	Creation time:	15. 06. 2019 20:30

#	Modifying user name:	WinNT
#	Modification time:	15. 06. 2019 20:30

#	Program:	/corina/corina34_cracker 3.40 0067  02.08.2006

@<TRIPOS>MOLECULE
ASD03091303
  39   41    0    0    0
SMALL
NO_CHARGES


@<TRIPOS>ATOM
   1 C1            -0.0167     1.3781     0.0096 C.ar    
   2 C2             0.0021    -0.0041     0.0020 C.ar    
   3 C3             1.2084    -0.6789    -0.0132 C.ar    
   4 C4             2.3960     0.0285    -0.0212 C.ar    
   5 C5             2.3773     1.4107    -0.0145 C.ar    
   6 C6             1.1710     2.0855     0.0021 C.ar    
   7 C7             3.6720     2.1819    -0.0223 C.3     
   8 C8             3.9214     3.1320    -1.1954 C.3     
   9 C9             3.5941     3.6953     0.1890 C.3     
  10 C10            2.8535     3.2249    -2.2546 C.2     
  11 N11            3.0209     4.0461    -3.3102 N.am    
  12 O12            1.8433     2.5608    -2.1573 O.2     
  13 C13            1.9828     4.1364    -4.3399 C.3     
  14 C14            2.4185     5.1314    -5.4175 C.3     
  15 C15            1.3506     5.2243    -6.4767 C.ar    
  16 C16            0.4034     4.4605    -8.5387 C.ar    
  17 C17            1.3829     4.3752    -7.5671 C.ar    
  18 C18            0.3356     6.1548    -6.3551 C.ar    
  19 C19           -0.6439     6.2401    -7.3268 C.ar    
  20 C20           -0.6082     5.3952    -8.4202 C.ar    
  21 H21           -0.9592     1.9054     0.0170 H       
  22 H22           -0.9258    -0.5567     0.0083 H       
  23 H23            1.2231    -1.7588    -0.0184 H       
  24 H24            3.3386    -0.4987    -0.0324 H       
  25 H25            1.1563     3.1654     0.0077 H       
  26 H26            4.5332     1.6590     0.3937 H       
  27 H27            4.9466     3.2343    -1.5509 H       
  28 H28            2.6065     4.1331     0.3336 H       
  29 H29            4.4041     4.1682     0.7442 H       
  30 H30            3.8288     4.5772    -3.3880 H       
  31 H31            1.8318     3.1556    -4.7907 H       
  32 H32            1.0509     4.4757    -3.8876 H       
  33 H33            2.5695     6.1122    -4.9667 H       
  34 H34            3.3504     4.7921    -5.8698 H       
  35 H35            0.4288     3.7974    -9.3908 H       
  36 H36            2.1737     3.6455    -7.6600 H       
  37 H37            0.3077     6.8149    -5.5008 H       
  38 H38           -1.4373     6.9666    -7.2314 H       
  39 H39           -1.3735     5.4618    -9.1794 H       
@<TRIPOS>BOND
   1    1    2 ar
   2    1    6 ar
   3    1   21 1
   4    2    3 ar
   5    2   22 1
   6    3    4 ar
   7    3   23 1
   8    4    5 ar
   9    4   24 1
  10    5    6 ar
  11    5    7 1
  12    6   25 1
  13    7    8 1
  14    7    9 1
  15    7   26 1
  16    8    9 1
  17    8   10 1
  18    8   27 1
  19    9   28 1
  20    9   29 1
  21   10   11 am
  22   10   12 2
  23   11   13 1
  24   11   30 1
  25   13   14 1
  26   13   31 1
  27   13   32 1
  28   14   15 1
  29   14   33 1
  30   14   34 1
  31   15   18 ar
  32   15   17 ar
  33   16   17 ar
  34   16   20 ar
  35   16   35 1
  36   17   36 1
  37   18   19 ar
  38   18   37 1
  39   19   20 ar
  40   19   38 1
  41   20   39 1

#	End of record

