#	Name: ASD08151162
#	Creating user name:	WinNT
#	Creation time:	15. 06. 2019 21:17

#	Modifying user name:	WinNT
#	Modification time:	15. 06. 2019 21:17

#	Program:	/corina/corina34_cracker 3.40 0067  02.08.2006

@<TRIPOS>MOLECULE
ASD08151162
  47   51    0    0    0
SMALL
NO_CHARGES


@<TRIPOS>ATOM
   1 C1            -0.0171     1.4128     0.0098 C.ar    
   2 C2             0.0021    -0.0041     0.0020 C.ar    
   3 C3             1.2159     2.1090     0.0018 C.ar    
   4 N4             2.3566     1.4379    -0.0128 N.ar    
   5 C5             2.4107     0.1203    -0.0204 C.ar    
   6 C6             1.2597    -0.6567    -0.0135 C.ar    
   7 C7             1.2288     3.5409     0.0089 C.1     
   8 C8             1.3448    -2.1343    -0.0223 C.ar    
   9 C9             1.8890    -2.7979    -1.1225 C.ar    
  10 C10           -1.2050    -0.7127     0.0093 C.ar    
  11 C11           -2.3845    -0.0289     0.0238 C.ar    
  12 C12           -2.4046     1.3638     0.0315 C.ar    
  13 C13           -1.2468     2.0832     0.0194 C.ar    
  14 C14            3.7556    -0.5594    -0.0374 C.3     
  15 C15            4.3653    -0.4487    -1.4363 C.3     
  16 N16            4.6417     0.0868     0.9339 N.pl3   
  17 C17            5.6981    -0.6187     1.4831 C.ar    
  18 C18            6.5580    -0.0149     2.4161 C.ar    
  19 C19            7.6128    -0.7819     2.9393 C.ar    
  20 N20            7.7581    -2.0401     2.5368 N.ar    
  21 C21            6.9274    -2.5642     1.6603 C.ar    
  22 N22            5.9196    -1.8846     1.1444 N.ar    
  23 N23            6.6366     1.2122     2.9845 N.2     
  24 C24            7.6477     1.2465     3.8032 C.2     
  25 N25            8.2820     0.0399     3.8105 N.pl3   
  26 C26            0.8864    -2.8687     1.0719 C.ar    
  27 C27            0.9687    -4.2479     1.0572 C.ar    
  28 C28            1.5057    -4.9002    -0.0415 C.ar    
  29 C29            1.9661    -4.1757    -1.1259 C.ar    
  30 F30            0.5256    -4.9615     2.1153 F       
  31 N31            1.2389     4.6768     0.0146 N.1     
  32 H32            2.2490    -2.2341    -1.9703 H       
  33 H33           -1.2020    -1.7927     0.0032 H       
  34 H34           -3.3163    -0.5749     0.0291 H       
  35 H35           -3.3523     1.8817     0.0429 H       
  36 H36           -1.2775     3.1628     0.0255 H       
  37 H37            3.6347    -1.6106     0.2241 H       
  38 H38            5.3380    -0.9403    -1.4487 H       
  39 H39            3.7060    -0.9295    -2.1591 H       
  40 H40            4.4861     0.6025    -1.6979 H       
  41 H41            4.4879     1.0090     1.1922 H       
  42 H42            7.0736    -3.5896     1.3543 H       
  43 H43            7.9410     2.1043     4.3901 H       
  44 H44            9.0633    -0.1946     4.3355 H       
  45 H45            0.4686    -2.3604     1.9284 H       
  46 H46            1.5687    -5.9784    -0.0491 H       
  47 H47            2.3834    -4.6897    -1.9791 H       
@<TRIPOS>BOND
   1    1    2 ar
   2    1    3 ar
   3    1   13 ar
   4    2   10 ar
   5    2    6 ar
   6    3    4 ar
   7    3    7 1
   8    4    5 ar
   9    5    6 ar
  10    5   14 1
  11    6    8 1
  12    7   31 3
  13    8   26 ar
  14    8    9 ar
  15    9   29 ar
  16    9   32 1
  17   10   11 ar
  18   10   33 1
  19   11   12 ar
  20   11   34 1
  21   12   13 ar
  22   12   35 1
  23   13   36 1
  24   14   15 1
  25   14   16 1
  26   14   37 1
  27   15   38 1
  28   15   39 1
  29   15   40 1
  30   16   17 1
  31   16   41 1
  32   17   18 ar
  33   17   22 ar
  34   18   19 ar
  35   18   23 1
  36   19   20 ar
  37   19   25 1
  38   20   21 ar
  39   21   22 ar
  40   21   42 1
  41   23   24 2
  42   24   25 1
  43   24   43 1
  44   25   44 1
  45   26   27 ar
  46   26   45 1
  47   27   28 ar
  48   27   30 1
  49   28   29 ar
  50   28   46 1
  51   29   47 1

#	End of record

