#	Name: ASD00170084
#	Creating user name:	WinNT
#	Creation time:	15. 06. 2019 18:31

#	Modifying user name:	WinNT
#	Modification time:	15. 06. 2019 18:31

#	Program:	/corina/corina34_cracker 3.40 0067  02.08.2006

@<TRIPOS>MOLECULE
ASD00170084
  61   65    0    0    0
SMALL
NO_CHARGES


@<TRIPOS>ATOM
   1 C1            -2.2749     1.3249    -0.5615 C.2     
   2 C2            -2.3077    -0.0346    -0.6461 C.2     
   3 C3            -1.0183    -0.6367    -0.3607 C.2     
   4 C4            -0.0489     0.2880    -0.0686 C.2     
   5 S5            -0.6633     1.8747    -0.1393 S.3     
   6 N6             1.2590    -0.0267     0.2380 N.pl3   
   7 C7            -3.4310     2.2107    -0.7979 C.ar    
   8 C8            -4.6681     1.9200    -0.2176 C.ar    
   9 C9            -5.7444     2.7525    -0.4430 C.ar    
  10 C10           -5.6012     3.8731    -1.2422 C.ar    
  11 C11           -4.3788     4.1673    -1.8202 C.ar    
  12 C12           -3.2922     3.3472    -1.5985 C.ar    
  13 C13           -0.7780    -2.0804    -0.3820 C.2     
  14 N14           -0.5189    -2.7033    -1.5487 N.am    
  15 O15           -0.8123    -2.7185     0.6542 O.2     
  16 C16           -0.3865    -4.1618    -1.5868 C.3     
  17 C17           -1.7354    -4.7820    -1.8455 C.ar    
  18 C18           -2.1507    -5.0172    -3.1428 C.ar    
  19 C19           -3.3880    -5.5860    -3.3801 C.ar    
  20 C20           -4.2099    -5.9201    -2.3200 C.ar    
  21 C21           -3.7943    -5.6857    -1.0226 C.ar    
  22 C22           -2.5551    -5.1208    -0.7852 C.ar    
  23 C23           -3.5208    -0.8095    -0.9897 C.ar    
  24 C24           -4.0821    -0.7044    -2.2628 C.ar    
  25 C25           -5.2131    -1.4295    -2.5768 C.ar    
  26 C26           -5.7907    -2.2594    -1.6324 C.ar    
  27 C27           -5.2390    -2.3680    -0.3683 C.ar    
  28 C28           -4.1048    -1.6527    -0.0436 C.ar    
  29 C29           -0.3695    -1.9218    -2.7789 C.3     
  30 C30            1.0926    -1.6594    -3.0328 C.ar    
  31 C31            1.8627    -2.6075    -3.6802 C.ar    
  32 C32            3.2039    -2.3668    -3.9131 C.ar    
  33 C33            3.7748    -1.1779    -3.4991 C.ar    
  34 C34            3.0045    -0.2295    -2.8526 C.ar    
  35 C35            1.6624    -0.4683    -2.6235 C.ar    
  36 H36            1.5432    -0.9540     0.2565 H       
  37 H37            1.8943     0.6793     0.4350 H       
  38 H38           -4.7815     1.0454     0.4058 H       
  39 H39           -6.7014     2.5290     0.0050 H       
  40 H40           -6.4476     4.5211    -1.4158 H       
  41 H41           -4.2743     5.0433    -2.4431 H       
  42 H42           -2.3387     3.5782    -2.0500 H       
  43 H43            0.3017    -4.4435    -2.3837 H       
  44 H44           -0.0007    -4.5167    -0.6312 H       
  45 H45           -1.5086    -4.7562    -3.9711 H       
  46 H46           -3.7128    -5.7691    -4.3937 H       
  47 H47           -5.1769    -6.3638    -2.5054 H       
  48 H48           -4.4366    -5.9464    -0.1944 H       
  49 H49           -2.2304    -4.9377     0.2284 H       
  50 H50           -3.6324    -0.0566    -3.0007 H       
  51 H51           -5.6487    -1.3487    -3.5618 H       
  52 H52           -6.6762    -2.8246    -1.8830 H       
  53 H53           -5.6946    -3.0176     0.3645 H       
  54 H54           -3.6749    -1.7386     0.9434 H       
  55 H55           -0.7895    -2.4788    -3.6164 H       
  56 H56           -0.8958    -0.9732    -2.6729 H       
  57 H57            1.4167    -3.5364    -4.0036 H       
  58 H58            3.8057    -3.1078    -4.4182 H       
  59 H59            4.8228    -0.9902    -3.6805 H       
  60 H60            3.4507     0.6993    -2.5289 H       
  61 H61            1.0605     0.2727    -2.1185 H       
@<TRIPOS>BOND
   1    1    2 2
   2    1    7 1
   3    1    5 1
   4    2    3 1
   5    2   23 1
   6    3    4 2
   7    3   13 1
   8    4    5 1
   9    4    6 1
  10    6   36 1
  11    6   37 1
  12    7    8 ar
  13    7   12 ar
  14    8    9 ar
  15    8   38 1
  16    9   10 ar
  17    9   39 1
  18   10   11 ar
  19   10   40 1
  20   11   12 ar
  21   11   41 1
  22   12   42 1
  23   13   14 am
  24   13   15 2
  25   14   16 1
  26   14   29 1
  27   16   17 1
  28   16   43 1
  29   16   44 1
  30   17   18 ar
  31   17   22 ar
  32   18   19 ar
  33   18   45 1
  34   19   20 ar
  35   19   46 1
  36   20   21 ar
  37   20   47 1
  38   21   22 ar
  39   21   48 1
  40   22   49 1
  41   23   24 ar
  42   23   28 ar
  43   24   25 ar
  44   24   50 1
  45   25   26 ar
  46   25   51 1
  47   26   27 ar
  48   26   52 1
  49   27   28 ar
  50   27   53 1
  51   28   54 1
  52   29   30 1
  53   29   55 1
  54   29   56 1
  55   30   31 ar
  56   30   35 ar
  57   31   32 ar
  58   31   57 1
  59   32   33 ar
  60   32   58 1
  61   33   34 ar
  62   33   59 1
  63   34   35 ar
  64   34   60 1
  65   35   61 1

#	End of record

