#	Name: ASD07931727
#	Creating user name:	WinNT
#	Creation time:	15. 06. 2019 21:13

#	Modifying user name:	WinNT
#	Modification time:	15. 06. 2019 21:13

#	Program:	/corina/corina34_cracker 3.40 0067  02.08.2006

@<TRIPOS>MOLECULE
ASD07931727
  57   61    0    0    0
SMALL
NO_CHARGES


@<TRIPOS>ATOM
   1 C1             0.1580     1.2297     0.0456 C.2     
   2 C2             0.2046    -0.1249     0.2309 C.2     
   3 C3             1.5111    -0.7781     0.3429 C.2     
   4 N4             2.6279    -0.0339     0.2633 N.am    
   5 C5             2.5547     1.3276     0.0744 C.2     
   6 C6             1.3525     1.9564    -0.0325 C.2     
   7 C7             3.9539    -0.6561     0.3778 C.3     
   8 C8             4.8827     0.0108    -0.6477 C.3     
   9 N9             4.9528     1.4481    -0.3483 N.am    
  10 C10            3.8139     2.0998    -0.0120 C.2     
  11 C11            6.2302     2.1624    -0.4125 C.3     
  12 O12            1.5848    -1.9840     0.5072 O.2     
  13 N13           -0.9736    -0.8725     0.3122 N.pl3   
  14 C14           -1.8943    -1.0548    -0.6876 C.2     
  15 C15           -1.4204    -1.5611     1.3954 C.2     
  16 N16           -2.5532    -2.1311     1.0869 N.2     
  17 C17           -2.8673    -1.8373    -0.1838 C.2     
  18 C18           -4.0970    -2.3026    -0.9202 C.3     
  19 O19            3.8261     3.2945     0.2137 O.2     
  20 C20            6.7366     2.1732    -1.8562 C.3     
  21 C21            5.6598     2.7541    -2.7994 C.3     
  22 C22            5.7899     1.9066    -4.0848 C.3     
  23 C23            6.9299     0.9140    -3.7661 C.3     
  24 O24            6.9483     0.8236    -2.3248 O.3     
  25 C25            6.6365    -0.4340    -4.3726 C.ar    
  26 C26            6.0489    -1.4232    -3.6065 C.ar    
  27 C27            6.9503    -0.6794    -5.6983 C.ar    
  28 C28            6.6805    -1.9176    -6.2561 C.ar    
  29 C29            6.0979    -2.9092    -5.4886 C.ar    
  30 C30            5.7797    -2.6615    -4.1627 C.ar    
  31 Cl31           5.7594    -4.4619    -6.1873 Cl      
  32 C32            7.2533     1.4589     0.4815 C.3     
  33 F33            7.5194     0.2896    -6.4482 F       
  34 F34            5.2109    -3.6301    -3.4121 F       
  35 H35           -0.7927     1.7342    -0.0442 H       
  36 H36            1.3194     3.0259    -0.1793 H       
  37 H37            4.3462    -0.5043     1.3834 H       
  38 H38            3.8794    -1.7231     0.1681 H       
  39 H39            5.8787    -0.4266    -0.5785 H       
  40 H40            4.4844    -0.1351    -1.6518 H       
  41 H41            6.0911     3.1873    -0.0686 H       
  42 H42           -1.8478    -0.6486    -1.6873 H       
  43 H43           -0.9215    -1.6261     2.3510 H       
  44 H44           -4.9005    -1.5797    -0.7790 H       
  45 H45           -3.8718    -2.3925    -1.9829 H       
  46 H46           -4.4081    -3.2723    -0.5315 H       
  47 H47            7.6577     2.7513    -1.9302 H       
  48 H48            4.6674     2.6375    -2.3639 H       
  49 H49            5.8639     3.8036    -3.0116 H       
  50 H50            4.8619     1.3711    -4.2847 H       
  51 H51            6.0583     2.5372    -4.9324 H       
  52 H52            7.8812     1.2978    -4.1345 H       
  53 H53            5.8003    -1.2298    -2.5734 H       
  54 H54            6.9247    -2.1088    -7.2907 H       
  55 H55            8.2038     1.9904     0.4338 H       
  56 H56            6.8926     1.4512     1.5101 H       
  57 H57            7.3925     0.4340     0.1376 H       
@<TRIPOS>BOND
   1    1    2 2
   2    1    6 1
   3    1   35 1
   4    2    3 1
   5    2   13 1
   6    3    4 am
   7    3   12 2
   8    4    5 1
   9    4    7 1
  10    5    6 2
  11    5   10 1
  12    6   36 1
  13    7    8 1
  14    7   37 1
  15    7   38 1
  16    8    9 1
  17    8   39 1
  18    8   40 1
  19    9   10 am
  20    9   11 1
  21   10   19 2
  22   11   32 1
  23   11   20 1
  24   11   41 1
  25   13   14 1
  26   13   15 1
  27   14   17 2
  28   14   42 1
  29   15   16 2
  30   15   43 1
  31   16   17 1
  32   17   18 1
  33   18   44 1
  34   18   45 1
  35   18   46 1
  36   20   21 1
  37   20   24 1
  38   20   47 1
  39   21   22 1
  40   21   48 1
  41   21   49 1
  42   22   23 1
  43   22   50 1
  44   22   51 1
  45   23   24 1
  46   23   25 1
  47   23   52 1
  48   25   26 ar
  49   25   27 ar
  50   26   30 ar
  51   26   53 1
  52   27   28 ar
  53   27   33 1
  54   28   29 ar
  55   28   54 1
  56   29   30 ar
  57   29   31 1
  58   30   34 1
  59   32   55 1
  60   32   56 1
  61   32   57 1

#	End of record

