#	Name: ASD01152509
#	Creating user name:	WinNT
#	Creation time:	15. 06. 2019 19:06

#	Modifying user name:	WinNT
#	Modification time:	15. 06. 2019 19:06

#	Program:	/corina/corina34_cracker 3.40 0067  02.08.2006

@<TRIPOS>MOLECULE
ASD01152509
  46   48    0    0    0
SMALL
NO_CHARGES


@<TRIPOS>ATOM
   1 C1             0.1165     1.1519    -0.7094 C.2     
   2 N2             0.0220    -0.1484    -0.6274 N.2     
   3 N3            -1.1175    -0.7676    -0.1142 N.am    
   4 C4            -2.2570    -0.0983     0.1271 C.2     
   5 C5            -2.3864     1.3536    -0.2691 C.3     
   6 C6            -1.0011     1.9717    -0.2170 C.2     
   7 C7            -2.9519     1.4554    -1.6871 C.3     
   8 O8            -0.8261     3.0960     0.2054 O.2     
   9 C9            -1.0721    -2.1394     0.1595 C.ar    
  10 O10           -3.1859    -0.6624     0.6649 O.2     
  11 C11           -3.1931     2.9031    -2.0290 C.ar    
  12 C12           -0.0088    -2.6698     0.8764 C.ar    
  13 C13           -2.0947    -2.9707    -0.2815 C.ar    
  14 C14           -2.0509    -4.3247    -0.0119 C.ar    
  15 C15           -0.9901    -4.8574     0.6972 C.ar    
  16 C16            0.0329    -4.0300     1.1458 C.ar    
  17 C17           -2.1921     3.6485    -2.6231 C.ar    
  18 C18           -2.4115     4.9768    -2.9375 C.ar    
  19 C19           -3.6331     5.5612    -2.6578 C.ar    
  20 C20           -4.6373     4.8142    -2.0626 C.ar    
  21 C21           -4.4173     3.4832    -1.7535 C.ar    
  22 Cl22          -3.9086     7.2294    -3.0515 Cl      
  23 F23           -5.8315     5.3835    -1.7886 F       
  24 Cl24          -0.9393    -6.5597     1.0337 Cl      
  25 N25            1.1035    -4.5686     1.8690 N.am    
  26 C26            1.7669    -3.8052     2.7598 C.2     
  27 O27            1.4972    -2.6278     2.8691 O.2     
  28 C28            2.8438    -4.4146     3.6200 C.3     
  29 O29            1.2264     1.7351    -1.2334 O.3     
  30 C30            2.2665     0.8640    -1.6821 C.3     
  31 H31           -3.0450     1.8695     0.4296 H       
  32 H32           -2.2398     1.0290    -2.3936 H       
  33 H33           -3.8923     0.9072    -1.7434 H       
  34 H34            0.7849    -2.0249     1.2236 H       
  35 H35           -2.9248    -2.5575    -0.8352 H       
  36 H36           -2.8471    -4.9686    -0.3554 H       
  37 H37           -1.2376     3.1929    -2.8415 H       
  38 H38           -1.6285     5.5583    -3.4014 H       
  39 H39           -5.1991     2.9000    -1.2896 H       
  40 H40            1.3680    -5.4913     1.7289 H       
  41 H41            2.9434    -5.4736     3.3818 H       
  42 H42            3.7904    -3.9088     3.4298 H       
  43 H43            2.5766    -4.3021     4.6708 H       
  44 H44            2.6200     0.2597    -0.8466 H       
  45 H45            1.8812     0.2113    -2.4653 H       
  46 H46            3.0919     1.4568    -2.0765 H       
@<TRIPOS>BOND
   1    1    2 2
   2    1   29 1
   3    1    6 1
   4    2    3 1
   5    3    4 am
   6    3    9 1
   7    4    5 1
   8    4   10 2
   9    5    6 1
  10    5    7 1
  11    5   31 1
  12    6    8 2
  13    7   11 1
  14    7   32 1
  15    7   33 1
  16    9   12 ar
  17    9   13 ar
  18   11   17 ar
  19   11   21 ar
  20   12   16 ar
  21   12   34 1
  22   13   14 ar
  23   13   35 1
  24   14   15 ar
  25   14   36 1
  26   15   16 ar
  27   15   24 1
  28   16   25 1
  29   17   18 ar
  30   17   37 1
  31   18   19 ar
  32   18   38 1
  33   19   20 ar
  34   19   22 1
  35   20   21 ar
  36   20   23 1
  37   21   39 1
  38   25   26 am
  39   25   40 1
  40   26   27 2
  41   26   28 1
  42   28   41 1
  43   28   42 1
  44   28   43 1
  45   29   30 1
  46   30   44 1
  47   30   45 1
  48   30   46 1

#	End of record

