#	Name: ASD01917424
#	Creating user name:	WinNT
#	Creation time:	15. 06. 2019 20:09

#	Modifying user name:	WinNT
#	Modification time:	15. 06. 2019 20:09

#	Program:	/corina/corina34_cracker 3.40 0067  02.08.2006

@<TRIPOS>MOLECULE
ASD01917424
  44   46    0    0    0
SMALL
NO_CHARGES


@<TRIPOS>ATOM
   1 C1            -0.0162     1.3436     0.0094 C.2     
   2 N2             0.0021    -0.0041     0.0020 N.am    
   3 O3             1.0277     1.9654     0.0028 O.2     
   4 O4            -1.1912     2.0008     0.0186 O.3     
   5 C5             1.2806    -0.7192    -0.0140 C.3     
   6 C6             2.1379    -0.3674    -1.2424 C.3     
   7 C7             3.5336    -0.9683    -1.0650 C.3     
   8 C8             3.4373    -2.4769    -0.8293 C.3     
   9 C9             2.5241    -2.7379     0.3813 C.3     
  10 C10            2.9388    -1.7496     1.4957 C.3     
  11 C11            2.1357    -0.4383     1.2431 C.3     
  12 C12            1.1037    -2.2607    -0.0211 C.3     
  13 C13            2.5634    -4.1743     0.8355 C.2     
  14 N14            3.7297    -4.7262     1.2250 N.am    
  15 O15            1.5456    -4.8337     0.8505 O.2     
  16 C16           -1.1349     3.4517     0.0262 C.3     
  17 C17           -2.5351     4.0087     0.0359 C.ar    
  18 C18           -3.1717     4.2577     1.2374 C.ar    
  19 C19           -4.4561     4.7686     1.2463 C.ar    
  20 C20           -5.1038     5.0309     0.0536 C.ar    
  21 C21           -4.4670     4.7828    -1.1480 C.ar    
  22 C22           -3.1809     4.2760    -1.1568 C.ar    
  23 H23           -0.8313    -0.5005     0.0073 H       
  24 H24            1.6753    -0.7782    -2.1398 H       
  25 H25            2.2163     0.7159    -1.3342 H       
  26 H26            4.1239    -0.7803    -1.9618 H       
  27 H27            4.0219    -0.5002    -0.2103 H       
  28 H28            3.0180    -2.9580    -1.7129 H       
  29 H29            4.4307    -2.8790    -0.6302 H       
  30 H30            2.6862    -2.1599     2.4734 H       
  31 H31            4.0085    -1.5479     1.4385 H       
  32 H32            2.8186     0.3900     1.0543 H       
  33 H33            1.4908    -0.2071     2.0909 H       
  34 H34            0.3540    -2.5714     0.7066 H       
  35 H35            0.8507    -2.6205    -1.0184 H       
  36 H36            4.5437    -4.1989     1.2130 H       
  37 H37            3.7550    -5.6508     1.5174 H       
  38 H38           -0.6031     3.7900     0.9155 H       
  39 H39           -0.6116     3.7997    -0.8644 H       
  40 H40           -2.6656     4.0527     2.1692 H       
  41 H41           -4.9537     4.9624     2.1850 H       
  42 H42           -6.1076     5.4294     0.0605 H       
  43 H43           -4.9732     4.9875    -2.0798 H       
  44 H44           -2.6820     4.0856    -2.0955 H       
@<TRIPOS>BOND
   1    1    2 am
   2    1    3 2
   3    1    4 1
   4    2    5 1
   5    2   23 1
   6    4   16 1
   7    5    6 1
   8    5   11 1
   9    5   12 1
  10    6    7 1
  11    6   24 1
  12    6   25 1
  13    7    8 1
  14    7   26 1
  15    7   27 1
  16    8    9 1
  17    8   28 1
  18    8   29 1
  19    9   10 1
  20    9   12 1
  21    9   13 1
  22   10   11 1
  23   10   30 1
  24   10   31 1
  25   11   32 1
  26   11   33 1
  27   12   34 1
  28   12   35 1
  29   13   14 am
  30   13   15 2
  31   14   36 1
  32   14   37 1
  33   16   17 1
  34   16   38 1
  35   16   39 1
  36   17   18 ar
  37   17   22 ar
  38   18   19 ar
  39   18   40 1
  40   19   20 ar
  41   19   41 1
  42   20   21 ar
  43   20   42 1
  44   21   22 ar
  45   21   43 1
  46   22   44 1

#	End of record

