#	Name: ASD00311417
#	Creating user name:	WinNT
#	Creation time:	15. 06. 2019 18:34

#	Modifying user name:	WinNT
#	Modification time:	15. 06. 2019 18:34

#	Program:	/corina/corina34_cracker 3.40 0067  02.08.2006

@<TRIPOS>MOLECULE
ASD00311417
  40   43    0    0    0
SMALL
NO_CHARGES


@<TRIPOS>ATOM
   1 C1            -0.0167     1.3780     0.0096 C.2     
   2 C2             0.0021    -0.0041     0.0020 C.2     
   3 C3             1.2588    -0.6765    -0.0136 C.2     
   4 C4             2.4315     0.0675    -0.0208 C.2     
   5 C5             2.3575     1.4754    -0.0125 C.2     
   6 N6             1.1649     2.0907     0.0022 N.am    
   7 C7            -1.3431    -0.5748     0.0118 C.2     
   8 C8            -2.3221     0.3255     0.0260 C.2     
   9 S9            -1.6795     1.9560     0.0358 S.3     
  10 O10            3.3823     2.1375    -0.0187 O.2     
  11 C11            3.7477    -0.6117    -0.0365 C.ar    
  12 C12            4.5934    -0.4742    -1.1370 C.ar    
  13 C13            5.8183    -1.1095    -1.1457 C.ar    
  14 C14            6.2078    -1.8819    -0.0661 C.ar    
  15 C15            5.3733    -2.0220     1.0284 C.ar    
  16 C16            4.1487    -1.3867     1.0516 C.ar    
  17 C17            7.5465    -2.5738    -0.0825 C.3     
  18 O18            1.3089    -2.0290    -0.0209 O.3     
  19 C19           -1.5956    -2.0355     0.0059 C.ar    
  20 C20           -1.2007    -2.8208     1.0943 C.ar    
  21 C21           -1.4404    -4.1841     1.0816 C.ar    
  22 C22           -2.0688    -4.7678    -0.0058 C.ar    
  23 C23           -2.4607    -3.9921    -1.0848 C.ar    
  24 C24           -2.2321    -2.6306    -1.0809 C.ar    
  25 O25           -0.5834    -2.2471     2.1603 O.3     
  26 F26           -2.3001    -6.0988    -0.0147 F       
  27 H27            1.1327     3.0601     0.0073 H       
  28 H28           -3.3746     0.0836     0.0347 H       
  29 H29            4.2901     0.1279    -1.9807 H       
  30 H30            6.4741    -1.0038    -1.9973 H       
  31 H31            5.6828    -2.6266     1.8681 H       
  32 H32            3.5001    -1.4929     1.9086 H       
  33 H33            8.3011    -1.9154     0.3480 H       
  34 H34            7.4884    -3.4915     0.5028 H       
  35 H35            7.8183    -2.8148    -1.1102 H       
  36 H36            2.2062    -2.3893    -0.0314 H       
  37 H37           -1.1368    -4.7932     1.9203 H       
  38 H38           -2.9500    -4.4534    -1.9299 H       
  39 H39           -2.5426    -2.0281    -1.9217 H       
  40 H40           -1.1897    -1.9463     2.8509 H       
@<TRIPOS>BOND
   1    1    2 2
   2    1    6 1
   3    1    9 1
   4    2    3 1
   5    2    7 1
   6    3    4 2
   7    3   18 1
   8    4    5 1
   9    4   11 1
  10    5    6 am
  11    5   10 2
  12    6   27 1
  13    7    8 2
  14    7   19 1
  15    8    9 1
  16    8   28 1
  17   11   12 ar
  18   11   16 ar
  19   12   13 ar
  20   12   29 1
  21   13   14 ar
  22   13   30 1
  23   14   15 ar
  24   14   17 1
  25   15   16 ar
  26   15   31 1
  27   16   32 1
  28   17   33 1
  29   17   34 1
  30   17   35 1
  31   18   36 1
  32   19   20 ar
  33   19   24 ar
  34   20   21 ar
  35   20   25 1
  36   21   22 ar
  37   21   37 1
  38   22   23 ar
  39   22   26 1
  40   23   24 ar
  41   23   38 1
  42   24   39 1
  43   25   40 1

#	End of record

