#	Name: ASD03080080
#	Creating user name:	WinNT
#	Creation time:	15. 06. 2019 20:26

#	Modifying user name:	WinNT
#	Modification time:	15. 06. 2019 20:26

#	Program:	/corina/corina34_cracker 3.40 0067  02.08.2006

@<TRIPOS>MOLECULE
ASD03080080
  40   41    0    0    0
SMALL
NO_CHARGES


@<TRIPOS>ATOM
   1 O1            -0.0173     1.4248     0.0099 O.3     
   2 C2             0.0021    -0.0041     0.0020 C.3     
   3 C3            -1.4333    -0.5336     0.0129 C.3     
   4 C4            -1.4126    -2.0635     0.0045 C.3     
   5 C5            -2.8479    -2.5931     0.0153 C.3     
   6 C6            -2.8280    -4.0649     0.0072 C.1     
   7 C7            -2.8121    -5.2388     0.0008 C.1     
   8 C8            -2.7926    -6.6706    -0.0071 C.ar    
   9 C9            -3.9847    -7.3956     0.0004 C.ar    
  10 N10           -3.9705    -8.7126    -0.0068 N.ar    
  11 C11           -2.8441    -9.3979    -0.0212 C.ar    
  12 C12           -1.6147    -8.7526    -0.0290 C.ar    
  13 C13           -1.5784    -7.3646    -0.0282 C.ar    
  14 O14           -0.4609    -9.4709    -0.0433 O.3     
  15 C15           -0.5832   -10.8947    -0.0498 C.3     
  16 C16            0.8104   -11.5261    -0.0658 C.3     
  17 C17            0.7948   -13.0598    -0.1966 C.3     
  18 C18            1.9101   -13.0630     0.8644 C.3     
  19 N19            1.3809   -11.7457     1.2815 N.4     
  20 H20            0.8606     1.8301     0.0037 H       
  21 H21            0.5123    -0.3556    -0.8948 H       
  22 H22            0.5293    -0.3651     0.8851 H       
  23 H23           -1.9435    -0.1821     0.9097 H       
  24 H24           -1.9605    -0.1726    -0.8702 H       
  25 H25           -0.9024    -2.4150    -0.8923 H       
  26 H26           -0.8854    -2.4246     0.8875 H       
  27 H27           -3.3581    -2.2415     0.9121 H       
  28 H28           -3.3751    -2.2320    -0.8677 H       
  29 H29           -4.9288    -6.8714     0.0125 H       
  30 H30           -2.8783   -10.4773    -0.0266 H       
  31 H31           -0.6373    -6.8348    -0.0345 H       
  32 H32           -1.1180   -11.2175     0.8434 H       
  33 H33           -1.1343   -11.2080    -0.9364 H       
  34 H34            1.4925   -11.0332    -0.7585 H       
  35 H35           -0.1338   -13.5196     0.1416 H       
  36 H36            1.1176   -13.4201    -1.1734 H       
  37 H37            1.7959   -13.8411     1.6192 H       
  38 H38            2.9153   -13.0197     0.4451 H       
  39 H39            2.1074   -11.0853     1.5139 H       
  40 H40            0.6767   -11.8142     2.0009 H       
@<TRIPOS>BOND
   1    1    2 1
   2    1   20 1
   3    2    3 1
   4    2   21 1
   5    2   22 1
   6    3    4 1
   7    3   23 1
   8    3   24 1
   9    4    5 1
  10    4   25 1
  11    4   26 1
  12    5    6 1
  13    5   27 1
  14    5   28 1
  15    6    7 3
  16    7    8 1
  17    8    9 ar
  18    8   13 ar
  19    9   10 ar
  20    9   29 1
  21   10   11 ar
  22   11   12 ar
  23   11   30 1
  24   12   13 ar
  25   12   14 1
  26   13   31 1
  27   14   15 1
  28   15   16 1
  29   15   32 1
  30   15   33 1
  31   16   17 1
  32   16   19 1
  33   16   34 1
  34   17   18 1
  35   17   35 1
  36   17   36 1
  37   18   19 1
  38   18   37 1
  39   18   38 1
  40   19   39 1
  41   19   40 1

#	End of record

