#	Name: ASD03330198
#	Creating user name:	WinNT
#	Creation time:	15. 06. 2019 20:36

#	Modifying user name:	WinNT
#	Modification time:	15. 06. 2019 20:36

#	Program:	/corina/corina34_cracker 3.40 0067  02.08.2006

@<TRIPOS>MOLECULE
ASD03330198
  73   77    0    0    0
SMALL
NO_CHARGES


@<TRIPOS>ATOM
   1 C1            -1.2086     1.5923    -0.3328 C.2     
   2 C2            -1.1697     0.3771     0.2825 C.2     
   3 C3            -0.1709     2.4391    -0.0023 C.2     
   4 C4             0.7283     1.9094     0.8949 C.2     
   5 S5             0.2365     0.2793     1.3324 S.3     
   6 C6             1.9230     2.6042     1.4114 C.ar    
   7 C7             2.8090     3.2271     0.5288 C.ar    
   8 C8             3.9233     3.8750     1.0178 C.ar    
   9 C9             4.1665     3.9094     2.3812 C.ar    
  10 C10            3.2936     3.2941     3.2622 C.ar    
  11 C11            2.1706     2.6471     2.7866 C.ar    
  12 C12           -0.0356     3.8035    -0.5661 C.ar    
  13 C13           -0.0140     3.9896    -1.9478 C.ar    
  14 C14            0.0647     4.9040     0.2841 C.ar    
  15 C15            0.1905     6.1720    -0.2437 C.ar    
  16 C16            0.2170     6.3533    -1.6197 C.ar    
  17 C17            0.1121     5.2603    -2.4690 C.ar    
  18 C18           -2.1558    -0.6908     0.0968 C.2     
  19 O19           -3.3423    -0.4229     0.0537 O.2     
  20 N20           -1.7489    -1.9698    -0.0264 N.am    
  21 Cl21           1.0764     1.8765     3.8923 Cl      
  22 O22            0.3402     7.6042    -2.1366 O.3     
  23 C23            4.1947     6.7162    -5.4205 C.3     
  24 C24           -2.7153    -3.0384    -0.3145 C.3     
  25 C25           -2.2405    -3.8132    -1.5478 C.3     
  26 C26           -0.8098    -4.3051    -1.3167 C.3     
  27 C27            0.1176    -3.1047    -1.1138 C.3     
  28 C28           -0.3297    -2.3211     0.1189 C.3     
  29 C29           -0.7721    -5.1815    -0.0914 C.2     
  30 O30            0.0315    -4.9585     0.7892 O.2     
  31 N31           -1.6313    -6.2132     0.0259 N.am    
  32 Cl32           5.5726     4.7272     2.9878 Cl      
  33 C33           -0.3516    -5.0968    -2.5143 C.ar    
  34 C34            0.9428    -5.5788    -2.5701 C.ar    
  35 C35            1.3632    -6.3050    -3.6686 C.ar    
  36 C36            0.4891    -6.5496    -4.7111 C.ar    
  37 C37           -0.8056    -6.0684    -4.6550 C.ar    
  38 C38           -1.2273    -5.3459    -3.5545 C.ar    
  39 S39            1.7804     8.0414    -2.3629 S.o2    
  40 O40            1.6847     9.4312    -2.6436 O.2     
  41 O41            2.4737     7.5720    -1.2148 O.2     
  42 C42            3.7532     7.4865    -4.1744 C.3     
  43 C43            2.3038     7.1282    -3.8403 C.3     
  44 H44           -1.9876     1.8690    -1.0277 H       
  45 H45            2.6214     3.2007    -0.5345 H       
  46 H46            4.6087     4.3568     0.3362 H       
  47 H47            3.4891     3.3243     4.3240 H       
  48 H48           -0.0956     3.1396    -2.6091 H       
  49 H49            0.0435     4.7638     1.3547 H       
  50 H50            0.2682     7.0249     0.4143 H       
  51 H51            0.1330     5.4047    -3.5391 H       
  52 H52            3.5519     6.9831    -6.2593 H       
  53 H53            5.2274     6.9715    -5.6585 H       
  54 H54            4.1195     5.6454    -5.2313 H       
  55 H55           -2.7789    -3.7134     0.5390 H       
  56 H56           -3.6945    -2.6021    -0.5117 H       
  57 H57           -2.8963    -4.6675    -1.7155 H       
  58 H58           -2.2640    -3.1592    -2.4196 H       
  59 H59            1.1401    -3.4548    -0.9726 H       
  60 H60            0.0719    -2.4575    -1.9896 H       
  61 H61            0.2655    -1.4125     0.2100 H       
  62 H62           -0.2003    -2.9360     1.0095 H       
  63 H63           -2.2230    -6.4376    -0.7092 H       
  64 H64           -1.6580    -6.7314     0.8455 H       
  65 H65            1.6258    -5.3877    -1.7556 H       
  66 H66            2.3747    -6.6810    -3.7125 H       
  67 H67            0.8177    -7.1164    -5.5697 H       
  68 H68           -1.4885    -6.2593    -5.4696 H       
  69 H69           -2.2388    -4.9699    -3.5106 H       
  70 H70            4.3961     7.2197    -3.3356 H       
  71 H71            3.8285     8.5573    -4.3636 H       
  72 H72            2.2286     6.0574    -3.6511 H       
  73 H73            1.6610     7.3950    -4.6791 H       
@<TRIPOS>BOND
   1    1    2 2
   2    1    3 1
   3    1   44 1
   4    2   18 1
   5    2    5 1
   6    3    4 2
   7    3   12 1
   8    4    5 1
   9    4    6 1
  10    6    7 ar
  11    6   11 ar
  12    7    8 ar
  13    7   45 1
  14    8    9 ar
  15    8   46 1
  16    9   10 ar
  17    9   32 1
  18   10   11 ar
  19   10   47 1
  20   11   21 1
  21   12   13 ar
  22   12   14 ar
  23   13   17 ar
  24   13   48 1
  25   14   15 ar
  26   14   49 1
  27   15   16 ar
  28   15   50 1
  29   16   17 ar
  30   16   22 1
  31   17   51 1
  32   18   19 2
  33   18   20 am
  34   20   24 1
  35   20   28 1
  36   22   39 1
  37   23   42 1
  38   23   52 1
  39   23   53 1
  40   23   54 1
  41   24   25 1
  42   24   55 1
  43   24   56 1
  44   25   26 1
  45   25   57 1
  46   25   58 1
  47   26   27 1
  48   26   29 1
  49   26   33 1
  50   27   28 1
  51   27   59 1
  52   27   60 1
  53   28   61 1
  54   28   62 1
  55   29   30 2
  56   29   31 am
  57   31   63 1
  58   31   64 1
  59   33   34 ar
  60   33   38 ar
  61   34   35 ar
  62   34   65 1
  63   35   36 ar
  64   35   66 1
  65   36   37 ar
  66   36   67 1
  67   37   38 ar
  68   37   68 1
  69   38   69 1
  70   39   43 1
  71   39   40 2
  72   39   41 2
  73   42   43 1
  74   42   70 1
  75   42   71 1
  76   43   72 1
  77   43   73 1

#	End of record

