#	Name: ASD01870603
#	Creating user name:	WinNT
#	Creation time:	15. 06. 2019 19:39

#	Modifying user name:	WinNT
#	Modification time:	15. 06. 2019 19:39

#	Program:	/corina/corina34_cracker 3.40 0067  02.08.2006

@<TRIPOS>MOLECULE
ASD01870603
  43   46    0    0    0
SMALL
NO_CHARGES


@<TRIPOS>ATOM
   1 C1            -0.0461     1.4055    -0.0167 C.ar    
   2 C2            -0.0330     0.0194    -0.0272 C.ar    
   3 C3             1.1650    -0.6700    -0.0414 C.ar    
   4 C4             2.3701     0.0151    -0.0453 C.ar    
   5 C5             2.3725     1.4007    -0.0349 C.ar    
   6 C6             1.1507     2.1037    -0.0204 C.ar    
   7 C7             3.4321     2.4312    -0.0346 C.2     
   8 N8             2.8504     3.6441    -0.0209 N.am    
   9 C9             1.5094     3.5376    -0.0123 C.2     
  10 C10            3.5501     4.8601    -0.0165 C.ar    
  11 C11            3.8876     5.4712    -1.2170 C.ar    
  12 C12            4.5764     6.6672    -1.2130 C.ar    
  13 C13            4.9317     7.2599    -0.0080 C.ar    
  14 C14            4.5938     6.6488     1.1924 C.ar    
  15 C15            3.9001     5.4551     1.1879 C.ar    
  16 O16            0.7247     4.4646    -0.0000 O.2     
  17 O17            4.6278     2.2186    -0.0447 O.2     
  18 N18            5.6307     8.4726    -0.0036 N.am    
  19 C19            6.5375     8.7312    -0.9666 C.2     
  20 C20            7.1842    10.0455    -1.0307 C.2     
  21 O21            6.8196     7.8736    -1.7830 O.2     
  22 C22            8.1152    10.4378    -1.9495 C.2     
  23 C23            8.4569    11.7629    -1.6373 C.2     
  24 C24            7.7288    12.1170    -0.5554 C.2     
  25 O25            6.9595    11.0812    -0.1959 O.3     
  26 C26            8.6686     9.6086    -3.0797 C.3     
  27 C27            3.5284     4.7947     2.4905 C.3     
  28 H28           -0.9851     1.9389    -0.0101 H       
  29 H29           -0.9654    -0.5257    -0.0239 H       
  30 H30            1.1621    -1.7500    -0.0491 H       
  31 H31            3.3030    -0.5288    -0.0560 H       
  32 H32            3.6113     5.0103    -2.1538 H       
  33 H33            4.8394     7.1420    -2.1467 H       
  34 H34            4.8702     7.1093     2.1294 H       
  35 H35            5.4624     9.1269     0.6924 H       
  36 H36            9.1683    12.3828    -2.1628 H       
  37 H37            7.7593    13.0782    -0.0640 H       
  38 H38            8.0519     9.7472    -3.9678 H       
  39 H39            9.6902     9.9224    -3.2942 H       
  40 H40            8.6639     8.5566    -2.7946 H       
  41 H41            4.3295     4.1229     2.7989 H       
  42 H42            3.3793     5.5573     3.2549 H       
  43 H43            2.6076     4.2262     2.3599 H       
@<TRIPOS>BOND
   1    1    2 ar
   2    1    6 ar
   3    1   28 1
   4    2    3 ar
   5    2   29 1
   6    3    4 ar
   7    3   30 1
   8    4    5 ar
   9    4   31 1
  10    5    7 1
  11    5    6 ar
  12    6    9 1
  13    7    8 am
  14    7   17 2
  15    8    9 am
  16    8   10 1
  17    9   16 2
  18   10   11 ar
  19   10   15 ar
  20   11   12 ar
  21   11   32 1
  22   12   13 ar
  23   12   33 1
  24   13   14 ar
  25   13   18 1
  26   14   15 ar
  27   14   34 1
  28   15   27 1
  29   18   19 am
  30   18   35 1
  31   19   20 1
  32   19   21 2
  33   20   22 2
  34   20   25 1
  35   22   23 1
  36   22   26 1
  37   23   24 2
  38   23   36 1
  39   24   25 1
  40   24   37 1
  41   26   38 1
  42   26   39 1
  43   26   40 1
  44   27   41 1
  45   27   42 1
  46   27   43 1

#	End of record

