#	Name: ASD01190036
#	Creating user name:	WinNT
#	Creation time:	15. 06. 2019 19:07

#	Modifying user name:	WinNT
#	Modification time:	15. 06. 2019 19:07

#	Program:	/corina/corina34_cracker 3.40 0067  02.08.2006

@<TRIPOS>MOLECULE
ASD01190036
  56   60    0    0    0
SMALL
NO_CHARGES


@<TRIPOS>ATOM
   1 C1            -3.2069     1.1795     1.2576 C.3     
   2 C2            -2.9303    -0.0239     0.3541 C.3     
   3 C3            -1.7369    -0.8091     0.9019 C.3     
   4 O4            -4.2448     1.9770     0.6841 O.3     
   5 O5            -4.0819    -0.8693     0.3208 O.3     
   6 N6            -1.3968    -1.8909    -0.0257 N.pl3   
   7 C7            -1.8394    -3.1817     0.0759 C.2     
   8 C8            -1.3431    -3.9163    -0.9321 C.2     
   9 C9            -0.5149    -3.0229    -1.7456 C.ar    
  10 C10            0.2484    -3.1925    -2.9024 C.ar    
  11 C11            0.9250    -2.1295    -3.4305 C.ar    
  12 C12            0.8598    -0.8814    -2.8262 C.ar    
  13 C13            0.1131    -0.6918    -1.6843 C.ar    
  14 C14           -0.5891    -1.7588    -1.1328 C.ar    
  15 C15           -1.5909    -5.3820    -1.1797 C.3     
  16 C16           -2.5050    -5.9367    -0.0854 C.3     
  17 O17           -2.2160    -5.5508    -2.4536 O.3     
  18 N18            3.2306    -8.2681    -1.3691 N.pl3   
  19 N19            2.9729    -8.9003    -2.5946 N.2     
  20 N20            1.8253    -8.5244    -3.0375 N.2     
  21 C21            1.2544    -7.6526    -2.1820 C.ar    
  22 C22            2.1385    -7.4729    -1.1033 C.ar    
  23 C23            0.0370    -6.9600    -2.1921 C.ar    
  24 C24           -0.2789    -6.1233    -1.1618 C.ar    
  25 C25            0.5949    -5.9465    -0.0970 C.ar    
  26 C26            1.7982    -6.6155    -0.0636 C.ar    
  27 C27            4.3721    -8.4206    -0.5699 C.ar    
  28 C28            5.0089    -9.6521    -0.4951 C.ar    
  29 C29            6.1334    -9.8003     0.2929 C.ar    
  30 C30            6.6258    -8.7216     1.0082 C.ar    
  31 C31            5.9920    -7.4924     0.9349 C.ar    
  32 C32            4.8707    -7.3388     0.1436 C.ar    
  33 F33            7.7256    -8.8686     1.7789 F       
  34 F34           -3.7230    -5.2485    -0.1020 F       
  35 F35           -2.7350    -7.2974    -0.3153 F       
  36 F36           -1.8930    -5.7714     1.1617 F       
  37 H37           -3.5187     0.8307     2.2421 H       
  38 H38           -2.3007     1.7774     1.3541 H       
  39 H39           -2.7049     0.3231    -0.6543 H       
  40 H40           -0.8819    -0.1418     1.0109 H       
  41 H41           -1.9945    -1.2311     1.8733 H       
  42 H42           -4.4731     2.7592     1.2049 H       
  43 H43           -4.3409    -1.2154     1.1858 H       
  44 H44           -2.4913    -3.5543     0.8522 H       
  45 H45            0.3042    -4.1607    -3.3778 H       
  46 H46            1.5156    -2.2614    -4.3251 H       
  47 H47            1.4002    -0.0507    -3.2556 H       
  48 H48            0.0689     0.2829    -1.2214 H       
  49 H49           -1.6916    -5.2207    -3.1959 H       
  50 H50           -0.6512    -7.0885    -3.0145 H       
  51 H51            0.3292    -5.2797     0.7099 H       
  52 H52            2.4742    -6.4749     0.7669 H       
  53 H53            4.6250   -10.4937    -1.0525 H       
  54 H54            6.6288   -10.7582     0.3516 H       
  55 H55            6.3775    -6.6523     1.4935 H       
  56 H56            4.3795    -6.3788     0.0829 H       
@<TRIPOS>BOND
   1    1    2 1
   2    1    4 1
   3    1   37 1
   4    1   38 1
   5    2    3 1
   6    2    5 1
   7    2   39 1
   8    3    6 1
   9    3   40 1
  10    3   41 1
  11    4   42 1
  12    5   43 1
  13    6    7 1
  14    6   14 1
  15    7    8 2
  16    7   44 1
  17    8    9 1
  18    8   15 1
  19    9   10 ar
  20    9   14 ar
  21   10   11 ar
  22   10   45 1
  23   11   12 ar
  24   11   46 1
  25   12   13 ar
  26   12   47 1
  27   13   14 ar
  28   13   48 1
  29   15   16 1
  30   15   17 1
  31   15   24 1
  32   16   34 1
  33   16   35 1
  34   16   36 1
  35   17   49 1
  36   18   19 1
  37   18   22 1
  38   18   27 1
  39   19   20 2
  40   20   21 1
  41   21   22 ar
  42   21   23 ar
  43   22   26 ar
  44   23   24 ar
  45   23   50 1
  46   24   25 ar
  47   25   26 ar
  48   25   51 1
  49   26   52 1
  50   27   28 ar
  51   27   32 ar
  52   28   29 ar
  53   28   53 1
  54   29   30 ar
  55   29   54 1
  56   30   31 ar
  57   30   33 1
  58   31   32 ar
  59   31   55 1
  60   32   56 1

#	End of record

