#	Name: ASD05060082
#	Creating user name:	WinNT
#	Creation time:	15. 06. 2019 20:56

#	Modifying user name:	WinNT
#	Modification time:	15. 06. 2019 20:56

#	Program:	/corina/corina34_cracker 3.40 0067  02.08.2006

@<TRIPOS>MOLECULE
ASD05060082
  45   46    0    0    0
SMALL
NO_CHARGES


@<TRIPOS>ATOM
   1 C1             0.2213     0.8153     0.4959 C.3     
   2 O2             0.4418    -0.5772     0.7289 O.3     
   3 C3             1.5641     1.5141     0.2738 C.3     
   4 C4             1.3492     3.0016    -0.1054 C.3     
   5 O5             0.2515     3.5592     0.6200 O.3     
   6 C6             2.6865     3.6450     0.3352 C.3     
   7 O7             2.4527     4.9147     0.9479 O.3     
   8 C8             3.2650     2.6500     1.3599 C.3     
   9 O9             2.3103     1.5855     1.5077 O.3     
  10 C10            4.5937     2.0899     0.8482 C.3     
  11 O11            5.0397     1.0497     1.7207 O.3     
  12 C12            3.8527     2.4267     3.6728 C.3     
  13 O13            3.4615     3.3042     2.6150 O.3     
  14 C14            4.2418     3.2513     4.9026 C.3     
  15 O15            5.2933     4.1556     4.5582 O.3     
  16 C16            3.0221     4.0437     5.3831 C.3     
  17 O17            2.6195     4.9642     4.3669 O.3     
  18 C18            1.8767     3.0695     5.6750 C.3     
  19 O19            0.7107     3.8033     6.0547 O.3     
  20 C20            1.5790     2.2519     4.4154 C.3     
  21 O21            2.7625     1.5645     4.0046 O.3     
  22 C22            0.4764     1.2347     4.7161 C.3     
  23 O23            0.1173     0.5520     3.5132 O.3     
  24 H24           -0.4044     0.9412    -0.3878 H       
  25 H25           -0.2779     1.2537     1.3600 H       
  26 H26           -0.3681    -1.0841     0.8781 H       
  27 H27            2.1398     1.0010    -0.4966 H       
  28 H28            1.1993     3.1114    -1.1794 H       
  29 H29           -0.5958     3.1274     0.4446 H       
  30 H30            3.3577     3.7516    -0.5170 H       
  31 H31            2.0351     5.5624     0.3638 H       
  32 H32            4.4561     1.6880    -0.1556 H       
  33 H33            5.3376     2.8861     0.8221 H       
  34 H34            5.8786     0.6478     1.4569 H       
  35 H35            4.7053     1.8281     3.3520 H       
  36 H36            4.5799     2.5848     5.6961 H       
  37 H37            6.0969     3.7216     4.2403 H       
  38 H38            3.2772     4.5911     6.2905 H       
  39 H39            3.3003     5.6075     4.1268 H       
  40 H40            2.1655     2.3999     6.4852 H       
  41 H41            0.8290     4.3487     6.8444 H       
  42 H42            1.2508     2.9189     3.6182 H       
  43 H43            0.8376     0.5134     5.4492 H       
  44 H44           -0.3963     1.7519     5.1147 H       
  45 H45           -0.5783    -0.1097     3.6291 H       
@<TRIPOS>BOND
   1    1    2 1
   2    1    3 1
   3    1   24 1
   4    1   25 1
   5    2   26 1
   6    3    4 1
   7    3    9 1
   8    3   27 1
   9    4    5 1
  10    4    6 1
  11    4   28 1
  12    5   29 1
  13    6    7 1
  14    6    8 1
  15    6   30 1
  16    7   31 1
  17    8    9 1
  18    8   10 1
  19    8   13 1
  20   10   11 1
  21   10   32 1
  22   10   33 1
  23   11   34 1
  24   12   13 1
  25   12   14 1
  26   12   21 1
  27   12   35 1
  28   14   15 1
  29   14   16 1
  30   14   36 1
  31   15   37 1
  32   16   17 1
  33   16   18 1
  34   16   38 1
  35   17   39 1
  36   18   19 1
  37   18   20 1
  38   18   40 1
  39   19   41 1
  40   20   21 1
  41   20   22 1
  42   20   42 1
  43   22   23 1
  44   22   43 1
  45   22   44 1
  46   23   45 1

#	End of record

