#	Name: ASD05740112
#	Creating user name:	WinNT
#	Creation time:	15. 06. 2019 21:02

#	Modifying user name:	WinNT
#	Modification time:	15. 06. 2019 21:02

#	Program:	/corina/corina34_cracker 3.40 0067  02.08.2006

@<TRIPOS>MOLECULE
ASD05740112
  46   49    0    0    0
SMALL
NO_CHARGES


@<TRIPOS>ATOM
   1 C1             0.0013     1.5105     0.1556 C.3     
   2 C2             1.2334    -0.6956     0.0695 C.2     
   3 C3             1.2223    -2.0819    -0.0201 C.2     
   4 C4             0.0170     0.0067     0.0593 C.2     
   5 C5            -1.1508    -0.6934    -0.0389 C.2     
   6 C6            -1.1164    -2.0947    -0.1273 C.2     
   7 O7             0.0567    -2.7517    -0.1156 O.3     
   8 C8            -2.4707     0.0338    -0.0518 C.3     
   9 C9            -2.9062     0.2591    -1.4768 C.ar    
  10 C10           -2.6236     1.4545    -2.1254 C.ar    
  11 O11           -2.1591    -2.7208    -0.2146 O.2     
  12 C12           -3.9773    -0.4769    -3.4875 C.ar    
  13 N13           -3.6931     0.6783    -4.0673 N.ar    
  14 C14           -3.0357     1.6296    -3.4305 C.ar    
  15 N15           -4.6721    -1.4520    -4.1964 N.am    
  16 S16           -5.1395    -1.1645    -5.7589 S.o2    
  17 O17           -5.7863    -2.3473    -6.2083 O.2     
  18 O18           -5.7638     0.1120    -5.7625 O.2     
  19 C19            2.5729    -2.4941     0.0149 C.2     
  20 C20            3.3255    -1.3773     0.1210 C.2     
  21 O21            2.5209    -0.3011     0.1589 O.3     
  22 O22            3.0301    -3.7754    -0.0467 O.3     
  23 C23            4.3660    -3.9692    -0.1649 C.2     
  24 N24            4.9576    -5.1198    -0.0982 N.2     
  25 S25            5.5153    -2.7318    -0.4312 S.3     
  26 C26            6.8135    -3.9226    -0.4298 C.2     
  27 C27            6.2710    -5.1257    -0.2358 C.2     
  28 N28           -3.7605    -1.0132    -6.6632 N.am    
  29 C29           -2.8640    -2.1599    -6.8293 C.3     
  30 C30           -3.5920    -0.7228    -2.1712 C.ar    
  31 F31           -3.8831    -1.9027    -1.5811 F       
  32 H32            1.0240     1.8807     0.2263 H       
  33 H33           -0.4752     1.9265    -0.7321 H       
  34 H34           -0.5563     1.8120     1.0423 H       
  35 H35           -3.2200    -0.5641     0.4669 H       
  36 H36           -2.3610     0.9947     0.4509 H       
  37 H37           -2.0869     2.2393    -1.6130 H       
  38 H38           -2.8177     2.5577    -3.9380 H       
  39 H39           -4.8826    -2.3002    -3.7755 H       
  40 H40            4.4041    -1.3532     0.1721 H       
  41 H41            7.8647    -3.7153    -0.5654 H       
  42 H42            6.8584    -6.0309    -0.1929 H       
  43 H43           -3.5463    -0.1653    -7.0828 H       
  44 H44           -2.5043    -2.4844    -5.8529 H       
  45 H45           -3.4041    -2.9770    -7.3075 H       
  46 H46           -2.0166    -1.8714    -7.4512 H       
@<TRIPOS>BOND
   1    1    4 1
   2    1   32 1
   3    1   33 1
   4    1   34 1
   5    2    3 2
   6    2    4 1
   7    2   21 1
   8    3   19 1
   9    3    7 1
  10    4    5 2
  11    5    6 1
  12    5    8 1
  13    6    7 1
  14    6   11 2
  15    8    9 1
  16    8   35 1
  17    8   36 1
  18    9   10 ar
  19    9   30 ar
  20   10   14 ar
  21   10   37 1
  22   12   13 ar
  23   12   15 1
  24   12   30 ar
  25   13   14 ar
  26   14   38 1
  27   15   16 am
  28   15   39 1
  29   16   17 2
  30   16   18 2
  31   16   28 am
  32   19   20 2
  33   19   22 1
  34   20   21 1
  35   20   40 1
  36   22   23 1
  37   23   24 2
  38   23   25 1
  39   24   27 1
  40   25   26 1
  41   26   27 2
  42   26   41 1
  43   27   42 1
  44   28   29 1
  45   28   43 1
  46   29   44 1
  47   29   45 1
  48   29   46 1
  49   30   31 1

#	End of record

