#	Name: ASD08150483
#	Creating user name:	WinNT
#	Creation time:	15. 06. 2019 21:16

#	Modifying user name:	WinNT
#	Modification time:	15. 06. 2019 21:16

#	Program:	/corina/corina34_cracker 3.40 0067  02.08.2006

@<TRIPOS>MOLECULE
ASD08150483
  42   46    0    0    0
SMALL
NO_CHARGES


@<TRIPOS>ATOM
   1 N1             1.0095     3.1236    -1.7060 N.am    
   2 C2             1.4480     2.5144    -2.8247 C.2     
   3 C3             2.6551     1.7863    -2.8264 C.2     
   4 C4             3.3957     1.6887    -1.6931 C.2     
   5 C5             2.9374     2.3284    -0.5143 C.ar    
   6 C6             3.6674     2.2590     0.6877 C.ar    
   7 N7             3.2424     2.8504     1.7735 N.ar    
   8 C8             2.0987     3.5510     1.8083 C.ar    
   9 C9             1.2997     3.6740     0.6449 C.ar    
  10 C10            1.7316     3.0458    -0.5467 C.ar    
  11 C11            0.1088     4.4053     0.6921 C.ar    
  12 C12           -0.2778     5.0035     1.8803 C.ar    
  13 C13            0.5183     4.8779     3.0273 C.ar    
  14 C14            1.6790     4.1698     2.9973 C.ar    
  15 O15            0.7919     2.5935    -3.8492 O.2     
  16 C16           -1.5397     5.7811     1.9390 C.ar    
  17 C17           -0.1903     3.8459    -1.7315 C.ar    
  18 C18           -0.1873     5.2050    -2.0114 C.ar    
  19 N19           -1.3142     5.8897    -2.0367 N.ar    
  20 C20           -2.4802     5.3179    -1.7994 C.ar    
  21 C21           -2.5629     3.9646    -1.5120 C.ar    
  22 C22           -1.4041     3.2085    -1.4818 C.ar    
  23 F23           -3.6074     6.0616    -1.8367 F       
  24 C24           -1.6295     6.9439     2.7089 C.ar    
  25 N25           -2.7707     7.6091     2.7351 N.ar    
  26 C26           -3.8201     7.1869     2.0445 C.ar    
  27 N27           -3.7740     6.0890     1.3035 N.ar    
  28 C28           -2.6670     5.3725     1.2213 C.ar    
  29 N29           -4.9969     7.9124     2.0989 N.pl3   
  30 H30            2.9916     1.3042    -3.7324 H       
  31 H31            4.3208     1.1314    -1.6895 H       
  32 H32            4.5952     1.7068     0.7133 H       
  33 H33           -0.5049     4.5033    -0.1912 H       
  34 H34            0.2057     5.3498     3.9471 H       
  35 H35            2.2799     4.0830     3.8905 H       
  36 H36            0.7478     5.7074    -2.2104 H       
  37 H37           -3.5207     3.5046    -1.3187 H       
  38 H38           -1.4387     2.1519    -1.2608 H       
  39 H39           -0.7785     7.2935     3.2744 H       
  40 H40           -2.6364     4.4791     0.6153 H       
  41 H41           -5.0457     8.7178     2.6372 H       
  42 H42           -5.7732     7.6156     1.5987 H       
@<TRIPOS>BOND
   1    1    2 am
   2    1   10 1
   3    1   17 1
   4    2    3 1
   5    2   15 2
   6    3    4 2
   7    3   30 1
   8    4    5 1
   9    4   31 1
  10    5    6 ar
  11    5   10 ar
  12    6    7 ar
  13    6   32 1
  14    7    8 ar
  15    8    9 ar
  16    8   14 ar
  17    9   10 ar
  18    9   11 ar
  19   11   12 ar
  20   11   33 1
  21   12   13 ar
  22   12   16 1
  23   13   14 ar
  24   13   34 1
  25   14   35 1
  26   16   24 ar
  27   16   28 ar
  28   17   18 ar
  29   17   22 ar
  30   18   19 ar
  31   18   36 1
  32   19   20 ar
  33   20   21 ar
  34   20   23 1
  35   21   22 ar
  36   21   37 1
  37   22   38 1
  38   24   25 ar
  39   24   39 1
  40   25   26 ar
  41   26   27 ar
  42   26   29 1
  43   27   28 ar
  44   28   40 1
  45   29   41 1
  46   29   42 1

#	End of record

