#	Name: ASD01883789
#	Creating user name:	WinNT
#	Creation time:	15. 06. 2019 19:47

#	Modifying user name:	WinNT
#	Modification time:	15. 06. 2019 19:47

#	Program:	/corina/corina34_cracker 3.40 0067  02.08.2006

@<TRIPOS>MOLECULE
ASD01883789
  65   69    0    0    0
SMALL
NO_CHARGES


@<TRIPOS>ATOM
   1 C1            -0.0168     1.3856     0.0097 C.ar    
   2 C2             0.0021    -0.0041     0.0020 C.ar    
   3 C3             1.2157    -0.6846    -0.0128 C.ar    
   4 C4             2.3947     0.0184    -0.0203 C.ar    
   5 C5             2.3848     1.4172    -0.0132 C.ar    
   6 C6             1.1631     2.0958     0.0022 C.ar    
   7 C7             3.8447    -0.3969    -0.0365 C.3     
   8 N8             4.6266     0.8448    -0.0379 N.am    
   9 C9             3.7803     1.8889    -0.0244 C.2     
  10 O10            4.1185     3.0567    -0.0214 O.2     
  11 O11           -1.1642    -0.6979     0.0095 O.3     
  12 C12           -2.3727     0.0646     0.0252 C.3     
  13 C13           -3.5557    -0.8689     0.0315 C.ar    
  14 C14           -4.0846    -1.3018     1.2299 C.ar    
  15 C15           -5.1795    -2.1658     1.2342 C.ar    
  16 C16           -5.7329    -2.5868     0.0256 C.ar    
  17 C17           -5.1950    -2.1470    -1.1668 C.ar    
  18 C18           -4.1127    -1.2857    -1.1645 C.ar    
  19 C19           -5.7520    -2.6347     2.5178 C.ar    
  20 C20           -7.0521    -2.2671     2.8802 C.ar    
  21 C21           -7.5852    -2.7052     4.0780 C.ar    
  22 C22           -6.8259    -3.5142     4.9266 C.ar    
  23 C23           -5.5274    -3.8814     4.5660 C.ar    
  24 C24           -4.9947    -3.4500     3.3656 C.ar    
  25 C25            6.0889     0.9321    -0.0517 C.3     
  26 C26            6.5598     1.6913    -1.3045 C.3     
  27 C27            7.3221     2.9360    -0.8049 C.3     
  28 C28            7.7856     2.5503     0.6218 C.3     
  29 C29            6.5814     1.7418     1.1655 C.3     
  30 C30           -7.3962    -3.9810     6.2059 C.2     
  31 O31           -6.6643    -4.7613     7.0248 O.3     
  32 O32           -8.5254    -3.6615     6.5202 O.2     
  33 O33           -3.7319    -3.8078     3.0149 O.3     
  34 C34           -3.0118    -4.6311     3.9344 C.3     
  35 O35           -7.7905    -1.4796     2.0553 O.3     
  36 C36           -9.1101    -1.1435     2.4889 C.3     
  37 H37           -0.9605     1.9106     0.0170 H       
  38 H38            1.2300    -1.7645    -0.0180 H       
  39 H39            1.1443     3.1757     0.0075 H       
  40 H40            4.0762    -0.9844     0.8519 H       
  41 H41            4.0588    -0.9754    -0.9352 H       
  42 H42           -2.3972     0.6883     0.9188 H       
  43 H43           -2.4142     0.6978    -0.8611 H       
  44 H44           -3.6516    -0.9726     2.1629 H       
  45 H45           -6.5805    -3.2561     0.0227 H       
  46 H46           -5.6226    -2.4727    -2.1035 H       
  47 H47           -3.6954    -0.9439    -2.1002 H       
  48 H48           -8.5890    -2.4215     4.3579 H       
  49 H49           -4.9410    -4.5064     5.2232 H       
  50 H50            6.5225    -0.0678    -0.0361 H       
  51 H51            7.2227     1.0602    -1.8964 H       
  52 H52            5.7004     1.9948    -1.9022 H       
  53 H53            8.1818     3.1386    -1.4435 H       
  54 H54            6.6594     3.8007    -0.7700 H       
  55 H55            8.6811     1.9301     0.5826 H       
  56 H56            7.9573     3.4410     1.2262 H       
  57 H57            5.7991     2.4137     1.5186 H       
  58 H58            6.9006     1.0730     1.9648 H       
  59 H59           -7.0803    -5.0421     7.8514 H       
  60 H60           -2.9150    -4.1120     4.8880 H       
  61 H61           -3.5506    -5.5669     4.0832 H       
  62 H62           -2.0204    -4.8424     3.5335 H       
  63 H63           -9.5889    -0.5126     1.7400 H       
  64 H64           -9.6922    -2.0554     2.6217 H       
  65 H65           -9.0556    -0.6061     3.4357 H       
@<TRIPOS>BOND
   1    1    2 ar
   2    1    6 ar
   3    1   37 1
   4    2    3 ar
   5    2   11 1
   6    3    4 ar
   7    3   38 1
   8    4    5 ar
   9    4    7 1
  10    5    6 ar
  11    5    9 1
  12    6   39 1
  13    7    8 1
  14    7   40 1
  15    7   41 1
  16    8    9 am
  17    8   25 1
  18    9   10 2
  19   11   12 1
  20   12   13 1
  21   12   42 1
  22   12   43 1
  23   13   14 ar
  24   13   18 ar
  25   14   15 ar
  26   14   44 1
  27   15   16 ar
  28   15   19 1
  29   16   17 ar
  30   16   45 1
  31   17   18 ar
  32   17   46 1
  33   18   47 1
  34   19   20 ar
  35   19   24 ar
  36   20   21 ar
  37   20   35 1
  38   21   22 ar
  39   21   48 1
  40   22   23 ar
  41   22   30 1
  42   23   24 ar
  43   23   49 1
  44   24   33 1
  45   25   26 1
  46   25   29 1
  47   25   50 1
  48   26   27 1
  49   26   51 1
  50   26   52 1
  51   27   28 1
  52   27   53 1
  53   27   54 1
  54   28   29 1
  55   28   55 1
  56   28   56 1
  57   29   57 1
  58   29   58 1
  59   30   31 1
  60   30   32 2
  61   31   59 1
  62   33   34 1
  63   34   60 1
  64   34   61 1
  65   34   62 1
  66   35   36 1
  67   36   63 1
  68   36   64 1
  69   36   65 1

#	End of record

