#	Name: ASD07030057
#	Creating user name:	WinNT
#	Creation time:	15. 06. 2019 21:08

#	Modifying user name:	WinNT
#	Modification time:	15. 06. 2019 21:08

#	Program:	/corina/corina34_cracker 3.40 0067  02.08.2006

@<TRIPOS>MOLECULE
ASD07030057
  42   44    0    0    0
SMALL
NO_CHARGES


@<TRIPOS>ATOM
   1 N1            -0.0178     1.4648     0.0101 N.3     
   2 C2             0.0021    -0.0041     0.0020 C.3     
   3 C3            -1.4333    -0.5336     0.0129 C.3     
   4 N4            -1.4134    -2.0025     0.0048 N.3     
   5 C5            -2.7539    -2.5483     0.2527 C.3     
   6 C6            -2.7240    -4.0701     0.0934 C.3     
   7 C7            -1.7196    -4.6627     1.0857 C.3     
   8 C8            -0.3421    -4.0419     0.8377 C.3     
   9 C9            -0.4411    -2.5210     0.9755 C.3     
  10 C10            1.3463     2.0098    -0.0000 C.3     
  11 C11            1.5405     3.4172    -0.5679 C.3     
  12 C12            1.6467     3.1792     0.9398 C.3     
  13 C13            2.8166     3.6940    -1.3203 C.ar    
  14 C14            2.7665     4.0911    -2.6434 C.ar    
  15 C15            3.9371     4.3449    -3.3336 C.ar    
  16 C16            5.1576     4.2020    -2.7005 C.ar    
  17 C17            5.2076     3.8057    -1.3771 C.ar    
  18 C18            4.0369     3.5561    -0.6857 C.ar    
  19 H19           -0.5563     1.8234    -0.7642 H       
  20 H20            0.5123    -0.3556    -0.8948 H       
  21 H21            0.5293    -0.3651     0.8851 H       
  22 H22           -1.9435    -0.1821     0.9097 H       
  23 H23           -1.9605    -0.1726    -0.8702 H       
  24 H24           -3.0674    -2.2953     1.2656 H       
  25 H25           -3.4576    -2.1221    -0.4623 H       
  26 H26           -3.7156    -4.4764     0.2928 H       
  27 H27           -2.4238    -4.3237    -0.9233 H       
  28 H28           -2.0404    -4.4425     2.1039 H       
  29 H29           -1.6632    -5.7422     0.9460 H       
  30 H30            0.3681    -4.4281     1.5688 H       
  31 H31           -0.0045    -4.2950    -0.1673 H       
  32 H32            0.5351    -2.0748     0.7854 H       
  33 H33           -0.7654    -2.2681     1.9849 H       
  34 H34            2.1415     1.2841    -0.1706 H       
  35 H35            0.6561     3.9387    -0.9340 H       
  36 H36            0.8322     3.5441     1.5655 H       
  37 H37            2.6396     3.2228     1.3874 H       
  38 H38            1.8130     4.2028    -3.1380 H       
  39 H39            3.8980     4.6546    -4.3675 H       
  40 H40            6.0721     4.3997    -3.2399 H       
  41 H41            6.1611     3.6938    -0.8826 H       
  42 H42            4.0758     3.2501     0.3493 H       
@<TRIPOS>BOND
   1    1    2 1
   2    1   10 1
   3    1   19 1
   4    2    3 1
   5    2   20 1
   6    2   21 1
   7    3    4 1
   8    3   22 1
   9    3   23 1
  10    4    5 1
  11    4    9 1
  12    5    6 1
  13    5   24 1
  14    5   25 1
  15    6    7 1
  16    6   26 1
  17    6   27 1
  18    7    8 1
  19    7   28 1
  20    7   29 1
  21    8    9 1
  22    8   30 1
  23    8   31 1
  24    9   32 1
  25    9   33 1
  26   10   11 1
  27   10   12 1
  28   10   34 1
  29   11   12 1
  30   11   13 1
  31   11   35 1
  32   12   36 1
  33   12   37 1
  34   13   14 ar
  35   13   18 ar
  36   14   15 ar
  37   14   38 1
  38   15   16 ar
  39   15   39 1
  40   16   17 ar
  41   16   40 1
  42   17   18 ar
  43   17   41 1
  44   18   42 1

#	End of record

