#	Name: ASD01881091
#	Creating user name:	WinNT
#	Creation time:	15. 06. 2019 19:42

#	Modifying user name:	WinNT
#	Modification time:	15. 06. 2019 19:42

#	Program:	/corina/corina34_cracker 3.40 0067  02.08.2006

@<TRIPOS>MOLECULE
ASD01881091
  37   39    0    0    0
SMALL
NO_CHARGES


@<TRIPOS>ATOM
   1 C1            -0.0169     1.3932     0.0097 C.ar    
   2 C2             0.0021    -0.0041     0.0020 C.ar    
   3 C3             1.2068    -0.6955    -0.0128 C.ar    
   4 C4             2.4103     0.0104    -0.0205 C.ar    
   5 C5             2.3983     1.4229    -0.0133 C.ar    
   6 C6             1.1711     2.1131     0.0022 C.ar    
   7 C7             3.7055    -0.6732    -0.0350 C.2     
   8 C8             4.8350     0.0530    -0.0410 C.2     
   9 N9             4.8261     1.4180    -0.0337 N.am    
  10 C10            3.6818     2.1295    -0.0208 C.2     
  11 C11            6.1043     2.1339    -0.0406 C.3     
  12 C12            6.5371     2.3907    -1.4855 C.3     
  13 C13            7.8720     3.1384    -1.4927 C.3     
  14 O14            3.7142     3.3472    -0.0149 O.2     
  15 C15           -1.2766    -0.7563     0.0102 C.ar    
  16 C16           -2.4989    -0.0788     0.0255 C.ar    
  17 C17           -3.6640    -0.8267     0.0322 C.ar    
  18 C18           -3.5819    -2.2070     0.0235 C.ar    
  19 N19           -2.4132    -2.8187     0.0091 N.ar    
  20 C20           -1.2786    -2.1498    -0.0031 C.ar    
  21 C21            1.1479     3.5449     0.0092 C.1     
  22 N22            1.1295     4.6807     0.0147 N.1     
  23 H23           -0.9614     1.9168     0.0170 H       
  24 H24            1.2119    -1.7754    -0.0179 H       
  25 H25            3.7518    -1.7522    -0.0404 H       
  26 H26            5.7846    -0.4613    -0.0517 H       
  27 H27            5.9908     3.0852     0.4792 H       
  28 H28            6.8604     1.5322     0.4637 H       
  29 H29            6.6506     1.4395    -2.0053 H       
  30 H30            5.7810     2.9924    -1.9898 H       
  31 H31            8.6282     2.5367    -0.9884 H       
  32 H32            8.1803     3.3214    -2.5221 H       
  33 H33            7.7585     4.0897    -0.9729 H       
  34 H34           -2.5337     1.0006     0.0324 H       
  35 H35           -4.6267    -0.3373     0.0444 H       
  36 H36           -4.4888    -2.7934     0.0290 H       
  37 H37           -0.3412    -2.6862    -0.0151 H       
@<TRIPOS>BOND
   1    1    2 ar
   2    1    6 ar
   3    1   23 1
   4    2    3 ar
   5    2   15 1
   6    3    4 ar
   7    3   24 1
   8    4    5 ar
   9    4    7 1
  10    5    6 ar
  11    5   10 1
  12    6   21 1
  13    7    8 2
  14    7   25 1
  15    8    9 1
  16    8   26 1
  17    9   10 am
  18    9   11 1
  19   10   14 2
  20   11   12 1
  21   11   27 1
  22   11   28 1
  23   12   13 1
  24   12   29 1
  25   12   30 1
  26   13   31 1
  27   13   32 1
  28   13   33 1
  29   15   16 ar
  30   15   20 ar
  31   16   17 ar
  32   16   34 1
  33   17   18 ar
  34   17   35 1
  35   18   19 ar
  36   18   36 1
  37   19   20 ar
  38   20   37 1
  39   21   22 3

#	End of record

