#	Name: ASD00120022
#	Creating user name:	WinNT
#	Creation time:	15. 06. 2019 18:31

#	Modifying user name:	WinNT
#	Modification time:	15. 06. 2019 18:31

#	Program:	/corina/corina34_cracker 3.40 0067  02.08.2006

@<TRIPOS>MOLECULE
ASD00120022
  34   34    0    0    0
SMALL
NO_CHARGES


@<TRIPOS>ATOM
   1 C1             0.0681     1.4681    -1.3698 C.ar    
   2 C2             0.0716     0.0917    -1.2662 C.ar    
   3 C3             1.0196    -0.5444    -0.4822 C.ar    
   4 C4             1.9695     0.1934     0.2027 C.ar    
   5 C5             1.9784     1.5689     0.1095 C.ar    
   6 C6             1.0249     2.2194    -0.6805 C.ar    
   7 C7             1.0287     3.6874    -0.7857 C.2     
   8 O8             0.2007     4.2482    -1.4714 O.2     
   9 C9             2.0616     4.4935    -0.0412 C.3     
  10 N10            2.0916     5.8623    -0.5737 N.3     
  11 C11            1.7035     4.5325     1.4458 C.3     
  12 C12            3.4711     6.2974    -0.8300 C.3     
  13 C13            4.0909     5.4149    -1.9153 C.3     
  14 C14            3.4678     7.7542    -1.2974 C.3     
  15 C15            4.2913     6.1761     0.4559 C.3     
  16 Cl16          -1.1152    -0.8441    -2.1203 Cl      
  17 H17           -0.6687     1.9631    -1.9850 H       
  18 H18            1.0175    -1.6216    -0.4045 H       
  19 H19            2.7055    -0.3098     0.8121 H       
  20 H20            2.7200     2.1429     0.6452 H       
  21 H21            3.0416     4.0332    -0.1670 H       
  22 H22            1.5277     5.9385    -1.4069 H       
  23 H23            0.7555     5.0540     1.5776 H       
  24 H24            1.6139     3.5144     1.8247 H       
  25 H25            2.4860     5.0568     1.9943 H       
  26 H26            3.4507     5.4203    -2.7975 H       
  27 H27            5.0757     5.8006    -2.1787 H       
  28 H28            4.1877     4.3950    -1.5430 H       
  29 H29            3.0263     8.3829    -0.5242 H       
  30 H30            4.4914     8.0770    -1.4875 H       
  31 H31            2.8835     7.8406    -2.2135 H       
  32 H32            4.3926     5.1246     0.7244 H       
  33 H33            5.2797     6.6079     0.2985 H       
  34 H34            3.7858     6.7096     1.2609 H       
@<TRIPOS>BOND
   1    1    2 ar
   2    1    6 ar
   3    1   17 1
   4    2    3 ar
   5    2   16 1
   6    3    4 ar
   7    3   18 1
   8    4    5 ar
   9    4   19 1
  10    5    6 ar
  11    5   20 1
  12    6    7 1
  13    7    8 2
  14    7    9 1
  15    9   10 1
  16    9   11 1
  17    9   21 1
  18   10   12 1
  19   10   22 1
  20   11   23 1
  21   11   24 1
  22   11   25 1
  23   12   13 1
  24   12   14 1
  25   12   15 1
  26   13   26 1
  27   13   27 1
  28   13   28 1
  29   14   29 1
  30   14   30 1
  31   14   31 1
  32   15   32 1
  33   15   33 1
  34   15   34 1

#	End of record

