#	Name: ASD01810704
#	Creating user name:	WinNT
#	Creation time:	15. 06. 2019 19:25

#	Modifying user name:	WinNT
#	Modification time:	15. 06. 2019 19:25

#	Program:	/corina/corina34_cracker 3.40 0067  02.08.2006

@<TRIPOS>MOLECULE
ASD01810704
  37   37    0    0    0
SMALL
NO_CHARGES


@<TRIPOS>ATOM
   1 N1            -0.0164     1.3618     0.0095 N.am    
   2 N2             0.0021    -0.0041     0.0020 N.3     
   3 C3            -0.8827    -0.7378     2.1661 C.3     
   4 C4             0.3768    -0.5327     1.3204 C.3     
   5 C5             1.0915    -1.8766     1.1487 C.3     
   6 C6             1.4076    -2.4546     2.5316 C.3     
   7 C7             0.1083    -2.5855     3.3306 C.3     
   8 O8            -0.5212    -1.3062     3.4265 O.3     
   9 C9             2.3927    -1.6686     0.3712 C.3     
  10 C10            1.1414     2.0515     0.0022 C.2     
  11 O11            2.2088     1.4544    -0.0112 O.co2   
  12 O12            1.1249     3.2745     0.0089 O.co2   
  13 C13           -1.2950     2.0770     0.0195 C.3     
  14 C14           -2.4443     1.0670     0.0194 C.3     
  15 C15           -1.3820     2.9486     1.2739 C.3     
  16 C16           -1.3939     2.9622    -1.2245 C.3     
  17 H17           -0.8867    -0.3761    -0.2975 H       
  18 H18           -1.3726     0.2224     2.3275 H       
  19 H19           -1.5643    -1.4109     1.6460 H       
  20 H20            1.0410     0.1718     1.8210 H       
  21 H21            0.4461    -2.5659     0.6043 H       
  22 H22            1.8669    -3.4368     2.4196 H       
  23 H23            2.0927    -1.7889     3.0567 H       
  24 H24           -0.5603    -3.2827     2.8256 H       
  25 H25            0.3324    -2.9562     4.3308 H       
  26 H26            3.0379    -0.9822     0.9196 H       
  27 H27            2.9003    -2.6256     0.2498 H       
  28 H28            2.1670    -1.2500    -0.6095 H       
  29 H29           -2.3738     0.4364     0.9057 H       
  30 H30           -3.3956     1.5991     0.0268 H       
  31 H31           -2.3823     0.4461    -0.8742 H       
  32 H32           -0.5632     3.6681     1.2739 H       
  33 H33           -2.3333     3.4807     1.2813 H       
  34 H34           -1.3116     2.3180     2.1601 H       
  35 H35           -1.3319     2.3412    -2.1182 H       
  36 H36           -2.3451     3.4943    -1.2171 H       
  37 H37           -0.5751     3.6817    -1.2245 H       
@<TRIPOS>BOND
   1    1    2 1
   2    1   10 am
   3    1   13 1
   4    2    4 1
   5    2   17 1
   6    3    4 1
   7    3    8 1
   8    3   18 1
   9    3   19 1
  10    4    5 1
  11    4   20 1
  12    5    6 1
  13    5    9 1
  14    5   21 1
  15    6    7 1
  16    6   22 1
  17    6   23 1
  18    7    8 1
  19    7   24 1
  20    7   25 1
  21    9   26 1
  22    9   27 1
  23    9   28 1
  24   10   11 ar
  25   10   12 ar
  26   13   14 1
  27   13   16 1
  28   13   15 1
  29   14   29 1
  30   14   30 1
  31   14   31 1
  32   15   32 1
  33   15   33 1
  34   15   34 1
  35   16   35 1
  36   16   36 1
  37   16   37 1

#	End of record

