#	Name: ASD01916355
#	Creating user name:	WinNT
#	Creation time:	15. 06. 2019 20:07

#	Modifying user name:	WinNT
#	Modification time:	15. 06. 2019 20:07

#	Program:	/corina/corina34_cracker 3.40 0067  02.08.2006

@<TRIPOS>MOLECULE
ASD01916355
  37   39    0    0    0
SMALL
NO_CHARGES


@<TRIPOS>ATOM
   1 C1            -0.0306     1.5478    -0.0186 C.3     
   2 C2            -0.0180     0.0136    -0.0311 C.3     
   3 C3             0.6144    -0.4801    -1.3302 C.3     
   4 C4             1.9757     0.1223    -1.5339 C.ar    
   5 C5             2.3508     1.3159    -0.9070 C.ar    
   6 C6             1.4115     2.0141    -0.0184 C.2     
   7 O7             1.7767     2.9291     0.6891 O.2     
   8 C8             0.7953    -0.4994     1.1590 C.3     
   9 C9            -1.4525    -0.5090     0.0685 C.3     
  10 N10            2.8505    -0.4784    -2.3219 N.ar    
  11 C11            4.0569     0.0384    -2.5170 C.ar    
  12 N12            4.4453     1.1696    -1.9413 N.ar    
  13 C13            3.6328     1.8319    -1.1384 C.ar    
  14 N14            4.9379    -0.6227    -3.3473 N.pl3   
  15 C15            6.1705    -0.0422    -3.6634 C.ar    
  16 C16            7.2928    -0.8422    -3.8347 C.ar    
  17 C17            8.5087    -0.2664    -4.1467 C.ar    
  18 C18            8.6095     1.1065    -4.2882 C.ar    
  19 C19            7.4929     1.9061    -4.1176 C.ar    
  20 C20            6.2732     1.3349    -3.8121 C.ar    
  21 Cl21          10.1395     1.8271    -4.6799 Cl      
  22 H22           -0.5404     1.9211    -0.9068 H       
  23 H23           -0.5360     1.9067     0.8779 H       
  24 H24            0.7057    -1.5656    -1.2933 H       
  25 H25           -0.0272    -0.2046    -2.1673 H       
  26 H26            0.3437    -0.1472     2.0865 H       
  27 H27            0.8043    -1.5893     1.1502 H       
  28 H28            1.8173    -0.1270     1.0882 H       
  29 H29           -2.0321    -0.1435    -0.7792 H       
  30 H30           -1.4436    -1.5989     0.0597 H       
  31 H31           -1.9039    -0.1569     0.9961 H       
  32 H32            3.9494     2.7525    -0.6706 H       
  33 H33            4.7026    -1.4902    -3.7120 H       
  34 H34            7.2149    -1.9137    -3.7236 H       
  35 H35            9.3817    -0.8880    -4.2800 H       
  36 H36            7.5745     2.9773    -4.2280 H       
  37 H37            5.4021     1.9594    -3.6791 H       
@<TRIPOS>BOND
   1    1    2 1
   2    1    6 1
   3    1   22 1
   4    1   23 1
   5    2    3 1
   6    2    8 1
   7    2    9 1
   8    3    4 1
   9    3   24 1
  10    3   25 1
  11    4    5 ar
  12    4   10 ar
  13    5    6 1
  14    5   13 ar
  15    6    7 2
  16    8   26 1
  17    8   27 1
  18    8   28 1
  19    9   29 1
  20    9   30 1
  21    9   31 1
  22   10   11 ar
  23   11   12 ar
  24   11   14 1
  25   12   13 ar
  26   13   32 1
  27   14   15 1
  28   14   33 1
  29   15   16 ar
  30   15   20 ar
  31   16   17 ar
  32   16   34 1
  33   17   18 ar
  34   17   35 1
  35   18   19 ar
  36   18   21 1
  37   19   20 ar
  38   19   36 1
  39   20   37 1

#	End of record

