#	Name: ASD03081158
#	Creating user name:	WinNT
#	Creation time:	15. 06. 2019 20:27

#	Modifying user name:	WinNT
#	Modification time:	15. 06. 2019 20:27

#	Program:	/corina/corina34_cracker 3.40 0067  02.08.2006

@<TRIPOS>MOLECULE
ASD03081158
  30   33    0    0    0
SMALL
NO_CHARGES


@<TRIPOS>ATOM
   1 C1            -0.0162     1.3419     0.0094 C.2     
   2 N2             0.0021    -0.0041     0.0020 N.am    
   3 C3             1.3261    -0.4261    -0.0129 C.ar    
   4 C4             2.1176     0.7274    -0.0143 C.ar    
   5 N5             1.2449     1.8133    -0.0001 N.am    
   6 C6             3.4961     0.6204    -0.0280 C.ar    
   7 C7             4.0924    -0.6416    -0.0405 C.ar    
   8 C8             3.2959    -1.7903    -0.0390 C.ar    
   9 C9             1.9229    -1.6800    -0.0253 C.ar    
  10 S10           -1.4294     2.3081     0.0216 S.2     
  11 O11            6.4501     0.2453    -0.0587 O.3     
  12 N12            7.5792    -0.1969    -0.0727 N.2     
  13 C13            7.5556    -1.5051    -0.0802 C.2     
  14 N14            6.2609    -1.8848    -0.0693 N.2     
  15 C15            5.5642    -0.7632    -0.0557 C.2     
  16 C16            8.5705    -3.7887    -0.1044 C.ar    
  17 C17            8.7357    -2.4055    -0.0974 C.ar    
  18 C18           10.0299    -1.8793    -0.1074 C.ar    
  19 C19           11.0972    -2.7612    -0.1239 C.ar    
  20 C20           10.8503    -4.1216    -0.1299 C.ar    
  21 N21            9.6167    -4.5889    -0.1201 N.ar    
  22 H22           -0.7771    -0.5817     0.0066 H       
  23 H23            1.5018     2.7486     0.0025 H       
  24 H24            4.1089     1.5097    -0.0294 H       
  25 H25            3.7580    -2.7664    -0.0487 H       
  26 H26            1.3101    -2.5694    -0.0242 H       
  27 H27            7.5756    -4.2089    -0.0923 H       
  28 H28           10.1936    -0.8118    -0.1028 H       
  29 H29           12.1115    -2.3904    -0.1323 H       
  30 H30           11.6804    -4.8125    -0.1431 H       
@<TRIPOS>BOND
   1    1    2 am
   2    1    5 am
   3    1   10 2
   4    2    3 1
   5    2   22 1
   6    3    4 ar
   7    3    9 ar
   8    4    5 1
   9    4    6 ar
  10    5   23 1
  11    6    7 ar
  12    6   24 1
  13    7    8 ar
  14    7   15 1
  15    8    9 ar
  16    8   25 1
  17    9   26 1
  18   11   12 1
  19   11   15 1
  20   12   13 2
  21   13   14 1
  22   13   17 1
  23   14   15 2
  24   16   17 ar
  25   16   21 ar
  26   16   27 1
  27   17   18 ar
  28   18   19 ar
  29   18   28 1
  30   19   20 ar
  31   19   29 1
  32   20   21 ar
  33   20   30 1

#	End of record

