#	Name: ASD09740017
#	Creating user name:	WinNT
#	Creation time:	15. 06. 2019 21:22

#	Modifying user name:	WinNT
#	Modification time:	15. 06. 2019 21:22

#	Program:	/corina/corina34_cracker 3.40 0067  02.08.2006

@<TRIPOS>MOLECULE
ASD09740017
  41   43    0    0    0
SMALL
NO_CHARGES


@<TRIPOS>ATOM
   1 N1            -0.0144     1.2085     0.0087 N.2     
   2 O2             0.0021    -0.0041     0.0020 O.3     
   3 C3             1.2060     1.6802    -0.0004 C.2     
   4 N4             2.0461     0.6244    -0.0141 N.2     
   5 C5             1.2702    -0.4440    -0.0125 C.2     
   6 C6             1.7127    -1.8530    -0.0238 C.ar    
   7 C7             1.5947     3.1129     0.0031 C.ar    
   8 C8             0.6148     4.1031     0.0178 C.ar    
   9 C9             0.9818     5.4336     0.0216 C.ar    
  10 C10            2.3197     5.7847     0.0107 C.ar    
  11 C11            3.2966     4.8056    -0.0040 C.ar    
  12 C12            2.9408     3.4720    -0.0024 C.ar    
  13 C13            3.0754    -2.1583    -0.0380 C.ar    
  14 C14            0.7694    -2.8829    -0.0146 C.ar    
  15 C15            1.1885    -4.1997    -0.0248 C.ar    
  16 C16            2.5497    -4.4975    -0.0443 C.ar    
  17 C17            3.4869    -3.4740    -0.0481 C.ar    
  18 O18            2.9603    -5.7926    -0.0543 O.3     
  19 C19            4.3699    -6.0262    -0.0742 C.3     
  20 C20            4.6372    -7.5326    -0.0830 C.3     
  21 O21            0.2726    -5.2050    -0.0153 O.3     
  22 C22           -1.1054    -4.8270     0.0051 C.3     
  23 C23           -1.9787    -6.0832     0.0131 C.3     
  24 H24           -0.4300     3.8300     0.0260 H       
  25 H25            0.2230     6.2020     0.0326 H       
  26 H26            2.6025     6.8270     0.0133 H       
  27 H27            4.3398     5.0851    -0.0128 H       
  28 H28            3.7044     2.7083    -0.0138 H       
  29 H29            3.8068    -1.3637    -0.0414 H       
  30 H30           -0.2852    -2.6507     0.0009 H       
  31 H31            4.5410    -3.7087    -0.0636 H       
  32 H32            4.8003    -5.5756    -0.9686 H       
  33 H33            4.8244    -5.5817     0.8112 H       
  34 H34            5.7124    -7.7108    -0.0982 H       
  35 H35            4.2069    -7.9832     0.8113 H       
  36 H36            4.1827    -7.9771    -0.9684 H       
  37 H37           -1.3074    -4.2383     0.8999 H       
  38 H38           -1.3322    -4.2324    -0.8798 H       
  39 H39           -3.0298    -5.7949     0.0287 H       
  40 H40           -1.7767    -6.6719    -0.8817 H       
  41 H41           -1.7519    -6.6778     0.8980 H       
@<TRIPOS>BOND
   1    1    2 1
   2    1    3 2
   3    2    5 1
   4    3    4 1
   5    3    7 1
   6    4    5 2
   7    5    6 1
   8    6   13 ar
   9    6   14 ar
  10    7    8 ar
  11    7   12 ar
  12    8    9 ar
  13    8   24 1
  14    9   10 ar
  15    9   25 1
  16   10   11 ar
  17   10   26 1
  18   11   12 ar
  19   11   27 1
  20   12   28 1
  21   13   17 ar
  22   13   29 1
  23   14   15 ar
  24   14   30 1
  25   15   16 ar
  26   15   21 1
  27   16   17 ar
  28   16   18 1
  29   17   31 1
  30   18   19 1
  31   19   20 1
  32   19   32 1
  33   19   33 1
  34   20   34 1
  35   20   35 1
  36   20   36 1
  37   21   22 1
  38   22   23 1
  39   22   37 1
  40   22   38 1
  41   23   39 1
  42   23   40 1
  43   23   41 1

#	End of record

