#	Name: ASD00560007
#	Creating user name:	WinNT
#	Creation time:	15. 06. 2019 18:36

#	Modifying user name:	WinNT
#	Modification time:	15. 06. 2019 18:36

#	Program:	/corina/corina34_cracker 3.40 0067  02.08.2006

@<TRIPOS>MOLECULE
ASD00560007
  47   52    0    0    0
SMALL
NO_CHARGES


@<TRIPOS>ATOM
   1 C1            -0.0167     1.3793     0.0096 C.ar    
   2 C2             0.0021    -0.0041     0.0020 C.ar    
   3 C3             1.2045    -0.6805    -0.0131 C.ar    
   4 C4             2.4031     0.0335    -0.0207 C.ar    
   5 C5             2.3774     1.4283    -0.0129 C.ar    
   6 C6             1.1684     2.0930     0.0021 C.ar    
   7 C7             3.6962    -0.6857    -0.0364 C.2     
   8 C8             4.9138    -0.1193    -0.0449 C.2     
   9 N9             5.8600    -1.1279    -0.0580 N.am    
  10 C10            5.2076    -2.3248    -0.0574 C.2     
  11 N11            3.8629    -2.0646    -0.0388 N.pl3   
  12 C12            7.2107    -1.0841    -0.0705 C.2     
  13 C13            7.9240    -2.3013    -0.0829 C.2     
  14 C14            7.2003    -3.5019    -0.0817 C.2     
  15 N15            5.8667    -3.4700    -0.0685 N.2     
  16 N16            9.2405    -2.6256    -0.0970 N.2     
  17 C17            9.3660    -3.9202    -0.1042 C.2     
  18 N18            8.1328    -4.5060    -0.0952 N.pl3   
  19 C19            7.8570    -5.9448    -0.0992 C.3     
  20 C20            7.6185    -6.4321    -1.5505 C.3     
  21 C21            8.7109    -7.4905    -1.7512 C.3     
  22 C22            9.7806    -7.0053    -0.7356 C.3     
  23 O23            9.0038    -6.6683     0.4108 O.3     
  24 O24            9.3396    -7.4615    -3.0361 O.3     
  25 P25           10.7001    -8.3468    -3.2043 P.3     
  26 O26           11.5262    -8.2088    -1.8137 O.3     
  27 C27           10.8201    -8.0937    -0.5549 C.3     
  28 O28            7.8000    -0.0160    -0.0713 O.2     
  29 O29           10.3537    -9.7649    -3.4481 O.2     
  30 O30           11.5802    -7.7762    -4.4258 O.3     
  31 O31            6.3208    -7.0164    -1.6792 O.3     
  32 H32           -0.9605     1.9042     0.0169 H       
  33 H33           -0.9264    -0.5556     0.0083 H       
  34 H34            1.2179    -1.7604    -0.0186 H       
  35 H35            3.3019     1.9866    -0.0187 H       
  36 H36            1.1472     3.1728     0.0078 H       
  37 H37            5.1188     0.9410    -0.0423 H       
  38 H38            3.1531    -2.7257    -0.0336 H       
  39 H39           10.3056    -4.4524    -0.1159 H       
  40 H40            6.9796    -6.1559     0.5121 H       
  41 H41            7.7437    -5.6116    -2.2571 H       
  42 H42            8.3466    -8.4869    -1.5012 H       
  43 H43           10.2691    -6.1103    -1.1209 H       
  44 H44           11.5148    -7.8177     0.2384 H       
  45 H45           10.3327    -9.0382    -0.3131 H       
  46 H46           12.4033    -8.2606    -4.5775 H       
  47 H47            5.5944    -6.4065    -1.4911 H       
@<TRIPOS>BOND
   1    1    2 ar
   2    1    6 ar
   3    1   32 1
   4    2    3 ar
   5    2   33 1
   6    3    4 ar
   7    3   34 1
   8    4    5 ar
   9    4    7 1
  10    5    6 ar
  11    5   35 1
  12    6   36 1
  13    7    8 2
  14    7   11 1
  15    8    9 1
  16    8   37 1
  17    9   10 1
  18    9   12 am
  19   10   11 1
  20   10   15 2
  21   11   38 1
  22   12   13 1
  23   12   28 2
  24   13   14 2
  25   13   16 1
  26   14   15 1
  27   14   18 1
  28   16   17 2
  29   17   18 1
  30   17   39 1
  31   18   19 1
  32   19   20 1
  33   19   23 1
  34   19   40 1
  35   20   21 1
  36   20   31 1
  37   20   41 1
  38   21   22 1
  39   21   24 1
  40   21   42 1
  41   22   23 1
  42   22   27 1
  43   22   43 1
  44   24   25 1
  45   25   26 1
  46   25   29 2
  47   25   30 1
  48   26   27 1
  49   27   44 1
  50   27   45 1
  51   30   46 1
  52   31   47 1

#	End of record

