#	Name: ASD05143092
#	Creating user name:	WinNT
#	Creation time:	15. 06. 2019 20:57

#	Modifying user name:	WinNT
#	Modification time:	15. 06. 2019 20:57

#	Program:	/corina/corina34_cracker 3.40 0067  02.08.2006

@<TRIPOS>MOLECULE
ASD05143092
 147  150    0    0    0
SMALL
NO_CHARGES


@<TRIPOS>ATOM
   1 C1            -1.5864     3.5208    -0.4198 C.2     
   2 C2            -1.7899     2.0899     0.0068 C.3     
   3 N3            -0.3827     4.1063    -0.2622 N.am    
   4 O4            -2.5044     4.1440    -0.9095 O.2     
   5 C5            -0.1849     5.4974    -0.6769 C.3     
   6 C6            -1.1411     6.4027     0.1021 C.3     
   7 C7            -0.4618     5.6258    -2.1527 C.2     
   8 C8            -0.7792     6.3681     1.5883 C.3     
   9 C9            -1.7355     7.2734     2.3673 C.3     
  10 N10           -1.3890     7.2403     3.7903 N.pl3   
  11 C11           -2.1152     7.9815     4.6921 C.2     
  12 N12           -3.1667     8.7539     4.2585 N.pl3   
  13 N13           -1.8069     7.9520     5.9582 N.2     
  14 O14           -1.1238     4.7834    -2.7210 O.2     
  15 N15            0.0263     6.6768    -2.8409 N.am    
  16 C16           -0.2429     6.8016    -4.2756 C.3     
  17 C17           -0.1582     8.2735    -4.6839 C.3     
  18 C18           -0.9401     8.4891    -5.9538 C.2     
  19 N19           -1.6065     9.6631    -6.1294 N.am    
  20 C20           -2.3493     9.8179    -7.3960 C.3     
  21 C21           -2.0902    11.2194    -7.9528 C.3     
  22 C22           -1.5488    11.1093    -9.3796 C.3     
  23 C23           -0.1924    11.8118    -9.4665 C.3     
  24 C24            0.1882    12.0054   -10.9356 C.3     
  25 N25            1.6402    12.2579   -11.0235 N.am    
  26 C26           -0.5640    13.1825   -11.5010 C.2     
  27 N27           -1.8470    13.0394   -11.8884 N.am    
  28 O28           -0.0149    14.2587   -11.6074 O.2     
  29 C29            2.4091    11.2339   -11.4852 C.2     
  30 O30            1.9018    10.1787   -11.8016 O.2     
  31 C31            3.8991    11.4292   -11.5985 C.3     
  32 N32            4.5507    10.0993   -11.6063 N.am    
  33 C33            4.2229    12.1674   -12.8989 C.3     
  34 C34            5.3209     9.8190   -10.5135 C.2     
  35 O35            5.4427    10.6298    -9.6198 O.2     
  36 C36            6.0163     8.4842   -10.4381 C.3     
  37 N37            6.2137     8.1304    -9.0180 N.am    
  38 C38            5.1546     7.4179   -11.1174 C.3     
  39 C39            5.8041     6.8893    -8.6373 C.2     
  40 O40            5.3145     6.1287    -9.4452 O.2     
  41 C41            5.9680     6.4733    -7.1980 C.3     
  42 C42            5.6984    12.4695   -12.9510 C.2     
  43 C43            6.7553    11.5727   -13.4248 C.ar    
  44 C44            7.9606    12.2843   -13.2851 C.ar    
  45 N45            7.6452    13.5192   -12.7643 N.pl3   
  46 C46            6.2930    13.6136   -12.5774 C.2     
  47 C47            6.7686    10.2733   -13.9359 C.ar    
  48 C48            7.9542     9.6991   -14.2982 C.ar    
  49 C49            9.1466    10.3971   -14.1618 C.ar    
  50 C50            9.1563    11.6801   -13.6606 C.ar    
  51 N51            4.8605     5.5566    -6.8430 N.am    
  52 C52            5.9206     7.7092    -6.2974 C.3     
  53 C53            7.0921     8.6040    -6.6104 C.ar    
  54 C54            6.8771     9.8739    -7.1112 C.ar    
  55 C55            7.9528    10.6956    -7.3980 C.ar    
  56 C56            9.2430    10.2452    -7.1833 C.ar    
  57 C57            9.4569     8.9747    -6.6824 C.ar    
  58 C58            8.3818     8.1563    -6.3910 C.ar    
  59 C59            0.7760     6.0050    -5.0488 C.2     
  60 O60            0.4874     5.5117    -6.1185 O.2     
  61 C61            3.7668     7.3975   -10.4735 C.3     
  62 C62            2.8803     6.3873   -11.2046 C.3     
  63 N63            1.5514     6.3678   -10.5882 N.pl3   
  64 C64            0.5780     5.5304   -11.0795 C.2     
  65 N65           -0.6691     5.5121   -10.5009 N.pl3   
  66 N66            0.8373     4.7540   -12.0937 N.2     
  67 N67            2.0250     5.8468    -4.5308 N.am    
  68 C68            2.9738     5.0452    -5.3288 C.3     
  69 C69            4.1195     5.9261    -5.7560 C.2     
  70 O70            4.3789     6.9423    -5.1470 O.2     
  71 C71            2.2634     4.4928    -6.5662 C.3     
  72 C72            1.2109     3.4691    -6.1356 C.3     
  73 C73            0.4176     3.0279    -7.3385 C.2     
  74 O74           -0.9750     7.6287    -6.8079 O.2     
  75 O75            0.6692     3.4870    -8.4325 O.2     
  76 N76           -0.5715     2.1231    -7.1985 N.am    
  77 Cl77           7.6835    12.2908    -8.0277 Cl      
  78 H78           -0.8593     1.6970     0.4164 H       
  79 H79           -2.5693     2.0448     0.7675 H       
  80 H80           -2.0883     1.4927    -0.8548 H       
  81 H81            0.3526     3.6066     0.1258 H       
  82 H82            0.8438     5.7945    -0.4730 H       
  83 H83           -1.0572     7.4243    -0.2686 H       
  84 H84           -2.1641     6.0508    -0.0311 H       
  85 H85           -0.8632     5.3465     1.9589 H       
  86 H86            0.2438     6.7200     1.7214 H       
  87 H87           -1.6516     8.2950     1.9966 H       
  88 H88           -2.7585     6.9215     2.2341 H       
  89 H89           -0.6471     6.6953     4.0963 H       
  90 H90           -3.3961     8.7759     3.3163 H       
  91 H91           -3.6791     9.2769     4.8947 H       
  92 H92           -2.3194     8.4750     6.5945 H       
  93 H93            0.5557     7.3505    -2.3864 H       
  94 H94           -1.2413     6.4216    -4.4922 H       
  95 H95           -0.5745     8.8949    -3.8910 H       
  96 H96            0.8844     8.5453    -4.8487 H       
  97 H97           -1.5937    10.3622    -5.4571 H       
  98 H98           -2.0081     9.0712    -8.1131 H       
  99 H99           -3.4159     9.6895    -7.2119 H       
 100 H100          -3.0217    11.7853    -7.9603 H       
 101 H101          -1.3597    11.7303    -7.3255 H       
 102 H102          -1.4312    10.0582    -9.6434 H       
 103 H103          -2.2473    11.5812   -10.0706 H       
 104 H104          -0.2543    12.7832    -8.9760 H       
 105 H105           0.5645    11.2027    -8.9723 H       
 106 H106          -0.0608    11.1061   -11.4989 H       
 107 H107           2.0263    13.1097   -10.7658 H       
 108 H108          -2.2861    12.1787   -11.8033 H       
 109 H109          -2.3311    13.7971   -12.2523 H       
 110 H110           4.2581    12.0075   -10.7472 H       
 111 H111           4.4381     9.4708   -12.3365 H       
 112 H112           3.9498    11.5425   -13.7492 H       
 113 H113           3.6596    13.0998   -12.9374 H       
 114 H114           6.9836     8.5473   -10.9367 H       
 115 H115           6.6148     8.7503    -8.3890 H       
 116 H116           5.0596     7.6491   -12.1783 H       
 117 H117           5.6245     6.4415   -10.9990 H       
 118 H118           6.9218     5.9612    -7.0714 H       
 119 H119           8.2857    14.2194   -12.5634 H       
 120 H120           5.7807    14.4777   -12.1807 H       
 121 H121           5.8450     9.7241   -14.0442 H       
 122 H122           7.9640     8.6941   -14.6934 H       
 123 H123          10.0758     9.9296   -14.4521 H       
 124 H124          10.0890    12.2149   -13.5586 H       
 125 H125           4.6738     4.7495    -7.3475 H       
 126 H126           4.9918     8.2518    -6.4736 H       
 127 H127           5.9683     7.4000    -5.2533 H       
 128 H128           5.8695    10.2249    -7.2789 H       
 129 H129          10.0831    10.8859    -7.4074 H       
 130 H130          10.4642     8.6229    -6.5147 H       
 131 H131           8.5493     7.1639    -5.9993 H       
 132 H132           3.8566     7.1107    -9.4258 H       
 133 H133           3.3200     8.3893   -10.5418 H       
 134 H134           2.7905     6.6740   -12.2524 H       
 135 H135           3.3271     5.3954   -11.1363 H       
 136 H136           1.3584     6.9456    -9.8334 H       
 137 H137          -0.8621     6.0899    -9.7461 H       
 138 H138          -1.3559     4.9213   -10.8476 H       
 139 H139           0.1505     4.1632   -12.4403 H       
 140 H140           2.2786     6.2408    -3.6814 H       
 141 H141           3.3528     4.2206    -4.7251 H       
 142 H142           1.7785     5.3091    -7.1015 H       
 143 H143           2.9919     4.0122    -7.2192 H       
 144 H144           1.7049     2.6059    -5.6895 H       
 145 H145           0.5410     3.9222    -5.4048 H       
 146 H146          -0.7727     1.7559    -6.3235 H       
 147 H147          -1.0821     1.8391    -7.9728 H       
@<TRIPOS>BOND
   1    1    2 1
   2    1    3 am
   3    1    4 2
   4    2   78 1
   5    2   79 1
   6    2   80 1
   7    3    5 1
   8    3   81 1
   9    5    6 1
  10    5    7 1
  11    5   82 1
  12    6    8 1
  13    6   83 1
  14    6   84 1
  15    7   14 2
  16    7   15 am
  17    8    9 1
  18    8   85 1
  19    8   86 1
  20    9   10 1
  21    9   87 1
  22    9   88 1
  23   10   11 1
  24   10   89 1
  25   11   12 1
  26   11   13 2
  27   12   90 1
  28   12   91 1
  29   13   92 1
  30   15   16 1
  31   15   93 1
  32   16   17 1
  33   16   59 1
  34   16   94 1
  35   17   18 1
  36   17   95 1
  37   17   96 1
  38   18   19 am
  39   18   74 2
  40   19   20 1
  41   19   97 1
  42   20   21 1
  43   20   98 1
  44   20   99 1
  45   21   22 1
  46   21  100 1
  47   21  101 1
  48   22   23 1
  49   22  102 1
  50   22  103 1
  51   23   24 1
  52   23  104 1
  53   23  105 1
  54   24   25 1
  55   24   26 1
  56   24  106 1
  57   25   29 am
  58   25  107 1
  59   26   27 am
  60   26   28 2
  61   27  108 1
  62   27  109 1
  63   29   30 2
  64   29   31 1
  65   31   32 1
  66   31   33 1
  67   31  110 1
  68   32   34 am
  69   32  111 1
  70   33   42 1
  71   33  112 1
  72   33  113 1
  73   34   35 2
  74   34   36 1
  75   36   37 1
  76   36   38 1
  77   36  114 1
  78   37   39 am
  79   37  115 1
  80   38   61 1
  81   38  116 1
  82   38  117 1
  83   39   40 2
  84   39   41 1
  85   41   51 1
  86   41   52 1
  87   41  118 1
  88   42   43 1
  89   42   46 2
  90   43   44 ar
  91   43   47 ar
  92   44   45 1
  93   44   50 ar
  94   45   46 1
  95   45  119 1
  96   46  120 1
  97   47   48 ar
  98   47  121 1
  99   48   49 ar
 100   48  122 1
 101   49   50 ar
 102   49  123 1
 103   50  124 1
 104   51   69 am
 105   51  125 1
 106   52   53 1
 107   52  126 1
 108   52  127 1
 109   53   54 ar
 110   53   58 ar
 111   54   55 ar
 112   54  128 1
 113   55   56 ar
 114   55   77 1
 115   56   57 ar
 116   56  129 1
 117   57   58 ar
 118   57  130 1
 119   58  131 1
 120   59   60 2
 121   59   67 am
 122   61   62 1
 123   61  132 1
 124   61  133 1
 125   62   63 1
 126   62  134 1
 127   62  135 1
 128   63   64 1
 129   63  136 1
 130   64   65 1
 131   64   66 2
 132   65  137 1
 133   65  138 1
 134   66  139 1
 135   67   68 1
 136   67  140 1
 137   68   69 1
 138   68   71 1
 139   68  141 1
 140   69   70 2
 141   71   72 1
 142   71  142 1
 143   71  143 1
 144   72   73 1
 145   72  144 1
 146   72  145 1
 147   73   75 2
 148   73   76 am
 149   76  146 1
 150   76  147 1

#	End of record

