#	Name: ASD01410440
#	Creating user name:	WinNT
#	Creation time:	15. 06. 2019 19:17

#	Modifying user name:	WinNT
#	Modification time:	15. 06. 2019 19:17

#	Program:	/corina/corina34_cracker 3.40 0067  02.08.2006

@<TRIPOS>MOLECULE
ASD01410440
  53   57    0    0    0
SMALL
NO_CHARGES


@<TRIPOS>ATOM
   1 C1            -1.1156     2.9719    -2.5237 C.ar    
   2 C2            -1.4477     2.0976    -3.5574 C.ar    
   3 C3            -2.6320     1.3902    -3.5091 C.ar    
   4 C4            -3.4914     1.5459    -2.4375 C.ar    
   5 C5            -3.1685     2.4149    -1.4043 C.ar    
   6 C6            -1.9789     3.1246    -1.4419 C.ar    
   7 C7            -1.6262     4.0680    -0.3210 C.3     
   8 O8            -4.0166     2.5656    -0.3533 O.3     
   9 C9            -5.2124     1.9210    -0.4007 C.ar    
  10 C10           -5.2697     0.5498    -0.1662 C.ar    
  11 C11           -6.4733    -0.1209    -0.2101 C.ar    
  12 C12           -7.6406     0.5760    -0.4905 C.ar    
  13 C13           -7.5860     1.9618    -0.7279 C.ar    
  14 C14           -6.3666     2.6318    -0.6760 C.ar    
  15 F15           -2.6278     4.0280     0.6549 F       
  16 F16           -0.4067     3.6829     0.2463 F       
  17 F17           -1.5165     5.3690    -0.8235 F       
  18 N18           -8.8705    -0.0516    -0.5461 N.pl3   
  19 C19           -9.9829     0.6509    -0.8210 C.2     
  20 N20           -9.9840     1.9352    -1.0484 N.2     
  21 C21           -8.8500     2.6606    -1.0222 C.2     
  22 O22           -8.8680     3.8605    -1.2366 O.2     
  23 C23           -8.9626    -1.4935    -0.3039 C.3     
  24 C24           -9.3304    -1.7384     1.1369 C.ar    
  25 C25          -10.6576    -1.6997     1.5286 C.ar    
  26 C26          -10.9955    -1.9247     2.8521 C.ar    
  27 C27          -10.0062    -2.1887     3.7838 C.ar    
  28 C28           -8.6791    -2.2282     3.3918 C.ar    
  29 C29           -8.3416    -2.0076     2.0675 C.ar    
  30 F30           -7.0464    -2.0462     1.6850 F       
  31 F31          -10.3358    -2.4073     5.0756 F       
  32 F32          -11.6231    -1.4420     0.6194 F       
  33 C33            0.1569     3.7329    -2.5731 C.ar    
  34 C34            1.0491     3.5199    -3.6219 C.ar    
  35 C35            2.2321     4.2376    -3.6547 C.ar    
  36 C36            2.4842     5.1460    -2.6362 C.ar    
  37 C37            1.5544     5.3071    -1.6259 C.ar    
  38 N38            0.4335     4.6145    -1.6213 N.ar    
  39 H39           -0.7786     1.9739    -4.3962 H       
  40 H40           -2.8881     0.7135    -4.3109 H       
  41 H41           -4.4169     0.9902    -2.4044 H       
  42 H42           -4.3623     0.0062     0.0518 H       
  43 H43           -6.5079    -1.1847    -0.0272 H       
  44 H44           -6.3212     3.6955    -0.8573 H       
  45 H45          -10.9251     0.1243    -0.8558 H       
  46 H46           -9.7268    -1.9227    -0.9520 H       
  47 H47           -8.0010    -1.9599    -0.5177 H       
  48 H48          -12.0308    -1.8938     3.1579 H       
  49 H49           -7.9072    -2.4338     4.1187 H       
  50 H50            0.8210     2.8045    -4.3981 H       
  51 H51            2.9431     4.0937    -4.4547 H       
  52 H52            3.3982     5.7213    -2.6327 H       
  53 H53            1.7477     6.0129    -0.8316 H       
@<TRIPOS>BOND
   1    1    2 ar
   2    1   33 1
   3    1    6 ar
   4    2    3 ar
   5    2   39 1
   6    3    4 ar
   7    3   40 1
   8    4    5 ar
   9    4   41 1
  10    5    6 ar
  11    5    8 1
  12    6    7 1
  13    7   15 1
  14    7   16 1
  15    7   17 1
  16    8    9 1
  17    9   10 ar
  18    9   14 ar
  19   10   11 ar
  20   10   42 1
  21   11   12 ar
  22   11   43 1
  23   12   13 ar
  24   12   18 1
  25   13   14 ar
  26   13   21 1
  27   14   44 1
  28   18   19 1
  29   18   23 1
  30   19   20 2
  31   19   45 1
  32   20   21 1
  33   21   22 2
  34   23   24 1
  35   23   46 1
  36   23   47 1
  37   24   25 ar
  38   24   29 ar
  39   25   26 ar
  40   25   32 1
  41   26   27 ar
  42   26   48 1
  43   27   28 ar
  44   27   31 1
  45   28   29 ar
  46   28   49 1
  47   29   30 1
  48   33   34 ar
  49   33   38 ar
  50   34   35 ar
  51   34   50 1
  52   35   36 ar
  53   35   51 1
  54   36   37 ar
  55   36   52 1
  56   37   38 ar
  57   37   53 1

#	End of record

