#	Name: ASD00061034
#	Creating user name:	WinNT
#	Creation time:	15. 06. 2019 18:29

#	Modifying user name:	WinNT
#	Modification time:	15. 06. 2019 18:29

#	Program:	/corina/corina34_cracker 3.40 0067  02.08.2006

@<TRIPOS>MOLECULE
ASD00061034
  45   46    0    0    0
SMALL
NO_CHARGES


@<TRIPOS>ATOM
   1 C1            -0.4211     3.9408    -0.3676 C.ar    
   2 C2            -0.9384     2.6608    -0.4662 C.ar    
   3 C3            -0.0940     1.5642    -0.4759 C.ar    
   4 C4             1.2707     1.7395    -0.3868 C.ar    
   5 C5             1.8012     3.0297    -0.2869 C.ar    
   6 C6             0.9414     4.1327    -0.2782 C.ar    
   7 C7             3.2566     3.2256    -0.1914 C.2     
   8 C8             3.8241     4.6176    -0.0839 C.3     
   9 O9             3.9992     2.2671    -0.1992 O.2     
  10 C10            5.3348     4.5362     0.1444 C.3     
  11 C11            5.9221     5.9238     0.1186 C.ar    
  12 C12            6.8860     6.2489    -0.8175 C.ar    
  13 C13            7.4251     7.5213    -0.8416 C.ar    
  14 C14            6.9998     8.4698     0.0714 C.ar    
  15 C15            6.0351     8.1439     1.0081 C.ar    
  16 C16            5.4928     6.8728     1.0276 C.ar    
  17 C17           -2.4288     2.4601    -0.5630 C.3     
  18 C18           -2.8502     2.4694    -2.0338 C.3     
  19 Cl19           7.6768    10.0681     0.0422 Cl      
  20 C20            5.6111     3.8906     1.5036 C.3     
  21 C21            7.0922     3.9171     1.7805 C.2     
  22 O22            7.5100     4.4457     2.7835 O.2     
  23 O23            7.9474     3.3535     0.9129 O.3     
  24 C24            4.8851     4.6556     2.5801 C.2     
  25 O25            5.4727     5.4858     3.2322 O.2     
  26 O26            3.5856     4.4146     2.8144 O.3     
  27 H27           -1.0861     4.7918    -0.3652 H       
  28 H28           -0.5052     0.5686    -0.5531 H       
  29 H29            1.9283     0.8828    -0.3938 H       
  30 H30            1.3436     5.1321    -0.2017 H       
  31 H31            3.6249     5.1634    -1.0062 H       
  32 H32            3.3575     5.1365     0.7534 H       
  33 H33            5.7893     3.9347    -0.6428 H       
  34 H34            7.2181     5.5083    -1.5300 H       
  35 H35            8.1783     7.7751    -1.5728 H       
  36 H36            5.7028     8.8840     1.7211 H       
  37 H37            4.7397     6.6183     1.7587 H       
  38 H38           -2.6965     1.5035    -0.1144 H       
  39 H39           -2.9389     3.2650    -0.0338 H       
  40 H40           -2.3401     1.6645    -2.5630 H       
  41 H41           -3.9282     2.3243    -2.1038 H       
  42 H42           -2.5825     3.4261    -2.4824 H       
  43 H43            5.2619     2.8581     1.4932 H       
  44 H44            8.8912     3.4602     1.0946 H       
  45 H45            3.1628     4.9301     3.5148 H       
@<TRIPOS>BOND
   1    1    2 ar
   2    1    6 ar
   3    1   27 1
   4    2    3 ar
   5    2   17 1
   6    3    4 ar
   7    3   28 1
   8    4    5 ar
   9    4   29 1
  10    5    6 ar
  11    5    7 1
  12    6   30 1
  13    7    8 1
  14    7    9 2
  15    8   10 1
  16    8   31 1
  17    8   32 1
  18   10   11 1
  19   10   20 1
  20   10   33 1
  21   11   12 ar
  22   11   16 ar
  23   12   13 ar
  24   12   34 1
  25   13   14 ar
  26   13   35 1
  27   14   15 ar
  28   14   19 1
  29   15   16 ar
  30   15   36 1
  31   16   37 1
  32   17   18 1
  33   17   38 1
  34   17   39 1
  35   18   40 1
  36   18   41 1
  37   18   42 1
  38   20   21 1
  39   20   24 1
  40   20   43 1
  41   21   22 2
  42   21   23 1
  43   23   44 1
  44   24   25 2
  45   24   26 1
  46   26   45 1

#	End of record

