#	Name: ASD03092250
#	Creating user name:	WinNT
#	Creation time:	15. 06. 2019 20:32

#	Modifying user name:	WinNT
#	Modification time:	15. 06. 2019 20:32

#	Program:	/corina/corina34_cracker 3.40 0067  02.08.2006

@<TRIPOS>MOLECULE
ASD03092250
  39   41    0    0    0
SMALL
NO_CHARGES


@<TRIPOS>ATOM
   1 C1            -0.0187     1.5258     0.0104 C.3     
   2 C2             0.0021    -0.0041     0.0020 C.3     
   3 C3            -1.2387    -0.6776    -0.5878 C.3     
   4 C4             1.3513    -0.6911    -0.2180 C.3     
   5 H5             1.3553    -1.6231    -0.7832 H       
   6 N6             2.5244     0.1663    -0.4051 N.am    
   7 C7             3.5961    -0.2957    -1.0793 C.2     
   8 O8             3.5893    -1.4236    -1.5321 O.2     
   9 C9             4.7800     0.5696    -1.2680 C.ar    
  10 C10            4.7933     1.8633    -0.7443 C.ar    
  11 C11            5.9014     2.6654    -0.9236 C.ar    
  12 C12            6.9976     2.1901    -1.6211 C.ar    
  13 C13            6.9907     0.9088    -2.1432 C.ar    
  14 C14            5.8915     0.0943    -1.9657 C.ar    
  15 C15            0.7014    -0.7075     1.1670 C.3     
  16 H16            1.1466    -0.0804     1.9393 H       
  17 C17            0.1156    -2.0110     1.6453 C.ar    
  18 C18            0.0220    -3.0852     0.7802 C.ar    
  19 C19           -0.5151    -4.2810     1.2183 C.ar    
  20 C20           -0.9591    -4.4028     2.5230 C.ar    
  21 Cl21          -1.6333    -5.9046     3.0741 Cl      
  22 C22           -0.8651    -3.3274     3.3883 C.ar    
  23 C23           -0.3226    -2.1339     2.9506 C.ar    
  24 H24            1.0039     1.9031     0.0027 H       
  25 H25           -0.5459     1.8868    -0.8726 H       
  26 H26           -0.5289     1.8773     0.9072 H       
  27 H27           -1.6281    -0.0702    -1.4047 H       
  28 H28           -0.9716    -1.6650    -0.9644 H       
  29 H29           -2.0001    -0.7775     0.1857 H       
  30 H30            2.5299     1.0664    -0.0437 H       
  31 H31            3.9379     2.2357    -0.2002 H       
  32 H32            5.9129     3.6666    -0.5188 H       
  33 H33            7.8624     2.8221    -1.7590 H       
  34 H34            7.8495     0.5439    -2.6870 H       
  35 H35            5.8892    -0.9074    -2.3696 H       
  36 H36            0.3683    -2.9899    -0.2384 H       
  37 H37           -0.5885    -5.1200     0.5422 H       
  38 H38           -1.2118    -3.4218     4.4068 H       
  39 H39           -0.2448    -1.2958     3.6274 H       
@<TRIPOS>BOND
   1    1    2 1
   2    1   24 1
   3    1   25 1
   4    1   26 1
   5    2   15 1
   6    2    3 1
   7    2    4 1
   8    3   27 1
   9    3   28 1
  10    3   29 1
  11    4    5 1
  12    4    6 1
  13    4   15 1
  14    6    7 am
  15    6   30 1
  16    7    8 2
  17    7    9 1
  18    9   14 ar
  19    9   10 ar
  20   10   11 ar
  21   10   31 1
  22   11   12 ar
  23   11   32 1
  24   12   13 ar
  25   12   33 1
  26   13   14 ar
  27   13   34 1
  28   14   35 1
  29   15   16 1
  30   15   17 1
  31   17   23 ar
  32   17   18 ar
  33   18   19 ar
  34   18   36 1
  35   19   20 ar
  36   19   37 1
  37   20   21 1
  38   20   22 ar
  39   22   23 ar
  40   22   38 1
  41   23   39 1

#	End of record

