#	Name: ASD01914381
#	Creating user name:	WinNT
#	Creation time:	15. 06. 2019 20:03

#	Modifying user name:	WinNT
#	Modification time:	15. 06. 2019 20:03

#	Program:	/corina/corina34_cracker 3.40 0067  02.08.2006

@<TRIPOS>MOLECULE
ASD01914381
  47   48    0    0    0
SMALL
NO_CHARGES


@<TRIPOS>ATOM
   1 C1             0.8760     0.4511     1.9769 C.ar    
   2 C2             0.0384     0.1321     0.9213 C.ar    
   3 C3             0.3854     0.4857    -0.3717 C.ar    
   4 C4             1.5681     1.1576    -0.6111 C.ar    
   5 C5             2.4094     1.4784     0.4459 C.ar    
   6 C6             2.0596     1.1228     1.7418 C.ar    
   7 N7             3.6090     2.1595     0.2054 N.am    
   8 C8             3.6141     3.6210     0.1050 C.3     
   9 C9             3.8422     4.2176     1.4699 C.2     
  10 C10            3.8900     5.6792     1.6356 C.ar    
  11 C11            3.7242     6.5173     0.5285 C.ar    
  12 C12            3.7693     7.8866     0.6888 C.ar    
  13 C13            3.9782     8.4346     1.9411 C.ar    
  14 C14            4.1441     7.6113     3.0474 C.ar    
  15 C15            4.0957     6.2360     2.9014 C.ar    
  16 O16            3.9864     3.4934     2.4317 O.2     
  17 F17           -1.1188    -0.5255     1.1533 F       
  18 C18            4.7590     1.4705     0.0663 C.2     
  19 O19            5.7808     2.0504    -0.2348 O.2     
  20 C20            4.7752    -0.0205     0.2850 C.3     
  21 C21            6.1950    -0.5219     0.2224 C.2     
  22 O22            7.1007     0.2520     0.0208 O.2     
  23 O23            6.4533    -1.8284     0.3905 O.3     
  24 C24            7.8438    -2.2401     0.3173 C.3     
  25 C25            7.9400    -3.7519     0.5314 C.3     
  26 O26            4.3494     8.1569     4.2751 O.3     
  27 C27            4.3827     9.5834     4.3538 C.3     
  28 H28            0.6014     0.1783     2.9851 H       
  29 H29           -0.2691     0.2357    -1.1937 H       
  30 H30            1.8386     1.4329    -1.6198 H       
  31 H31            2.7124     1.3718     2.5653 H       
  32 H32            4.4121     3.9363    -0.5673 H       
  33 H33            2.6548     3.9617    -0.2848 H       
  34 H34            3.5613     6.0928    -0.4511 H       
  35 H35            3.6415     8.5330    -0.1669 H       
  36 H36            4.0127     9.5075     2.0595 H       
  37 H37            4.2247     5.5949     3.7609 H       
  38 H38            4.3521    -0.2488     1.2632 H       
  39 H39            4.1832    -0.5078    -0.4897 H       
  40 H40            8.2471    -1.9855    -0.6628 H       
  41 H41            8.4159    -1.7266     1.0901 H       
  42 H42            7.5368    -4.0065     1.5116 H       
  43 H43            7.3679    -4.2654    -0.2413 H       
  44 H44            8.9838    -4.0610     0.4765 H       
  45 H45            5.1888     9.9631     3.7260 H       
  46 H46            3.4316     9.9886     4.0085 H       
  47 H47            4.5532     9.8864     5.3868 H       
@<TRIPOS>BOND
   1    1    2 ar
   2    1    6 ar
   3    1   28 1
   4    2    3 ar
   5    2   17 1
   6    3    4 ar
   7    3   29 1
   8    4    5 ar
   9    4   30 1
  10    5    6 ar
  11    5    7 1
  12    6   31 1
  13    7    8 1
  14    7   18 am
  15    8    9 1
  16    8   32 1
  17    8   33 1
  18    9   10 1
  19    9   16 2
  20   10   11 ar
  21   10   15 ar
  22   11   12 ar
  23   11   34 1
  24   12   13 ar
  25   12   35 1
  26   13   14 ar
  27   13   36 1
  28   14   15 ar
  29   14   26 1
  30   15   37 1
  31   18   19 2
  32   18   20 1
  33   20   21 1
  34   20   38 1
  35   20   39 1
  36   21   22 2
  37   21   23 1
  38   23   24 1
  39   24   25 1
  40   24   40 1
  41   24   41 1
  42   25   42 1
  43   25   43 1
  44   25   44 1
  45   26   27 1
  46   27   45 1
  47   27   46 1
  48   27   47 1

#	End of record

