#	Name: ASD02030303
#	Creating user name:	WinNT
#	Creation time:	15. 06. 2019 20:15

#	Modifying user name:	WinNT
#	Modification time:	15. 06. 2019 20:15

#	Program:	/corina/corina34_cracker 3.40 0067  02.08.2006

@<TRIPOS>MOLECULE
ASD02030303
  56   59    0    0    0
SMALL
NO_CHARGES


@<TRIPOS>ATOM
   1 N1            -0.2108     1.4225    -0.1410 N.am    
   2 C2            -0.0194    -0.0107     0.1216 C.3     
   3 C3            -0.9158    -0.4175     1.2978 C.3     
   4 N4            -2.2752     0.0812     1.0465 N.am    
   5 C5            -2.4666     1.5145     0.7839 C.3     
   6 C6            -1.5709     1.9221    -0.3867 C.3     
   7 C7             0.8415     2.2646    -0.1507 C.2     
   8 C8             2.1843     1.7740     0.2254 C.2     
   9 N9             3.2624     2.5120     0.3800 N.2     
  10 N10            2.5180     0.4946     0.4758 N.2     
  11 C11            3.7924     0.4761     0.7730 C.2     
  12 N12            4.2444     1.7454     0.7090 N.pl3   
  13 C13            5.5599     2.1600     0.9574 C.ar    
  14 O14            0.6863     3.4276    -0.4688 O.2     
  15 C15           -3.3275    -0.7609     1.0563 C.2     
  16 C16           -4.7001    -0.2306     0.9120 C.ar    
  17 O17           -3.1480    -1.9563     1.1837 O.2     
  18 C18            5.8965     3.5033     0.8570 C.ar    
  19 C19            7.1938     3.9089     1.1024 C.ar    
  20 C20            8.1569     2.9786     1.4476 C.ar    
  21 C21            7.8248     1.6400     1.5479 C.ar    
  22 C22            6.5279     1.2291     1.3098 C.ar    
  23 C23           -5.6704    -0.9731     0.2375 C.ar    
  24 C24           -1.5455     3.4472    -0.5070 C.3     
  25 C25           -6.9506    -0.4751     0.1046 C.ar    
  26 C26           -7.2760     0.7581     0.6379 C.ar    
  27 C27           -6.3172     1.5043     1.3102 C.ar    
  28 C28           -5.0315     1.0114     1.4546 C.ar    
  29 O29           -6.6425     2.7165     1.8316 O.3     
  30 C30           -5.6069     3.4298     2.5104 C.3     
  31 C31           -8.6762     1.2949     0.4885 C.3     
  32 H32           -0.2942    -0.5847    -0.7633 H       
  33 H33            1.0239    -0.2002     0.3742 H       
  34 H34           -0.9348    -1.5038     1.3846 H       
  35 H35           -0.5306     0.0189     2.2193 H       
  36 H36           -3.5099     1.7039     0.5313 H       
  37 H37           -2.1918     2.0884     1.6688 H       
  38 H38           -1.9539     1.4862    -1.3095 H       
  39 H39            4.3758    -0.3968     1.0260 H       
  40 H40            5.1448     4.2303     0.5871 H       
  41 H41            7.4564     4.9535     1.0241 H       
  42 H42            9.1707     3.2981     1.6390 H       
  43 H43            8.5794     0.9157     1.8171 H       
  44 H44            6.2691     0.1835     1.3884 H       
  45 H45           -5.4195    -1.9368    -0.1806 H       
  46 H46           -1.0494     3.8722     0.3656 H       
  47 H47           -1.0023     3.7315    -1.4082 H       
  48 H48           -2.5666     3.8242    -0.5640 H       
  49 H49           -7.7005    -1.0505    -0.4178 H       
  50 H50           -4.2849     1.5905     1.9777 H       
  51 H51           -5.2477     2.8362     3.3511 H       
  52 H52           -4.7839     3.6187     1.8212 H       
  53 H53           -5.9991     4.3785     2.8768 H       
  54 H54           -9.2815     0.9719     1.3355 H       
  55 H55           -8.6465     2.3840     0.4575 H       
  56 H56           -9.1136     0.9170    -0.4356 H       
@<TRIPOS>BOND
   1    1    2 1
   2    1    7 am
   3    1    6 1
   4    2    3 1
   5    2   32 1
   6    2   33 1
   7    3    4 1
   8    3   34 1
   9    3   35 1
  10    4    5 1
  11    4   15 am
  12    5    6 1
  13    5   36 1
  14    5   37 1
  15    6   24 1
  16    6   38 1
  17    7    8 1
  18    7   14 2
  19    8    9 2
  20    8   10 1
  21    9   12 1
  22   10   11 2
  23   11   12 1
  24   11   39 1
  25   12   13 1
  26   13   18 ar
  27   13   22 ar
  28   15   16 1
  29   15   17 2
  30   16   23 ar
  31   16   28 ar
  32   18   19 ar
  33   18   40 1
  34   19   20 ar
  35   19   41 1
  36   20   21 ar
  37   20   42 1
  38   21   22 ar
  39   21   43 1
  40   22   44 1
  41   23   25 ar
  42   23   45 1
  43   24   46 1
  44   24   47 1
  45   24   48 1
  46   25   26 ar
  47   25   49 1
  48   26   27 ar
  49   26   31 1
  50   27   28 ar
  51   27   29 1
  52   28   50 1
  53   29   30 1
  54   30   51 1
  55   30   52 1
  56   30   53 1
  57   31   54 1
  58   31   55 1
  59   31   56 1

#	End of record

