#	Name: ASD01478064
#	Creating user name:	WinNT
#	Creation time:	15. 06. 2019 19:21

#	Modifying user name:	WinNT
#	Modification time:	15. 06. 2019 19:21

#	Program:	/corina/corina34_cracker 3.40 0067  02.08.2006

@<TRIPOS>MOLECULE
ASD01478064
  20   20    0    0    0
SMALL
NO_CHARGES


@<TRIPOS>ATOM
   1 O1            -0.0175     1.4381     0.0099 O.3     
   2 C2             0.0021    -0.0041     0.0020 C.3     
   3 C3             0.1712    -0.5436    -1.3439 C.3     
   4 C4             1.4934    -0.0745    -1.9854 C.3     
   5 C5             1.3145     1.3376    -2.4677 C.3     
   6 C6             1.7313     2.3913    -1.4160 C.3     
   7 C7             1.2694     1.9883     0.0006 C.3     
   8 O8             1.8184    -0.9215    -3.0895 O.3     
   9 H9             0.8242    -0.3505     0.6282 H       
  10 H10           -0.9362    -0.3732     0.4162 H       
  11 H11            0.1674    -1.6325    -1.2933 H       
  12 H12           -0.6617    -0.2152    -1.9657 H       
  13 H13            2.2925    -0.1101    -1.2450 H       
  14 H14            1.9159     1.4807    -3.3655 H       
  15 H15            0.2658     1.4914    -2.7223 H       
  16 H16            2.8167     2.4909    -1.4220 H       
  17 H17            1.2851     3.3510    -1.6768 H       
  18 H18            1.2796     2.8716     0.6392 H       
  19 H19            1.9687     1.2561     0.4043 H       
  20 H20            1.9329    -1.8517    -2.8512 H       
@<TRIPOS>BOND
   1    1    2 1
   2    1    7 1
   3    2    3 1
   4    2    9 1
   5    2   10 1
   6    3    4 1
   7    3   11 1
   8    3   12 1
   9    4    5 1
  10    4    8 1
  11    4   13 1
  12    5    6 1
  13    5   14 1
  14    5   15 1
  15    6    7 1
  16    6   16 1
  17    6   17 1
  18    7   18 1
  19    7   19 1
  20    8   20 1

#	End of record

