#	Name: ASD03092424
#	Creating user name:	WinNT
#	Creation time:	15. 06. 2019 20:32

#	Modifying user name:	WinNT
#	Modification time:	15. 06. 2019 20:32

#	Program:	/corina/corina34_cracker 3.40 0067  02.08.2006

@<TRIPOS>MOLECULE
ASD03092424
  61   65    0    0    0
SMALL
NO_CHARGES


@<TRIPOS>ATOM
   1 O1             0.9167     1.2230    -0.3538 O.3     
   2 N2             0.7523    -0.1791    -0.2850 N.2     
   3 C3             1.9229    -0.7560    -0.2405 C.2     
   4 C4             2.9356     0.3114    -0.2812 C.ar    
   5 C5             4.3305     0.3176    -0.2640 C.ar    
   6 C6             5.0055     1.5047    -0.3158 C.ar    
   7 C7             4.3134     2.7056    -0.3856 C.ar    
   8 C8             2.9358     2.7207    -0.4037 C.ar    
   9 C9             2.2310     1.5233    -0.3517 C.ar    
  10 C10            2.1831    -2.2129    -0.1630 C.2     
  11 O11            3.3256    -2.6249    -0.1269 O.2     
  12 N12            1.1524    -3.0809    -0.1327 N.am    
  13 C13            1.4097    -4.5211    -0.0561 C.3     
  14 S14           -1.9946    -6.4888     0.6769 S.3     
  15 C15           -1.6780    -6.2238    -0.9819 C.2     
  16 N16           -0.5584    -5.5815    -1.1301 N.2     
  17 C17            0.0993    -5.2650    -0.0358 C.2     
  18 C18           -0.4988    -5.6630     1.1066 C.2     
  19 C19            0.5404    -6.2453     4.6682 C.ar    
  20 C20            0.0568    -6.4940     3.4020 C.ar    
  21 C21            0.0101    -5.4445     2.4746 C.ar    
  22 C22            0.4607    -4.1819     2.8825 C.ar    
  23 C23            0.9281    -4.0232     4.1691 C.ar    
  24 N24            0.9551    -5.0397     5.0111 N.ar    
  25 C25            1.4157    -2.6708     4.6211 C.3     
  26 C26            0.5904    -7.3633     5.6775 C.3     
  27 N27           -2.4964    -6.6348    -2.0182 N.3     
  28 C28           -3.6838    -7.3342    -1.5061 C.3     
  29 C29           -4.5296    -7.8229    -2.6850 C.3     
  30 O30           -4.8727    -6.7086    -3.5133 O.3     
  31 C31           -3.7400    -6.0047    -4.0298 C.3     
  32 C32           -2.8862    -5.4976    -2.8645 C.3     
  33 C33           -4.2156    -4.8173    -4.8692 C.3     
  34 C34           -5.8067    -8.4812    -2.1594 C.3     
  35 H35            4.8755    -0.6133    -0.2094 H       
  36 H36            6.0854     1.5084    -0.3020 H       
  37 H37            4.8594     3.6366    -0.4257 H       
  38 H38            2.4050     3.6597    -0.4585 H       
  39 H39            0.2404    -2.7520    -0.1616 H       
  40 H40            1.9911    -4.8330    -0.9237 H       
  41 H41            1.9674    -4.7426     0.8538 H       
  42 H42           -0.2804    -7.4829     3.1284 H       
  43 H43            0.4422    -3.3459     2.1989 H       
  44 H44            0.5843    -2.1081     5.0457 H       
  45 H45            2.1915    -2.7980     5.3761 H       
  46 H46            1.8239    -2.1282     3.7685 H       
  47 H47            1.5504    -7.8745     5.6062 H       
  48 H48            0.4707    -6.9531     6.6803 H       
  49 H49           -0.2139    -8.0709     5.4760 H       
  50 H50           -3.3721    -8.1873    -0.9035 H       
  51 H51           -4.2728    -6.6512    -0.8940 H       
  52 H52           -3.9591    -8.5468    -3.2669 H       
  53 H53           -3.1466    -6.6758    -4.6507 H       
  54 H54           -3.4625    -4.7853    -2.2741 H       
  55 H55           -1.9923    -5.0101    -3.2534 H       
  56 H56           -4.8072    -4.1460    -4.2468 H       
  57 H57           -3.3519    -4.2813    -5.2626 H       
  58 H58           -4.8265    -5.1787    -5.6964 H       
  59 H59           -6.3772    -7.7558    -1.5794 H       
  60 H60           -6.4084    -8.8289    -2.9991 H       
  61 H61           -5.5445    -9.3280    -1.5251 H       
@<TRIPOS>BOND
   1    1    2 1
   2    1    9 1
   3    2    3 2
   4    3    4 1
   5    3   10 1
   6    4    5 ar
   7    4    9 ar
   8    5    6 ar
   9    5   35 1
  10    6    7 ar
  11    6   36 1
  12    7    8 ar
  13    7   37 1
  14    8    9 ar
  15    8   38 1
  16   10   11 2
  17   10   12 am
  18   12   13 1
  19   12   39 1
  20   13   17 1
  21   13   40 1
  22   13   41 1
  23   14   15 1
  24   14   18 1
  25   15   16 2
  26   15   27 1
  27   16   17 1
  28   17   18 2
  29   18   21 1
  30   19   20 ar
  31   19   24 ar
  32   19   26 1
  33   20   21 ar
  34   20   42 1
  35   21   22 ar
  36   22   23 ar
  37   22   43 1
  38   23   24 ar
  39   23   25 1
  40   25   44 1
  41   25   45 1
  42   25   46 1
  43   26   47 1
  44   26   48 1
  45   26   49 1
  46   27   28 1
  47   27   32 1
  48   28   29 1
  49   28   50 1
  50   28   51 1
  51   29   30 1
  52   29   34 1
  53   29   52 1
  54   30   31 1
  55   31   32 1
  56   31   33 1
  57   31   53 1
  58   32   54 1
  59   32   55 1
  60   33   56 1
  61   33   57 1
  62   33   58 1
  63   34   59 1
  64   34   60 1
  65   34   61 1

#	End of record

