#	Name: ASD08170092
#	Creating user name:	WinNT
#	Creation time:	15. 06. 2019 21:17

#	Modifying user name:	WinNT
#	Modification time:	15. 06. 2019 21:17

#	Program:	/corina/corina34_cracker 3.40 0067  02.08.2006

@<TRIPOS>MOLECULE
ASD08170092
  54   53    0    0    0
SMALL
NO_CHARGES


@<TRIPOS>ATOM
   1 Cl1            0.0000     0.0000     0.0000 Cl      
   2 H2             0.0000     1.3700     0.0000 H       
   3 Cl3            5.0000     6.3700     5.0000 Cl      
   4 H4             5.0000     7.7400     5.0000 H       
   5 N5            11.5773    27.9604    13.6593 N.2     
   6 N6            11.5944    26.6981    13.6524 N.2     
   7 C7            12.7194    28.5790    13.6517 C.2     
   8 S8            13.9749    27.4137    13.6335 S.3     
   9 C9            12.7605    26.1344    13.6382 C.2     
  10 C10           13.0310    24.6519    13.6287 C.3     
  11 C11           13.1097    24.1572    12.1830 C.3     
  12 C12           13.4630    22.1573    10.7276 C.3     
  13 C13           13.7336    20.6748    10.7180 C.2     
  14 N14           12.8418    19.7355    10.7210 N.2     
  15 S15           15.3215    19.9072    10.6930 S.3     
  16 C16           14.5587    18.3733    10.6976 C.2     
  17 N17           13.2717    18.5485    10.7116 N.2     
  18 N18           15.2094    17.1443    10.6830 N.am    
  19 C19           14.4933    16.0025    10.6885 C.2     
  20 O20           13.2814    16.0469    10.7062 O.2     
  21 C21           15.1985    14.6708    10.6728 C.3     
  22 N22           12.8940    29.9588    13.6575 N.am    
  23 C23           11.8207    30.7738    13.6726 C.2     
  24 C24           12.0100    32.2689    13.6788 C.3     
  25 O25           10.7026    30.3040    13.6812 O.2     
  26 C26           13.3844    22.6521    12.1733 C.3     
  27 C27           15.6789    14.3313    12.0852 C.3     
  28 C28           12.3367    32.7357    15.0988 C.3     
  29 O29           12.6303    34.1341    15.0847 O.3     
  30 O30           16.4475    13.1271    12.0503 O.3     
  31 N31           14.2707    13.6310    10.2080 N.3     
  32 N32           10.7756    32.9206    13.2210 N.3     
  33 H33           13.9764    24.4519    14.1331 H       
  34 H34           12.2254    24.1322    14.1472 H       
  35 H35           12.1643    24.3572    11.6786 H       
  36 H36           13.9153    24.6769    11.6644 H       
  37 H37           14.2686    22.6771    10.2090 H       
  38 H38           12.5177    22.3574    10.2232 H       
  39 H39           16.1787    17.1089    10.6689 H       
  40 H40           16.0546    14.7209    10.0000 H       
  41 H41           13.7883    30.3345    13.6506 H       
  42 H42           12.8300    32.5341    13.0115 H       
  43 H43           14.3297    22.4520    12.6777 H       
  44 H44           12.5787    22.1323    12.6918 H       
  45 H45           16.2964    15.1456    12.4644 H       
  46 H46           14.8175    14.1938    12.7387 H       
  47 H47           11.4809    32.5506    15.7480 H       
  48 H48           13.2012    32.1866    15.4719 H       
  49 H49           12.8470    34.4993    15.9535 H       
  50 H50           16.7853    12.8510    12.9133 H       
  51 H51           14.7373    12.7400    10.1271 H       
  52 H52           13.4679    13.5648    10.8157 H       
  53 H53           10.5730    32.6786    12.2626 H       
  54 H54           10.0000    32.6901    13.8238 H       
@<TRIPOS>BOND
   1    1    2 1
   2    3    4 1
   3    5    6 1
   4    5    7 2
   5    6    9 2
   6    7    8 1
   7    7   22 1
   8    8    9 1
   9    9   10 1
  10   10   11 1
  11   10   33 1
  12   10   34 1
  13   11   26 1
  14   11   35 1
  15   11   36 1
  16   12   13 1
  17   12   26 1
  18   12   37 1
  19   12   38 1
  20   13   14 2
  21   13   15 1
  22   14   17 1
  23   15   16 1
  24   16   17 2
  25   16   18 1
  26   18   19 am
  27   18   39 1
  28   19   20 2
  29   19   21 1
  30   21   27 1
  31   21   31 1
  32   21   40 1
  33   22   23 am
  34   22   41 1
  35   23   24 1
  36   23   25 2
  37   24   28 1
  38   24   32 1
  39   24   42 1
  40   26   43 1
  41   26   44 1
  42   27   30 1
  43   27   45 1
  44   27   46 1
  45   28   29 1
  46   28   47 1
  47   28   48 1
  48   29   49 1
  49   30   50 1
  50   31   51 1
  51   31   52 1
  52   32   53 1
  53   32   54 1

#	End of record

