#	Name: ASD03082264
#	Creating user name:	WinNT
#	Creation time:	15. 06. 2019 20:27

#	Modifying user name:	WinNT
#	Modification time:	15. 06. 2019 20:27

#	Program:	/corina/corina34_cracker 3.40 0067  02.08.2006

@<TRIPOS>MOLECULE
ASD03082264
  47   50    0    0    0
SMALL
NO_CHARGES


@<TRIPOS>ATOM
   1 N1             0.4922     1.6430     0.0978 N.pl3   
   2 N2             0.0853     0.2991     0.0789 N.2     
   3 C3             1.1731    -0.4287    -0.0263 C.2     
   4 N4             2.2340     0.3788    -0.0741 N.2     
   5 C5             1.8404     1.6346    -0.0003 C.2     
   6 N6             1.2131    -1.8235    -0.0790 N.pl3   
   7 C7             2.4258    -2.4796    -0.3053 C.ar    
   8 C8             2.6095    -3.7780     0.1509 C.ar    
   9 C9             3.8137    -4.4252    -0.0755 C.ar    
  10 C10            4.8330    -3.7747    -0.7574 C.ar    
  11 C11            4.6487    -2.4824    -1.2104 C.ar    
  12 C12            3.4476    -1.8357    -0.9922 C.ar    
  13 O13            3.9969    -5.6959     0.3702 O.3     
  14 C14            2.7191     2.8249    -0.0215 C.ar    
  15 C15           -0.3733     2.8208     0.1976 C.3     
  16 C16            4.0647     2.7222     0.3472 C.ar    
  17 C17            4.8443     3.8653     0.3097 C.ar    
  18 C18            4.2738     5.0609    -0.0872 C.ar    
  19 N19            3.0014     5.1277    -0.4296 N.ar    
  20 C20            2.2210     4.0671    -0.4152 C.ar    
  21 C21           -0.9339     3.1604    -1.1849 C.3     
  22 O22           -1.4513     2.5452     1.0942 O.3     
  23 C23            5.1191     6.3078    -0.1289 C.3     
  24 C24            5.2773     7.0979     1.1717 C.3     
  25 C25            6.4511     6.2839     0.6236 C.3     
  26 C26            5.2630    -6.3015     0.1014 C.3     
  27 F27            6.2778    -5.5444     0.6967 F       
  28 F28            5.2803    -7.5984     0.6256 F       
  29 F29            5.4706    -6.3544    -1.2811 F       
  30 H30            0.3990    -2.3369     0.0415 H       
  31 H31            1.8156    -4.2825     0.6816 H       
  32 H32            5.7714    -4.2793    -0.9337 H       
  33 H33            5.4436    -1.9786    -1.7403 H       
  34 H34            3.3043    -0.8274    -1.3519 H       
  35 H35            0.2045     3.6655     0.5729 H       
  36 H36            4.4843     1.7754     0.6536 H       
  37 H37            5.8871     3.8240     0.5879 H       
  38 H38            1.1842     4.1615    -0.7027 H       
  39 H39           -1.5117     2.3158    -1.5601 H       
  40 H40           -1.5778     4.0368    -1.1106 H       
  41 H41           -0.1116     3.3707    -1.8688 H       
  42 H42           -2.0091     1.8035     0.8225 H       
  43 H43            5.0766     6.8737    -1.0595 H       
  44 H44            5.3392     8.1836     1.0968 H       
  45 H45            4.7699     6.7158     2.0576 H       
  46 H46            6.7159     5.3662     1.1488 H       
  47 H47            7.2852     6.8340     0.1880 H       
@<TRIPOS>BOND
   1    1    2 1
   2    1    5 1
   3    1   15 1
   4    2    3 2
   5    3    4 1
   6    3    6 1
   7    4    5 2
   8    5   14 1
   9    6    7 1
  10    6   30 1
  11    7    8 ar
  12    7   12 ar
  13    8    9 ar
  14    8   31 1
  15    9   10 ar
  16    9   13 1
  17   10   11 ar
  18   10   32 1
  19   11   12 ar
  20   11   33 1
  21   12   34 1
  22   13   26 1
  23   14   16 ar
  24   14   20 ar
  25   15   21 1
  26   15   22 1
  27   15   35 1
  28   16   17 ar
  29   16   36 1
  30   17   18 ar
  31   17   37 1
  32   18   19 ar
  33   18   23 1
  34   19   20 ar
  35   20   38 1
  36   21   39 1
  37   21   40 1
  38   21   41 1
  39   22   42 1
  40   23   24 1
  41   23   25 1
  42   23   43 1
  43   24   25 1
  44   24   44 1
  45   24   45 1
  46   25   46 1
  47   25   47 1
  48   26   27 1
  49   26   28 1
  50   26   29 1

#	End of record

