#	Name: ASD05790111
#	Creating user name:	WinNT
#	Creation time:	15. 06. 2019 21:03

#	Modifying user name:	WinNT
#	Modification time:	15. 06. 2019 21:03

#	Program:	/corina/corina34_cracker 3.40 0067  02.08.2006

@<TRIPOS>MOLECULE
ASD05790111
  84   89    0    0    0
SMALL
NO_CHARGES


@<TRIPOS>ATOM
   1 C1            -0.0083     1.4980     0.0268 C.3     
   2 C2             0.0121    -0.0314    -0.0155 C.3     
   3 C3             0.7128    -0.4937    -1.2928 C.3     
   4 C4             2.1533     0.0253    -1.3108 C.3     
   5 C5             2.1373     1.5625    -1.2574 C.3     
   6 C6             1.4292     2.0218     0.0158 C.3     
   7 C7             2.8377    -0.4649    -2.5877 C.3     
   8 C8             2.1541     0.1168    -3.8370 C.3     
   9 C9             2.2299     1.6279    -3.7301 C.3     
  10 C10            1.4033     2.0469    -2.4864 C.3     
  11 C11            1.5258     2.4149    -4.8418 C.3     
  12 C12            1.1852     3.7555    -4.1974 C.2     
  13 C13            1.2639     3.5500    -2.6793 C.3     
  14 N14           -1.3621    -0.5391    -0.0008 N.am    
  15 C15            2.4750     2.5976    -6.0088 C.3     
  16 C16            1.8822     3.3253    -7.1679 C.3     
  17 C17            1.8331     4.8289    -7.0353 C.3     
  18 C18            0.6778     5.2910    -6.1639 C.3     
  19 C19            0.8335     4.8380    -4.7586 C.2     
  20 C20            0.4933     5.9180    -3.7642 C.3     
  21 C21            1.6584     5.4456    -8.4548 C.3     
  22 C22            2.5965     6.6610    -8.3727 C.3     
  23 C23            3.7444     6.0405    -7.5292 C.3     
  24 O24            3.0812     5.3237    -6.5050 O.3     
  25 N25            3.1857     7.0792    -9.6390 N.3     
  26 C26            4.1295     8.1840    -9.3818 C.3     
  27 C27            5.2463     7.7615    -8.4314 C.3     
  28 C28            4.6743     7.1680    -7.1317 C.3     
  29 C29            2.1178     4.4686    -9.5389 C.3     
  30 C30            6.1040     8.9819    -8.0909 C.3     
  31 O31            2.1508     7.4844   -10.5904 O.3     
  32 S32           -2.0656    -0.9824     1.4313 S.o2    
  33 C33           -2.1820     0.5620     2.3756 C.3     
  34 O34           -3.3592    -1.4384     1.0599 O.2     
  35 O35           -1.1222    -1.8618     2.0279 O.2     
  36 C36            3.5731     2.0911    -1.2649 C.3     
  37 H37           -0.5414     1.8792    -0.8442 H       
  38 H38           -0.5099     1.8303     0.9357 H       
  39 H39            0.5501    -0.4121     0.8526 H       
  40 H40            0.7196    -1.5831    -1.3284 H       
  41 H41            0.1775    -0.1071    -2.1600 H       
  42 H42            2.6889    -0.3620    -0.4441 H       
  43 H43            1.4182     3.1112     0.0514 H       
  44 H44            1.9618     1.6371     0.8855 H       
  45 H45            3.8829    -0.1560    -2.5749 H       
  46 H46            2.7872    -1.5531    -2.6258 H       
  47 H47            2.6746    -0.2181    -4.7343 H       
  48 H48            1.1120    -0.2008    -3.8713 H       
  49 H49            3.2663     1.9480    -3.6232 H       
  50 H50            0.4168     1.5852    -2.5299 H       
  51 H51            0.6167     1.9013    -5.1544 H       
  52 H52            0.3527     3.9096    -2.2013 H       
  53 H53            2.1339     4.0656    -2.2726 H       
  54 H54           -1.8598    -0.6156    -0.8298 H       
  55 H55            3.3484     3.1500    -5.6623 H       
  56 H56            2.8022     1.6144    -6.3470 H       
  57 H57            2.4610     3.0793    -8.0582 H       
  58 H58            0.8653     2.9618    -7.3159 H       
  59 H59            0.6315     6.3799    -6.1831 H       
  60 H60           -0.2528     4.8900    -6.5655 H       
  61 H61            0.1988     6.8224    -4.2967 H       
  62 H62           -0.3296     5.5841    -3.1324 H       
  63 H63            1.3648     6.1289    -3.1444 H       
  64 H64            0.6274     5.7572    -8.6222 H       
  65 H65            2.1223     7.4929    -7.8520 H       
  66 H66            4.3009     5.3392    -8.1511 H       
  67 H67            4.5686     8.5039   -10.3267 H       
  68 H68            3.5862     9.0207    -8.9424 H       
  69 H69            5.8693     7.0136    -8.9220 H       
  70 H70            4.1201     7.9321    -6.5867 H       
  71 H71            5.4835     6.7815    -6.5121 H       
  72 H72            1.5256     3.5554    -9.4798 H       
  73 H73            1.9845     4.9252   -10.5197 H       
  74 H74            3.1707     4.2292    -9.3897 H       
  75 H75            5.4836     9.7400    -7.6129 H       
  76 H76            6.9038     8.6859    -7.4120 H       
  77 H77            6.5356     9.3892    -9.0052 H       
  78 H78            2.4949     7.7708   -11.4475 H       
  79 H79           -2.7931     1.2784     1.8266 H       
  80 H80           -2.6392     0.3619     3.3446 H       
  81 H81           -1.1836     0.9738     2.5231 H       
  82 H82            4.1093     1.6740    -2.1173 H       
  83 H83            3.5596     3.1784    -1.3408 H       
  84 H84            4.0732     1.7975    -0.3420 H       
@<TRIPOS>BOND
   1    1    2 1
   2    1    6 1
   3    1   37 1
   4    1   38 1
   5    2    3 1
   6    2   14 1
   7    2   39 1
   8    3    4 1
   9    3   40 1
  10    3   41 1
  11    4    5 1
  12    4    7 1
  13    4   42 1
  14    5    6 1
  15    5   36 1
  16    5   10 1
  17    6   43 1
  18    6   44 1
  19    7    8 1
  20    7   45 1
  21    7   46 1
  22    8    9 1
  23    8   47 1
  24    8   48 1
  25    9   10 1
  26    9   11 1
  27    9   49 1
  28   10   13 1
  29   10   50 1
  30   11   12 1
  31   11   15 1
  32   11   51 1
  33   12   13 1
  34   12   19 2
  35   13   52 1
  36   13   53 1
  37   14   32 am
  38   14   54 1
  39   15   16 1
  40   15   55 1
  41   15   56 1
  42   16   17 1
  43   16   57 1
  44   16   58 1
  45   17   18 1
  46   17   24 1
  47   17   21 1
  48   18   19 1
  49   18   59 1
  50   18   60 1
  51   19   20 1
  52   20   61 1
  53   20   62 1
  54   20   63 1
  55   21   22 1
  56   21   29 1
  57   21   64 1
  58   22   23 1
  59   22   25 1
  60   22   65 1
  61   23   24 1
  62   23   28 1
  63   23   66 1
  64   25   26 1
  65   25   31 1
  66   26   27 1
  67   26   67 1
  68   26   68 1
  69   27   28 1
  70   27   30 1
  71   27   69 1
  72   28   70 1
  73   28   71 1
  74   29   72 1
  75   29   73 1
  76   29   74 1
  77   30   75 1
  78   30   76 1
  79   30   77 1
  80   31   78 1
  81   32   33 1
  82   32   34 2
  83   32   35 2
  84   33   79 1
  85   33   80 1
  86   33   81 1
  87   36   82 1
  88   36   83 1
  89   36   84 1

#	End of record

