#	Name: ASD01883526
#	Creating user name:	WinNT
#	Creation time:	15. 06. 2019 19:46

#	Modifying user name:	WinNT
#	Modification time:	15. 06. 2019 19:46

#	Program:	/corina/corina34_cracker 3.40 0067  02.08.2006

@<TRIPOS>MOLECULE
ASD01883526
  53   56    0    0    0
SMALL
NO_CHARGES


@<TRIPOS>ATOM
   1 N1            -0.0161     1.3416     0.0135 N.am    
   2 C2            -0.0057     0.0080    -0.1686 C.2     
   3 C3            -1.2227    -0.7137    -0.1674 C.2     
   4 C4            -2.4239    -0.0108     0.0261 C.2     
   5 C5            -2.3696     1.3831     0.2111 C.2     
   6 C6            -1.1778     2.0190     0.2056 C.2     
   7 O7             1.0511    -0.5773    -0.3348 O.2     
   8 C8            -1.2301    -2.1326    -0.3602 C.1     
   9 N9            -1.2360    -3.2583    -0.5130 N.1     
  10 C10            1.2513     2.0764     0.0104 C.3     
  11 C11            1.5769     2.5258    -1.4154 C.3     
  12 C12            2.9005     3.2932    -1.4185 C.3     
  13 C13            4.0379     2.3499    -1.0219 C.3     
  14 C14            3.1642     3.8494    -2.8193 C.3     
  15 N15           -3.6309    -0.6732     0.0341 N.pl3   
  16 C16           -3.9273    -1.6746     1.0672 C.3     
  17 C17           -5.2580    -1.3156     1.7362 C.3     
  18 C18           -6.3412    -1.1791     0.6641 C.3     
  19 C19           -5.9639    -0.0400    -0.2942 C.3     
  20 C20           -4.6478    -0.3866    -0.9870 C.3     
  21 O21           -7.5870    -0.8441     1.2854 O.3     
  22 C22           -8.5745    -0.3930     0.4638 C.ar    
  23 C23           -8.2809     0.0704    -0.8131 C.ar    
  24 O24           -7.0004     0.0782    -1.2750 O.3     
  25 C25           -9.8872    -0.3976     0.9113 C.ar    
  26 C26          -10.9004     0.0586     0.0896 C.ar    
  27 C27          -10.6084     0.5205    -1.1804 C.ar    
  28 C28           -9.3023     0.5289    -1.6319 C.ar    
  29 H29           -3.2803     1.9439     0.3612 H       
  30 H30           -1.1486     3.0891     0.3486 H       
  31 H31            1.1662     2.9503     0.6564 H       
  32 H32            2.0475     1.4290     0.3780 H       
  33 H33            1.6620     1.6520    -2.0613 H       
  34 H34            0.7807     3.1732    -1.7830 H       
  35 H35            2.8453     4.1158    -0.7055 H       
  36 H36            4.0931     1.5273    -1.7349 H       
  37 H37            4.9809     2.8966    -1.0241 H       
  38 H38            3.8500     1.9537    -0.0240 H       
  39 H39            2.3539     4.5214    -3.1018 H       
  40 H40            4.1072     4.3961    -2.8215 H       
  41 H41            3.2194     3.0268    -3.5323 H       
  42 H42           -4.0031    -2.6607     0.6090 H       
  43 H43           -3.1323    -1.6764     1.8130 H       
  44 H44           -5.5368    -2.1023     2.4373 H       
  45 H45           -5.1536    -0.3713     2.2705 H       
  46 H46           -6.4295    -2.1130     0.1091 H       
  47 H47           -5.8554     0.8922     0.2601 H       
  48 H48           -4.3249     0.4547    -1.6003 H       
  49 H49           -4.7858    -1.2673    -1.6143 H       
  50 H50          -10.1180    -0.7584     1.9028 H       
  51 H51          -11.9220     0.0539     0.4399 H       
  52 H52          -11.4022     0.8769    -1.8201 H       
  53 H53           -9.0770     0.8904    -2.6244 H       
@<TRIPOS>BOND
   1    1    2 am
   2    1   10 1
   3    1    6 1
   4    2    3 1
   5    2    7 2
   6    3    4 2
   7    3    8 1
   8    4    5 1
   9    4   15 1
  10    5    6 2
  11    5   29 1
  12    6   30 1
  13    8    9 3
  14   10   11 1
  15   10   31 1
  16   10   32 1
  17   11   12 1
  18   11   33 1
  19   11   34 1
  20   12   13 1
  21   12   14 1
  22   12   35 1
  23   13   36 1
  24   13   37 1
  25   13   38 1
  26   14   39 1
  27   14   40 1
  28   14   41 1
  29   15   16 1
  30   15   20 1
  31   16   17 1
  32   16   42 1
  33   16   43 1
  34   17   18 1
  35   17   44 1
  36   17   45 1
  37   18   19 1
  38   18   21 1
  39   18   46 1
  40   19   20 1
  41   19   24 1
  42   19   47 1
  43   20   48 1
  44   20   49 1
  45   21   22 1
  46   22   23 ar
  47   22   25 ar
  48   23   24 1
  49   23   28 ar
  50   25   26 ar
  51   25   50 1
  52   26   27 ar
  53   26   51 1
  54   27   28 ar
  55   27   52 1
  56   28   53 1

#	End of record

