#	Name: ASD01901578
#	Creating user name:	WinNT
#	Creation time:	15. 06. 2019 19:54

#	Modifying user name:	WinNT
#	Modification time:	15. 06. 2019 19:54

#	Program:	/corina/corina34_cracker 3.40 0067  02.08.2006

@<TRIPOS>MOLECULE
ASD01901578
  55   59    0    0    0
SMALL
NO_CHARGES


@<TRIPOS>ATOM
   1 C1            -0.0178     1.4632     0.0101 C.3     
   2 N2             0.0021    -0.0041     0.0020 N.am    
   3 C3             0.0108    -0.6144    -1.1988 C.2     
   4 O4             0.0049     0.0775    -2.2009 O.2     
   5 N5             0.0236    -1.9487    -1.3331 N.am    
   6 C6            -0.1464    -2.7385    -0.2552 C.2     
   7 O7             0.0893    -3.9233    -0.3151 O.2     
   8 C8            -0.6641    -2.1221     1.0158 C.3     
   9 C9             0.0242    -0.7610     1.2516 C.3     
  10 C10           -0.7722    -0.0635     2.3466 C.3     
  11 C11            0.0815     0.8763     3.1896 C.3     
  12 C12            1.1461     0.0531     3.9151 C.3     
  13 C13            1.9670    -0.6858     2.8895 C.ar    
  14 C14            3.2667    -1.0279     3.2288 C.ar    
  15 C15            4.0794    -1.6764     2.3215 C.ar    
  16 C16            3.5856    -1.9800     1.0674 C.ar    
  17 C17            2.2853    -1.6540     0.7402 C.ar    
  18 C18            1.4497    -1.0320     1.6607 C.ar    
  19 C19            0.2084    -2.5255    -2.5980 C.ar    
  20 C20           -0.8924    -2.7992    -3.4035 C.ar    
  21 F21           -2.1373    -2.5094    -2.9659 F       
  22 C22           -0.7142    -3.3658    -4.6491 C.ar    
  23 C23            0.5742    -3.6653    -5.1010 C.ar    
  24 C24            1.6779    -3.3894    -4.2887 C.ar    
  25 C25            1.4926    -2.8174    -3.0467 C.ar    
  26 F26            2.5591    -2.5448    -2.2634 F       
  27 C27            0.7630    -4.2538    -6.3927 C.1     
  28 C28            0.9178    -4.7363    -7.4518 C.1     
  29 C29            1.1066    -5.3248    -8.7435 C.ar    
  30 C30            0.0080    -5.6008    -9.5685 C.ar    
  31 C31            0.2453    -6.1693   -10.8074 C.ar    
  32 C32            1.5462    -6.4445   -11.1887 C.ar    
  33 N33            2.5622    -6.1744   -10.3913 N.ar    
  34 C34            2.3900    -5.6285    -9.2057 C.ar    
  35 H35            1.0048     1.8405     0.0023 H       
  36 H36           -0.5450     1.8242    -0.8730 H       
  37 H37           -0.5280     1.8147     0.9069 H       
  38 H38           -1.7391    -1.9651     0.9398 H       
  39 H39           -0.4466    -2.7768     1.8587 H       
  40 H40           -1.6151     0.4816     1.9141 H       
  41 H41           -1.2001    -0.8347     3.0093 H       
  42 H42            0.5616     1.6362     2.5790 H       
  43 H43           -0.5492     1.3731     3.9355 H       
  44 H44            1.7911     0.7170     4.4862 H       
  45 H45            0.6637    -0.6591     4.5797 H       
  46 H46            3.6470    -0.7857     4.2107 H       
  47 H47            5.0899    -1.9434     2.5900 H       
  48 H48            4.2178    -2.4740     0.3436 H       
  49 H49            1.9285    -1.8733    -0.2542 H       
  50 H50           -1.5692    -3.5780    -5.2739 H       
  51 H51            2.6748    -3.6195    -4.6347 H       
  52 H52           -0.9977    -5.3760    -9.2456 H       
  53 H53           -0.5769    -6.3962   -11.4699 H       
  54 H54            1.7334    -6.8882   -12.1554 H       
  55 H55            3.2472    -5.4176    -8.5835 H       
@<TRIPOS>BOND
   1    1    2 1
   2    1   35 1
   3    1   36 1
   4    1   37 1
   5    2    9 1
   6    2    3 am
   7    3    4 2
   8    3    5 am
   9    5    6 am
  10    5   19 1
  11    6    7 2
  12    6    8 1
  13    8    9 1
  14    8   38 1
  15    8   39 1
  16    9   18 1
  17    9   10 1
  18   10   11 1
  19   10   40 1
  20   10   41 1
  21   11   12 1
  22   11   42 1
  23   11   43 1
  24   12   13 1
  25   12   44 1
  26   12   45 1
  27   13   18 ar
  28   13   14 ar
  29   14   15 ar
  30   14   46 1
  31   15   16 ar
  32   15   47 1
  33   16   17 ar
  34   16   48 1
  35   17   18 ar
  36   17   49 1
  37   19   25 ar
  38   19   20 ar
  39   20   21 1
  40   20   22 ar
  41   22   23 ar
  42   22   50 1
  43   23   24 ar
  44   23   27 1
  45   24   25 ar
  46   24   51 1
  47   25   26 1
  48   27   28 3
  49   28   29 1
  50   29   34 ar
  51   29   30 ar
  52   30   31 ar
  53   30   52 1
  54   31   32 ar
  55   31   53 1
  56   32   33 ar
  57   32   54 1
  58   33   34 ar
  59   34   55 1

#	End of record

