#	Name: ASD01913389
#	Creating user name:	WinNT
#	Creation time:	15. 06. 2019 20:01

#	Modifying user name:	WinNT
#	Modification time:	15. 06. 2019 20:01

#	Program:	/corina/corina34_cracker 3.40 0067  02.08.2006

@<TRIPOS>MOLECULE
ASD01913389
  35   37    0    0    0
SMALL
NO_CHARGES


@<TRIPOS>ATOM
   1 C1            -0.3670    -0.7396    -2.2421 C.ar    
   2 C2            -0.6987    -0.0455    -1.0829 C.ar    
   3 C3            -0.5525     1.3342    -1.0585 C.ar    
   4 N4            -0.1066     1.9820    -2.1163 N.ar    
   5 C5             0.2164     1.3542    -3.2302 C.ar    
   6 C6             0.0983    -0.0192    -3.3306 C.ar    
   7 C7            -1.1819    -2.0673    -0.0311 C.ar    
   8 C8            -0.0691    -2.7921     0.3742 C.ar    
   9 C9            -0.0879    -4.1744     0.3398 C.ar    
  10 C10           -1.2130    -4.8427    -0.0972 C.ar    
  11 C11           -2.3372    -4.1226    -0.5063 C.ar    
  12 C12           -2.3167    -2.7282    -0.4716 C.ar    
  13 C13           -3.5441    -4.8352    -0.9755 C.2     
  14 N14           -3.5609    -6.1825    -1.0090 N.am    
  15 C15           -4.6951    -6.8521    -1.4499 C.2     
  16 O16           -4.5216    -4.2061    -1.3313 O.2     
  17 O17           -1.1596    -0.7092     0.0098 O.3     
  18 S18           -6.1351    -6.0967    -1.9780 S.3     
  19 C19           -6.8617    -7.6721    -2.2843 C.2     
  20 C20           -5.9669    -8.6095    -1.9657 C.2     
  21 N21           -4.8140    -8.1408    -1.5262 N.2     
  22 C22           -6.2482   -10.0837    -2.1018 C.3     
  23 H23           -0.4656    -1.8140    -2.2910 H       
  24 H24           -0.8070     1.8830    -0.1638 H       
  25 H25            0.5782     1.9210    -4.0754 H       
  26 H26            0.3652    -0.5250    -4.2467 H       
  27 H27            0.8144    -2.2744     0.7172 H       
  28 H28            0.7810    -4.7325     0.6556 H       
  29 H29           -1.2241    -5.9223    -0.1231 H       
  30 H30           -3.1832    -2.1657    -0.7865 H       
  31 H31           -2.7810    -6.6844    -0.7252 H       
  32 H32           -7.8575    -7.8485    -2.6632 H       
  33 H33           -5.9532   -10.4196    -3.0959 H       
  34 H34           -5.6815   -10.6327    -1.3498 H       
  35 H35           -7.3133   -10.2652    -1.9582 H       
@<TRIPOS>BOND
   1    1    2 ar
   2    1    6 ar
   3    1   23 1
   4    2    3 ar
   5    2   17 1
   6    3    4 ar
   7    3   24 1
   8    4    5 ar
   9    5    6 ar
  10    5   25 1
  11    6   26 1
  12    7    8 ar
  13    7   12 ar
  14    7   17 1
  15    8    9 ar
  16    8   27 1
  17    9   10 ar
  18    9   28 1
  19   10   11 ar
  20   10   29 1
  21   11   12 ar
  22   11   13 1
  23   12   30 1
  24   13   14 am
  25   13   16 2
  26   14   15 1
  27   14   31 1
  28   15   18 1
  29   15   21 2
  30   18   19 1
  31   19   20 2
  32   19   32 1
  33   20   21 1
  34   20   22 1
  35   22   33 1
  36   22   34 1
  37   22   35 1

#	End of record

