#	Name: ASD01912598
#	Creating user name:	WinNT
#	Creation time:	15. 06. 2019 20:00

#	Modifying user name:	WinNT
#	Modification time:	15. 06. 2019 20:00

#	Program:	/corina/corina34_cracker 3.40 0067  02.08.2006

@<TRIPOS>MOLECULE
ASD01912598
  45   48    0    0    0
SMALL
NO_CHARGES


@<TRIPOS>ATOM
   1 C1            -0.0173     1.4278     0.0099 C.ar    
   2 C2             0.0021    -0.0041     0.0020 C.1     
   3 C3             0.0180    -1.1779    -0.0044 C.1     
   4 C4             0.0374    -2.6098    -0.0123 C.ar    
   5 C5            -1.1617    -3.3283    -0.0047 C.ar    
   6 C6             1.2548    -3.2950    -0.0335 C.ar    
   7 C7             1.2653    -4.6765    -0.0414 C.ar    
   8 C8             0.0719    -5.3809    -0.0289 C.ar    
   9 C9            -1.1366    -4.7070    -0.0128 C.ar    
  10 C10            1.1860     2.1436     0.0022 C.ar    
  11 C11            1.1646     3.5076     0.0090 C.ar    
  12 C12           -0.0579     4.1883     0.0091 C.ar    
  13 C13           -1.2584     3.4768     0.0244 C.ar    
  14 C14           -1.2388     2.1101     0.0194 C.ar    
  15 C15           -0.0549     5.6644    -0.0282 C.2     
  16 N16            1.0887     6.3167    -0.3093 N.am    
  17 O17           -1.0767     6.2854     0.1925 O.2     
  18 F18            2.4409    -5.3419    -0.0619 F       
  19 C19            2.4492     4.2940     0.0369 C.3     
  20 C20            2.2833     5.5959    -0.7428 C.3     
  21 C21            1.5619     8.1404     1.2202 C.ar    
  22 C22            2.9028     8.3019     1.5146 C.ar    
  23 C23            3.2930     8.6425     2.7962 C.ar    
  24 C24            2.3422     8.8222     3.7834 C.ar    
  25 C25            1.0011     8.6616     3.4888 C.ar    
  26 C26            0.6111     8.3196     2.2076 C.ar    
  27 C27            1.1361     7.7751    -0.1784 C.3     
  28 H28           -2.1061    -2.8045     0.0078 H       
  29 H29            2.1850    -2.7463    -0.0439 H       
  30 H30            0.0850    -6.4608    -0.0356 H       
  31 H31           -2.0627    -5.2625    -0.0028 H       
  32 H32            2.1289     1.6171    -0.0086 H       
  33 H33           -2.2004     4.0048     0.0364 H       
  34 H34           -2.1662     1.5568     0.0311 H       
  35 H35            2.7110     4.5223     1.0701 H       
  36 H36            3.2456     3.7017    -0.4136 H       
  37 H37            2.1983     5.3684    -1.8054 H       
  38 H38            3.1591     6.2242    -0.5810 H       
  39 H39            3.6457     8.1615     0.7433 H       
  40 H40            4.3407     8.7680     3.0263 H       
  41 H41            2.6470     9.0877     4.7849 H       
  42 H42            0.2583     8.8013     4.2603 H       
  43 H43           -0.4366     8.1934     1.9776 H       
  44 H44            1.8515     8.1810    -0.8937 H       
  45 H45            0.1480     8.1900    -0.3775 H       
@<TRIPOS>BOND
   1    1    2 1
   2    1   10 ar
   3    1   14 ar
   4    2    3 3
   5    3    4 1
   6    4    5 ar
   7    4    6 ar
   8    5    9 ar
   9    5   28 1
  10    6    7 ar
  11    6   29 1
  12    7    8 ar
  13    7   18 1
  14    8    9 ar
  15    8   30 1
  16    9   31 1
  17   10   11 ar
  18   10   32 1
  19   11   12 ar
  20   11   19 1
  21   12   13 ar
  22   12   15 1
  23   13   14 ar
  24   13   33 1
  25   14   34 1
  26   15   16 am
  27   15   17 2
  28   16   27 1
  29   16   20 1
  30   19   20 1
  31   19   35 1
  32   19   36 1
  33   20   37 1
  34   20   38 1
  35   21   22 ar
  36   21   26 ar
  37   21   27 1
  38   22   23 ar
  39   22   39 1
  40   23   24 ar
  41   23   40 1
  42   24   25 ar
  43   24   41 1
  44   25   26 ar
  45   25   42 1
  46   26   43 1
  47   27   44 1
  48   27   45 1

#	End of record

