#	Name: ASD02401025
#	Creating user name:	WinNT
#	Creation time:	15. 06. 2019 20:20

#	Modifying user name:	WinNT
#	Modification time:	15. 06. 2019 20:20

#	Program:	/corina/corina34_cracker 3.40 0067  02.08.2006

@<TRIPOS>MOLECULE
ASD02401025
  36   37    0    0    0
SMALL
NO_CHARGES


@<TRIPOS>ATOM
   1 C1            -0.0167     1.3831     0.0096 C.ar    
   2 C2             0.0021    -0.0041     0.0020 C.ar    
   3 C3             1.2141    -0.6790    -0.0132 C.ar    
   4 C4             2.3989     0.0314    -0.0207 C.ar    
   5 C5             2.3774     1.4139    -0.0126 C.ar    
   6 C6             1.1708     2.0889     0.0021 C.ar    
   7 C7             3.6714     2.1863    -0.0198 C.3     
   8 C8             4.0963     2.4560    -1.4647 C.3     
   9 C9             5.3903     3.2284    -1.4719 C.ar    
  10 C10            6.5969     2.5535    -1.4865 C.ar    
  11 C11            7.7845     3.2592    -1.4932 C.ar    
  12 C12            7.7656     4.6464    -1.4851 C.ar    
  13 C13            6.5536     5.3213    -1.4703 C.ar    
  14 C14            5.3688     4.6109    -1.4695 C.ar    
  15 O15           -1.1648    -0.7006     0.0099 O.3     
  16 C16           -1.0693    -2.1264     0.0013 C.3     
  17 O17            8.9325     5.3430    -1.4911 O.3     
  18 C18            8.8370     6.7687    -1.4822 C.3     
  19 H19           -0.9590     1.9108     0.0170 H       
  20 H20            1.2314    -1.7588    -0.0188 H       
  21 H21            3.3426    -0.4935    -0.0325 H       
  22 H22            1.1567     3.1688     0.0084 H       
  23 H23            3.5318     3.1338     0.5007 H       
  24 H24            4.4441     1.6055     0.4838 H       
  25 H25            4.2359     1.5085    -1.9852 H       
  26 H26            3.3236     3.0369    -1.9683 H       
  27 H27            6.6110     1.4736    -1.4925 H       
  28 H28            8.7267     2.7316    -1.5043 H       
  29 H29            6.5364     6.4011    -1.4640 H       
  30 H30            4.4250     5.1358    -1.4584 H       
  31 H31           -0.5412    -2.4498    -0.8957 H       
  32 H32           -0.5235    -2.4593     0.8841 H       
  33 H33           -2.0703    -2.5577     0.0089 H       
  34 H34            8.2924     7.1020    -2.3656 H       
  35 H35            8.3077     7.0918    -0.5857 H       
  36 H36            9.8381     7.2000    -1.4883 H       
@<TRIPOS>BOND
   1    1    2 ar
   2    1    6 ar
   3    1   19 1
   4    2    3 ar
   5    2   15 1
   6    3    4 ar
   7    3   20 1
   8    4    5 ar
   9    4   21 1
  10    5    6 ar
  11    5    7 1
  12    6   22 1
  13    7    8 1
  14    7   23 1
  15    7   24 1
  16    8    9 1
  17    8   25 1
  18    8   26 1
  19    9   10 ar
  20    9   14 ar
  21   10   11 ar
  22   10   27 1
  23   11   12 ar
  24   11   28 1
  25   12   13 ar
  26   12   17 1
  27   13   14 ar
  28   13   29 1
  29   14   30 1
  30   15   16 1
  31   16   31 1
  32   16   32 1
  33   16   33 1
  34   17   18 1
  35   18   34 1
  36   18   35 1
  37   18   36 1

#	End of record

