#	Name: ASD01885156
#	Creating user name:	WinNT
#	Creation time:	15. 06. 2019 19:49

#	Modifying user name:	WinNT
#	Modification time:	15. 06. 2019 19:49

#	Program:	/corina/corina34_cracker 3.40 0067  02.08.2006

@<TRIPOS>MOLECULE
ASD01885156
  50   54    0    0    0
SMALL
NO_CHARGES


@<TRIPOS>ATOM
   1 C1            -0.0170     1.4050     0.0098 C.2     
   2 C2             1.1991    -0.6521    -0.0129 C.2     
   3 C3             2.3930     0.0893    -0.0203 C.2     
   4 C4             2.3588     1.4383    -0.0121 C.2     
   5 N5             1.1665     2.1012     0.0022 N.pl3   
   6 C6             0.8241     3.4179     0.0118 C.2     
   7 N7            -0.4823     3.4846     0.0242 N.2     
   8 N8            -0.9895     2.3020     0.0186 N.2     
   9 C9             1.7760     4.5862     0.0091 C.3     
  10 C10            1.2438    -2.1584    -0.0214 C.3     
  11 C11            2.0853     4.9887    -1.4342 C.3     
  12 C12            1.3709    -2.6567    -1.4624 C.3     
  13 C13            0.0021    -0.0041     0.0020 C.2     
  14 C14            2.9455     6.2352    -1.6511 C.3     
  15 C15            3.5315     4.8463    -1.9129 C.3     
  16 Cl16          -1.4832    -0.9027     0.0119 Cl      
  17 C17            2.7376    -2.2429    -2.0461 C.3     
  18 C18            3.1555    -3.4475    -2.9254 C.3     
  19 C19            2.6682    -4.6615    -2.0961 C.3     
  20 C20            1.3267    -4.1945    -1.4942 C.3     
  21 C21            2.4582    -5.8587    -2.9869 C.ar    
  22 C22            3.1534    -7.0292    -2.7470 C.ar    
  23 C23            2.9609    -8.1274    -3.5641 C.ar    
  24 C24            2.0727    -8.0553    -4.6210 C.ar    
  25 C25            1.3768    -6.8851    -4.8604 C.ar    
  26 C26            1.5662    -5.7883    -4.0406 C.ar    
  27 H27            3.3434    -0.4236    -0.0323 H       
  28 H28            3.2826     1.9976    -0.0175 H       
  29 H29            1.3201     5.4274     0.5312 H       
  30 H30            2.6999     4.3031     0.5133 H       
  31 H31            2.1016    -2.4997     0.5580 H       
  32 H32            0.3278    -2.5516     0.4195 H       
  33 H33            1.2938     4.7914    -2.1572 H       
  34 H34            0.5652    -2.2466    -2.0714 H       
  35 H35            2.7203     6.8578    -2.5170 H       
  36 H36            3.2911     6.7685    -0.7655 H       
  37 H37            4.2626     4.4659    -1.1995 H       
  38 H38            3.6917     4.5551    -2.9510 H       
  39 H39            2.6364    -1.3438    -2.6539 H       
  40 H40            3.4616    -2.0846    -1.2468 H       
  41 H41            2.6528    -3.4131    -3.8919 H       
  42 H42            4.2377    -3.4759    -3.0525 H       
  43 H43            3.3810    -4.8938    -1.3048 H       
  44 H44            1.2148    -4.5858    -0.4830 H       
  45 H45            0.4996    -4.5314    -2.1191 H       
  46 H46            3.8473    -7.0855    -1.9213 H       
  47 H47            3.5046    -9.0416    -3.3771 H       
  48 H48            1.9228    -8.9130    -5.2598 H       
  49 H49            0.6832    -6.8286    -5.6862 H       
  50 H50            1.0197    -4.8752    -4.2254 H       
@<TRIPOS>BOND
   1    1   13 1
   2    1    5 1
   3    1    8 2
   4    2    3 1
   5    2   10 1
   6    2   13 2
   7    3    4 2
   8    3   27 1
   9    4    5 1
  10    4   28 1
  11    5    6 1
  12    6    7 2
  13    6    9 1
  14    7    8 1
  15    9   11 1
  16    9   29 1
  17    9   30 1
  18   10   12 1
  19   10   31 1
  20   10   32 1
  21   11   14 1
  22   11   15 1
  23   11   33 1
  24   12   17 1
  25   12   20 1
  26   12   34 1
  27   13   16 1
  28   14   15 1
  29   14   35 1
  30   14   36 1
  31   15   37 1
  32   15   38 1
  33   17   18 1
  34   17   39 1
  35   17   40 1
  36   18   19 1
  37   18   41 1
  38   18   42 1
  39   19   20 1
  40   19   21 1
  41   19   43 1
  42   20   44 1
  43   20   45 1
  44   21   22 ar
  45   21   26 ar
  46   22   23 ar
  47   22   46 1
  48   23   24 ar
  49   23   47 1
  50   24   25 ar
  51   24   48 1
  52   25   26 ar
  53   25   49 1
  54   26   50 1

#	End of record

