#	Name: ASD01884863
#	Creating user name:	WinNT
#	Creation time:	15. 06. 2019 19:49

#	Modifying user name:	WinNT
#	Modification time:	15. 06. 2019 19:49

#	Program:	/corina/corina34_cracker 3.40 0067  02.08.2006

@<TRIPOS>MOLECULE
ASD01884863
  52   57    0    0    0
SMALL
NO_CHARGES


@<TRIPOS>ATOM
   1 C1            -0.0164     1.3603     0.0095 C.ar    
   2 C2             0.0021    -0.0041     0.0020 C.ar    
   3 C3             1.2155    -0.7020    -0.0133 C.ar    
   4 C4             2.4183    -0.0074    -0.0210 C.ar    
   5 C5             2.4037     1.3870    -0.0134 C.ar    
   6 C6             1.1772     2.0775     0.0020 C.ar    
   7 C7             3.4476     2.4152    -0.0183 C.2     
   8 C8             2.8260     3.6047    -0.0062 C.2     
   9 N9             1.4700     3.4228     0.0060 N.pl3   
  10 C10            1.2167    -2.1838    -0.0208 C.2     
  11 C11            0.7023    -2.8772    -1.1012 C.2     
  12 C12            1.7499    -2.9040     1.0758 C.2     
  13 C13            1.7501    -4.2500     1.0672 C.2     
  14 N14            1.2397    -4.9434     0.0073 N.pl3   
  15 C15            0.7177    -4.2833    -1.0786 C.2     
  16 Cl16           0.0472    -2.0249    -2.4643 Cl      
  17 C17            1.1110    -6.2707    -0.2677 C.2     
  18 N18            0.5432    -6.3768    -1.4413 N.2     
  19 N19            0.3069    -5.2103    -1.9303 N.2     
  20 C20            1.5439    -7.4100     0.6187 C.3     
  21 C21            0.4769     4.4997     0.0204 C.3     
  22 C22            0.4665    -8.3918     1.0839 C.3     
  23 C23            1.4902    -8.8218     0.0313 C.3     
  24 C24            0.6730     5.3576     1.2720 C.3     
  25 C25           -0.3641     6.4824     1.2870 C.3     
  26 C26           -0.1913     7.3522     0.0402 C.3     
  27 C27           -0.3874     6.4943    -1.2114 C.3     
  28 C28            0.6498     5.3696    -1.2264 C.3     
  29 O29           -1.1600     8.4027     0.0543 O.3     
  30 H30           -0.9600     1.8857     0.0168 H       
  31 H31           -0.9291    -0.5512     0.0083 H       
  32 H32            3.3564    -0.5424    -0.0325 H       
  33 H33            4.5145     2.2477    -0.0292 H       
  34 H34            3.3228     4.5637    -0.0056 H       
  35 H35            2.1582    -2.3713     1.9219 H       
  36 H36            2.1595    -4.7885     1.9092 H       
  37 H37            2.3527    -7.1840     1.3135 H       
  38 H38           -0.5249     4.0702     0.0277 H       
  39 H39            0.5668    -8.8119     2.0847 H       
  40 H40           -0.5553    -8.2136     0.7489 H       
  41 H41            1.1419    -8.9265    -0.9962 H       
  42 H42            2.2640    -9.5249     0.3395 H       
  43 H43            0.5498     4.7380     2.1602 H       
  44 H44            1.6747     5.7872     1.2647 H       
  45 H45           -1.3659     6.0528     1.2943 H       
  46 H46           -0.2244     7.0935     2.1786 H       
  47 H47            0.8105     7.7818     0.0330 H       
  48 H48           -1.3891     6.0647    -1.2041 H       
  49 H49           -0.2642     7.1140    -2.0996 H       
  50 H50            1.6515     5.7992    -1.2336 H       
  51 H51            0.5100     4.7584    -2.1180 H       
  52 H52           -1.1090     8.9949    -0.7085 H       
@<TRIPOS>BOND
   1    1    2 ar
   2    1    6 ar
   3    1   30 1
   4    2    3 ar
   5    2   31 1
   6    3    4 ar
   7    3   10 1
   8    4    5 ar
   9    4   32 1
  10    5    6 ar
  11    5    7 1
  12    6    9 1
  13    7    8 2
  14    7   33 1
  15    8    9 1
  16    8   34 1
  17    9   21 1
  18   10   11 2
  19   10   12 1
  20   11   16 1
  21   11   15 1
  22   12   13 2
  23   12   35 1
  24   13   14 1
  25   13   36 1
  26   14   15 1
  27   14   17 1
  28   15   19 2
  29   17   18 2
  30   17   20 1
  31   18   19 1
  32   20   22 1
  33   20   23 1
  34   20   37 1
  35   21   24 1
  36   21   28 1
  37   21   38 1
  38   22   23 1
  39   22   39 1
  40   22   40 1
  41   23   41 1
  42   23   42 1
  43   24   25 1
  44   24   43 1
  45   24   44 1
  46   25   26 1
  47   25   45 1
  48   25   46 1
  49   26   27 1
  50   26   29 1
  51   26   47 1
  52   27   28 1
  53   27   48 1
  54   27   49 1
  55   28   50 1
  56   28   51 1
  57   29   52 1

#	End of record

