#	Name: ASD00071029
#	Creating user name:	WinNT
#	Creation time:	15. 06. 2019 18:30

#	Modifying user name:	WinNT
#	Modification time:	15. 06. 2019 18:30

#	Program:	/corina/corina34_cracker 3.40 0067  02.08.2006

@<TRIPOS>MOLECULE
ASD00071029
  39   41    0    0    0
SMALL
NO_CHARGES


@<TRIPOS>ATOM
   1 N1             1.8370     1.2418    -1.2056 N.ar    
   2 C2             1.6402    -0.0623    -1.1914 C.ar    
   3 C3             1.3730    -0.7520     0.0006 C.ar    
   4 C4             1.3119    -0.0735     1.1807 C.ar    
   5 C5             1.5231     1.3194     1.1583 C.ar    
   6 C6             1.4784     2.0968     2.3230 C.ar    
   7 N7             1.6813     3.3932     2.2532 N.ar    
   8 C8             1.9318     4.0166     1.1107 C.ar    
   9 C9             1.9958     3.3491    -0.0748 C.ar    
  10 C10            1.7891     1.9574    -0.0806 C.ar    
  11 N11            1.6983    -0.7677    -2.3822 N.pl3   
  12 C12            1.1532    -2.2427    -0.0240 C.3     
  13 C13            1.0215    -2.7545     1.3873 C.ar    
  14 C14           -0.2305    -2.8628     1.9726 C.ar    
  15 C15           -0.3491    -3.3343     3.2724 C.ar    
  16 C16            0.7794    -3.6957     3.9831 C.ar    
  17 C17            2.0284    -3.5887     3.4019 C.ar    
  18 C18            2.1518    -3.1231     2.1004 C.ar    
  19 O19            3.3800    -3.0233     1.5274 O.3     
  20 C20            4.5002    -3.4208     2.3207 C.3     
  21 O21           -1.3407    -2.5071     1.2743 O.3     
  22 C22           -2.5977    -2.6447     1.9400 C.3     
  23 H23            1.1069    -0.5890     2.1073 H       
  24 H24            1.2771     1.6313     3.2765 H       
  25 H25            2.0895     5.0850     1.1200 H       
  26 H26            2.2011     3.8785    -0.9935 H       
  27 H27            1.8000    -0.2936    -3.2223 H       
  28 H28            1.6373    -1.7358    -2.3759 H       
  29 H29            0.2416    -2.4664    -0.5781 H       
  30 H30            2.0010    -2.7270    -0.5085 H       
  31 H31           -1.3242    -3.4185     3.7289 H       
  32 H32            0.6851    -4.0621     4.9947 H       
  33 H33            2.9090    -3.8718     3.9595 H       
  34 H34            4.5455    -2.8057     3.2194 H       
  35 H35            4.3926    -4.4683     2.6023 H       
  36 H36            5.4169    -3.2915     1.7454 H       
  37 H37           -2.7488    -3.6875     2.2190 H       
  38 H38           -2.6041    -2.0243     2.8362 H       
  39 H39           -3.3989    -2.3274     1.2726 H       
@<TRIPOS>BOND
   1    1    2 ar
   2    1   10 ar
   3    2    3 ar
   4    2   11 1
   5    3    4 ar
   6    3   12 1
   7    4    5 ar
   8    4   23 1
   9    5    6 ar
  10    5   10 ar
  11    6    7 ar
  12    6   24 1
  13    7    8 ar
  14    8    9 ar
  15    8   25 1
  16    9   10 ar
  17    9   26 1
  18   11   27 1
  19   11   28 1
  20   12   13 1
  21   12   29 1
  22   12   30 1
  23   13   14 ar
  24   13   18 ar
  25   14   15 ar
  26   14   21 1
  27   15   16 ar
  28   15   31 1
  29   16   17 ar
  30   16   32 1
  31   17   18 ar
  32   17   33 1
  33   18   19 1
  34   19   20 1
  35   20   34 1
  36   20   35 1
  37   20   36 1
  38   21   22 1
  39   22   37 1
  40   22   38 1
  41   22   39 1

#	End of record

