#	Name: ASD03090514
#	Creating user name:	WinNT
#	Creation time:	15. 06. 2019 20:28

#	Modifying user name:	WinNT
#	Modification time:	15. 06. 2019 20:28

#	Program:	/corina/corina34_cracker 3.40 0067  02.08.2006

@<TRIPOS>MOLECULE
ASD03090514
  43   46    0    0    0
SMALL
NO_CHARGES


@<TRIPOS>ATOM
   1 C1            -0.0185     1.5025     0.0142 C.2     
   2 C2             0.0015    -0.0044     0.0107 C.3     
   3 O3             1.0237     2.1228     0.0073 O.2     
   4 N4            -1.1946     2.1607     0.0195 N.am    
   5 N5             4.2703    -1.4523    -2.2268 N.pl3   
   6 C6             5.4630    -1.8560    -1.6911 C.2     
   7 C7             5.3943    -1.8313    -0.3507 C.2     
   8 C8             4.0475    -1.3745     0.0007 C.ar    
   9 C9             3.3836    -1.1483     1.2081 C.ar    
  10 C10            2.0893    -0.7109     1.1988 C.ar    
  11 C11            1.4289    -0.4878    -0.0018 C.ar    
  12 C12            2.0650    -0.7042    -1.2043 C.ar    
  13 C13            3.3826    -1.1504    -1.2185 C.ar    
  14 C14           -1.2569     6.3153     0.3577 C.ar    
  15 C15           -2.2077     5.6645    -0.4269 C.ar    
  16 C16           -2.1850     4.2905    -0.5374 C.ar    
  17 C17           -1.2153     3.5542     0.1327 C.ar    
  18 C18           -0.2664     4.2009     0.9155 C.ar    
  19 C19           -0.2851     5.5748     1.0290 C.ar    
  20 C20           -1.2755     7.7942     0.4734 C.ar    
  21 C21           -0.3257     8.4464     1.2574 C.ar    
  22 C22           -0.3477     9.8224     1.3614 C.ar    
  23 C23           -1.3105    10.5540     0.6897 C.ar    
  24 C24           -2.2560     9.9119    -0.0896 C.ar    
  25 C25           -2.2393     8.5368    -0.2061 C.ar    
  26 H26           -0.5003    -0.3766     0.9038 H       
  27 H27           -0.5145    -0.3726    -0.8761 H       
  28 H28           -2.0266     1.6678    -0.0553 H       
  29 H29            4.0799    -1.3849    -3.1755 H       
  30 H30            6.3309    -2.1511    -2.2621 H       
  31 H31            6.1824    -2.0977     0.3380 H       
  32 H32            3.8910    -1.3197     2.1460 H       
  33 H33            1.5761    -0.5364     2.1330 H       
  34 H34            1.5425    -0.5280    -2.1330 H       
  35 H35           -2.9617     6.2362    -0.9475 H       
  36 H36           -2.9215     3.7858    -1.1452 H       
  37 H37            0.4863     3.6268     1.4353 H       
  38 H38            0.4522     6.0769     1.6377 H       
  39 H39            0.4260     7.8761     1.7828 H       
  40 H40            0.3878    10.3289     1.9687 H       
  41 H41           -1.3243    11.6306     0.7742 H       
  42 H42           -3.0056    10.4880    -0.6116 H       
  43 H43           -2.9748     8.0368    -0.8189 H       
@<TRIPOS>BOND
   1    1    2 1
   2    1    3 2
   3    1    4 am
   4    2   11 1
   5    2   26 1
   6    2   27 1
   7    4   17 1
   8    4   28 1
   9    5    6 1
  10    5   13 1
  11    5   29 1
  12    6    7 2
  13    6   30 1
  14    7    8 1
  15    7   31 1
  16    8    9 ar
  17    8   13 ar
  18    9   10 ar
  19    9   32 1
  20   10   11 ar
  21   10   33 1
  22   11   12 ar
  23   12   13 ar
  24   12   34 1
  25   14   15 ar
  26   14   19 ar
  27   14   20 1
  28   15   16 ar
  29   15   35 1
  30   16   17 ar
  31   16   36 1
  32   17   18 ar
  33   18   19 ar
  34   18   37 1
  35   19   38 1
  36   20   21 ar
  37   20   25 ar
  38   21   22 ar
  39   21   39 1
  40   22   23 ar
  41   22   40 1
  42   23   24 ar
  43   23   41 1
  44   24   25 ar
  45   24   42 1
  46   25   43 1

#	End of record

