#	Name: ASD01916448
#	Creating user name:	WinNT
#	Creation time:	15. 06. 2019 20:07

#	Modifying user name:	WinNT
#	Modification time:	15. 06. 2019 20:07

#	Program:	/corina/corina34_cracker 3.40 0067  02.08.2006

@<TRIPOS>MOLECULE
ASD01916448
  39   40    0    0    0
SMALL
NO_CHARGES


@<TRIPOS>ATOM
   1 C1            -0.0197     1.5005     0.0380 C.2     
   2 C2            -0.0022    -0.0064     0.0434 C.3     
   3 C3             1.4460    -0.4995     0.0582 C.3     
   4 C4             1.4631    -1.9714     0.0635 C.1     
   5 C5             1.4768    -3.1454     0.0678 C.1     
   6 O6             1.0235     2.1191     0.0452 O.2     
   7 N7            -1.1946     2.1607     0.0195 N.am    
   8 C8            -1.2153     3.5563     0.1328 C.ar    
   9 C9            -2.1869     4.2934    -0.5313 C.ar    
  10 C10           -2.2056     5.6696    -0.4183 C.ar    
  11 C11           -1.2560     6.3147     0.3565 C.ar    
  12 C12           -0.2865     5.5815     1.0195 C.ar    
  13 C13           -0.2681     4.2043     0.9139 C.ar    
  14 C14           -3.2198     3.5921    -1.3753 C.3     
  15 F15           -1.2755     7.6611     0.4651 F       
  16 C16            1.4934    -4.5772     0.0729 C.ar    
  17 C17            2.7128    -5.2554     0.0863 C.ar    
  18 C18            2.7121    -6.6389     0.0912 C.ar    
  19 C19            1.4922    -7.3013     0.0825 C.ar    
  20 C20            0.3210    -6.5666     0.0694 C.ar    
  21 N21            0.3481    -5.2495     0.0705 N.ar    
  22 C22           -1.0051    -7.2825     0.0595 C.3     
  23 F23           -1.4276    -7.4998     1.3754 F       
  24 H24           -0.5198    -0.3725     0.9301 H       
  25 H25           -0.5038    -0.3788    -0.8498 H       
  26 H26            1.9636    -0.1334    -0.8285 H       
  27 H27            1.9476    -0.1271     0.9514 H       
  28 H28           -2.0258     1.6692    -0.0724 H       
  29 H29           -2.9610     6.2433    -0.9346 H       
  30 H30            0.4533     6.0865     1.6229 H       
  31 H31            0.4854     3.6325     1.4351 H       
  32 H32           -4.0859     3.3471    -0.7605 H       
  33 H33           -3.5270     4.2460    -2.1915 H       
  34 H34           -2.7937     2.6760    -1.7843 H       
  35 H35            3.6439    -4.7082     0.0924 H       
  36 H36            3.6401    -7.1913     0.1011 H       
  37 H37            1.4583    -8.3808     0.0857 H       
  38 H38           -1.7428    -6.6736    -0.4631 H       
  39 H39           -0.8974    -8.2399    -0.4503 H       
@<TRIPOS>BOND
   1    1    2 1
   2    1    6 2
   3    1    7 am
   4    2    3 1
   5    2   24 1
   6    2   25 1
   7    3    4 1
   8    3   26 1
   9    3   27 1
  10    4    5 3
  11    5   16 1
  12    7    8 1
  13    7   28 1
  14    8    9 ar
  15    8   13 ar
  16    9   10 ar
  17    9   14 1
  18   10   11 ar
  19   10   29 1
  20   11   12 ar
  21   11   15 1
  22   12   13 ar
  23   12   30 1
  24   13   31 1
  25   14   32 1
  26   14   33 1
  27   14   34 1
  28   16   17 ar
  29   16   21 ar
  30   17   18 ar
  31   17   35 1
  32   18   19 ar
  33   18   36 1
  34   19   20 ar
  35   19   37 1
  36   20   21 ar
  37   20   22 1
  38   22   23 1
  39   22   38 1
  40   22   39 1

#	End of record

