#	Name: ASD00150004
#	Creating user name:	WinNT
#	Creation time:	15. 06. 2019 18:31

#	Modifying user name:	WinNT
#	Modification time:	15. 06. 2019 18:31

#	Program:	/corina/corina34_cracker 3.40 0067  02.08.2006

@<TRIPOS>MOLECULE
ASD00150004
  91   96    0    0    0
SMALL
NO_CHARGES


@<TRIPOS>ATOM
   1 P1            -0.0198     1.6058     0.0109 P.3     
   2 P2            12.5456     1.7555    -0.0741 P.3     
   3 P3             2.1671     3.5690     0.3967 P.3     
   4 P4            10.3428     2.4156     1.7959 P.3     
   5 P5             4.9273     4.2124     1.2642 P.3     
   6 P6             7.5729     3.3504     2.2854 P.3     
   7 O7            -0.0429    -2.6265     1.2405 O.3     
   8 O8            12.5910     2.3375    -4.4426 O.3     
   9 O9            -2.3507    -5.3736     1.0738 O.3     
  10 O10           -2.1473    -3.9524    -1.0959 O.3     
  11 O11           14.9190     1.7775    -7.1198 O.3     
  12 O12           14.7187    -0.1563    -5.3909 O.3     
  13 O13            0.0021    -0.0041     0.0020 O.3     
  14 O14           12.5351     1.5055    -1.6646 O.3     
  15 O15            1.4907     2.1630    -0.0006 O.3     
  16 O16           11.0314     1.8171     0.4694 O.3     
  17 O17           -0.7984     2.1391    -1.2935 O.3     
  18 O18           13.3284     0.5512     0.6533 O.3     
  19 O19           -0.7125     2.0831     1.2285 O.2     
  20 O20           13.2276     3.0357     0.2195 O.2     
  21 O21            3.7599     3.3787     0.5333 O.3     
  22 O22            8.7505     2.5110     1.5777 O.3     
  23 O23            1.8528     4.6578    -0.7470 O.3     
  24 O24           10.6563     1.4502     3.0457 O.3     
  25 O25            1.6135     4.0356     1.6875 O.2     
  26 O26           10.8853     3.7656     2.0672 O.2     
  27 O27            6.2530     3.3044     1.3647 O.3     
  28 O28            5.2502     5.5414     0.4147 O.3     
  29 O29            7.2459     2.7073     3.7247 O.3     
  30 O30            4.4849     4.5918     2.6247 O.2     
  31 O31            8.0044     4.7553     2.4594 O.2     
  32 N32           -0.0885    -4.2529     2.9935 N.pl3   
  33 N33           12.6375     3.8275    -6.3130 N.pl3   
  34 N34            0.3068    -3.9119     5.1129 N.2     
  35 N35           12.2270     5.9712    -6.2957 N.2     
  36 N36            0.1725    -6.7317     3.0964 N.ar    
  37 N37           12.3932     3.5561    -8.7808 N.ar    
  38 N38            0.6751    -7.5655     5.1928 N.ar    
  39 N39           11.8839     5.5004    -9.9222 N.ar    
  40 N40            0.9256    -6.1845     7.0886 N.pl3   
  41 N41           11.6122     7.5798    -8.8424 N.pl3   
  42 C42           -1.9227    -4.0363     1.3393 C.3     
  43 C43           -2.0790    -3.1464     0.0822 C.3     
  44 C44           14.4800     2.2372    -5.8400 C.3     
  45 C45           14.6377     1.1287    -4.7709 C.3     
  46 C46           -0.3934    -3.9838     1.5861 C.3     
  47 C47           12.9489     2.4784    -5.8342 C.3     
  48 C48           -0.8037    -2.2815     0.0707 C.3     
  49 C49           13.3564     1.2380    -3.9217 C.3     
  50 C50           -1.1801    -0.7991     0.1135 C.3     
  51 C51           13.7222     1.5049    -2.4602 C.3     
  52 C52            0.1436    -5.4840     3.5529 C.ar    
  53 C53           12.4106     4.1945    -7.6154 C.ar    
  54 C54            0.0224    -3.3254     3.9865 C.2     
  55 C55           12.5141     4.9473    -5.5455 C.2     
  56 C56            0.3962    -5.2491     4.9151 C.ar    
  57 C57           12.1482     5.5747    -7.5887 C.ar    
  58 C58            0.6689    -6.3539     5.7393 C.ar    
  59 C59           11.8782     6.2222    -8.8062 C.ar    
  60 C60            0.4337    -7.7364     3.9059 C.ar    
  61 C61           12.1342     4.2041    -9.8970 C.ar    
  62 H62           -2.4683    -3.6157     2.1839 H       
  63 H63           -2.9668    -2.5196     0.1665 H       
  64 H64           15.0175     3.1391    -5.5473 H       
  65 H65           15.5205     1.3121    -4.1585 H       
  66 H66            0.1267    -4.6909     0.9399 H       
  67 H67           12.4378     1.7300    -6.4397 H       
  68 H68           -0.2209    -2.4922    -0.8259 H       
  69 H69           12.7806     0.3158    -3.9992 H       
  70 H70           -1.6790    -0.5780     1.0570 H       
  71 H71           -1.8511    -0.5706    -0.7146 H       
  72 H72           14.2138     2.4744    -2.3799 H       
  73 H73           14.3965     0.7251    -2.1061 H       
  74 H74           -3.2824    -5.4464     0.8254 H       
  75 H75           -2.9001    -4.5591    -1.1143 H       
  76 H76           15.8527     1.5275    -7.1489 H       
  77 H77           15.4758    -0.2600    -5.9834 H       
  78 H78           -0.1062    -2.2609     3.8572 H       
  79 H79           12.6359     4.9799    -4.4728 H       
  80 H80            0.4495    -8.7382     3.5027 H       
  81 H81           12.1279     3.6553   -10.8271 H       
  82 H82            1.1129    -6.9551     7.6471 H       
  83 H83            0.9183    -5.2952     7.4757 H       
  84 H84           11.4270     8.0153    -9.6891 H       
  85 H85           11.6110     8.0959    -8.0211 H       
  86 H86           -0.3990     1.8638    -2.1300 H       
  87 H87           12.9360    -0.3199     0.5039 H       
  88 H88            2.1875     4.4172    -1.6217 H       
  89 H89           10.3286     0.5470     2.9368 H       
  90 H90            5.5465     5.3681    -0.4893 H       
  91 H91            6.9563     1.7854     3.6870 H       
@<TRIPOS>BOND
   1    1   13 1
   2    1   15 1
   3    1   17 1
   4    1   19 2
   5    2   14 1
   6    2   16 1
   7    2   18 1
   8    2   20 2
   9    3   15 1
  10    3   21 1
  11    3   23 1
  12    3   25 2
  13    4   16 1
  14    4   22 1
  15    4   24 1
  16    4   26 2
  17    5   21 1
  18    5   27 1
  19    5   28 1
  20    5   30 2
  21    6   22 1
  22    6   27 1
  23    6   29 1
  24    6   31 2
  25    7   46 1
  26    7   48 1
  27    8   47 1
  28    8   49 1
  29    9   74 1
  30    9   42 1
  31   10   75 1
  32   10   43 1
  33   11   76 1
  34   11   44 1
  35   12   77 1
  36   12   45 1
  37   13   50 1
  38   14   51 1
  39   17   86 1
  40   18   87 1
  41   23   88 1
  42   24   89 1
  43   28   90 1
  44   29   91 1
  45   32   52 1
  46   32   54 1
  47   32   46 1
  48   33   53 1
  49   33   55 1
  50   33   47 1
  51   34   54 2
  52   34   56 1
  53   35   55 2
  54   35   57 1
  55   36   52 ar
  56   36   60 ar
  57   37   53 ar
  58   37   61 ar
  59   38   58 ar
  60   38   60 ar
  61   39   59 ar
  62   39   61 ar
  63   40   58 1
  64   40   82 1
  65   40   83 1
  66   41   59 1
  67   41   84 1
  68   41   85 1
  69   42   43 1
  70   42   62 1
  71   42   46 1
  72   43   48 1
  73   43   63 1
  74   44   45 1
  75   44   64 1
  76   44   47 1
  77   45   49 1
  78   45   65 1
  79   46   66 1
  80   47   67 1
  81   48   50 1
  82   48   68 1
  83   49   51 1
  84   49   69 1
  85   50   70 1
  86   50   71 1
  87   51   72 1
  88   51   73 1
  89   52   56 ar
  90   53   57 ar
  91   54   78 1
  92   55   79 1
  93   56   58 ar
  94   57   59 ar
  95   60   80 1
  96   61   81 1

#	End of record

