#	Name: ASD08710045
#	Creating user name:	WinNT
#	Creation time:	15. 06. 2019 21:19

#	Modifying user name:	WinNT
#	Modification time:	15. 06. 2019 21:19

#	Program:	/corina/corina34_cracker 3.40 0067  02.08.2006

@<TRIPOS>MOLECULE
ASD08710045
  53   55    0    0    0
SMALL
NO_CHARGES


@<TRIPOS>ATOM
   1 C1             0.3736     2.6245     0.6707 C.ar    
   2 C2             0.7044     1.2890     0.8469 C.ar    
   3 C3            -0.4244     3.0038    -0.3992 C.ar    
   4 C4            -0.8873     2.0513    -1.2858 C.ar    
   5 C5            -0.5562     0.7205    -1.1079 C.ar    
   6 C6             0.2387     0.3400    -0.0428 C.ar    
   7 S7             0.6584    -1.3567     0.1804 S.o2    
   8 O8             1.5304    -1.4103     1.3010 O.2     
   9 O9            -0.5601    -2.0843     0.1082 O.2     
  10 N10            1.5560    -1.8165    -1.1331 N.am    
  11 C11            3.0004    -1.5495    -1.1825 C.3     
  12 C12            0.9237    -2.5043    -2.2675 C.3     
  13 C13            1.6628    -3.8255    -2.5134 C.3     
  14 N14            3.1062    -3.5535    -2.5652 N.am    
  15 C15            3.7351    -2.8727    -1.4307 C.3     
  16 C16            3.8369    -3.9285    -3.6338 C.2     
  17 C17            5.3051    -3.7554    -3.6229 C.ar    
  18 O18            3.2888    -4.4090    -4.6065 O.2     
  19 C19            5.9718    -3.2790    -4.7526 C.ar    
  20 N20            7.2794    -3.1248    -4.7430 N.ar    
  21 C21            8.0069    -3.4094    -3.6796 C.ar    
  22 C22            7.4215    -3.8861    -2.5207 C.ar    
  23 C23            6.0493    -4.0609    -2.4773 C.ar    
  24 C24            1.3648    -4.8006    -1.3727 C.3     
  25 C25           -1.0631    -0.3168    -2.0765 C.3     
  26 C26            9.5002    -3.2122    -3.7287 C.3     
  27 O27            0.8258     3.5591     1.5476 O.3     
  28 C28            0.4458     4.9149     1.3039 C.3     
  29 F29           -0.9491     5.0199     1.3286 F       
  30 F30            0.9930     5.7378     2.2942 F       
  31 F31            0.9213     5.3144     0.0503 F       
  32 H32            1.3256     0.9912     1.6786 H       
  33 H33           -0.6835     4.0430    -0.5383 H       
  34 H34           -1.5088     2.3460    -2.1185 H       
  35 H35            3.2162    -0.8536    -1.9932 H       
  36 H36            3.3261    -1.1225    -0.2340 H       
  37 H37           -0.1217    -2.7077    -2.0354 H       
  38 H38            0.9883    -1.8779    -3.1572 H       
  39 H39            1.3374    -4.2560    -3.4604 H       
  40 H40            4.7806    -2.6675    -1.6609 H       
  41 H41            3.6702    -3.5032    -0.5439 H       
  42 H42            5.4105    -3.0352    -5.6425 H       
  43 H43            8.0284    -4.1156    -1.6573 H       
  44 H44            5.5660    -4.4316    -1.5854 H       
  45 H45            0.2921    -4.9890    -1.3267 H       
  46 H46            1.8911    -5.7386    -1.5497 H       
  47 H47            1.6987    -4.3691    -0.4291 H       
  48 H48           -0.3586    -0.4182    -2.9020 H       
  49 H49           -1.1631    -1.2739    -1.5645 H       
  50 H50           -2.0344    -0.0086    -2.4635 H       
  51 H51            9.7440    -2.2009    -3.4032 H       
  52 H52            9.9837    -3.9327    -3.0691 H       
  53 H53            9.8528    -3.3603    -4.7494 H       
@<TRIPOS>BOND
   1    1    2 ar
   2    1    3 ar
   3    1   27 1
   4    2    6 ar
   5    2   32 1
   6    3    4 ar
   7    3   33 1
   8    4    5 ar
   9    4   34 1
  10    5    6 ar
  11    5   25 1
  12    6    7 1
  13    7    8 2
  14    7    9 2
  15    7   10 am
  16   10   11 1
  17   10   12 1
  18   11   15 1
  19   11   35 1
  20   11   36 1
  21   12   13 1
  22   12   37 1
  23   12   38 1
  24   13   14 1
  25   13   24 1
  26   13   39 1
  27   14   15 1
  28   14   16 am
  29   15   40 1
  30   15   41 1
  31   16   17 1
  32   16   18 2
  33   17   19 ar
  34   17   23 ar
  35   19   20 ar
  36   19   42 1
  37   20   21 ar
  38   21   22 ar
  39   21   26 1
  40   22   23 ar
  41   22   43 1
  42   23   44 1
  43   24   45 1
  44   24   46 1
  45   24   47 1
  46   25   48 1
  47   25   49 1
  48   25   50 1
  49   26   51 1
  50   26   52 1
  51   26   53 1
  52   27   28 1
  53   28   29 1
  54   28   30 1
  55   28   31 1

#	End of record

