#	Name: ASD04590171
#	Creating user name:	WinNT
#	Creation time:	15. 06. 2019 20:50

#	Modifying user name:	WinNT
#	Modification time:	15. 06. 2019 20:50

#	Program:	/corina/corina34_cracker 3.40 0067  02.08.2006

@<TRIPOS>MOLECULE
ASD04590171
  56   59    0    0    0
SMALL
NO_CHARGES


@<TRIPOS>ATOM
   1 N1            -0.0153     1.2802     0.0091 N.pl3   
   2 N2             0.0021    -0.0041     0.0020 N.2     
   3 C3             1.2455    -0.4440    -0.0122 C.2     
   4 C4             2.0903     0.6961    -0.0142 C.2     
   5 C5             1.2523     1.7667    -0.0004 C.2     
   6 C6             1.6765    -1.8547    -0.0235 C.2     
   7 N7             0.7571    -2.8402    -0.0200 N.am    
   8 O8             2.8611    -2.1284    -0.0359 O.2     
   9 N9             3.4930     0.7146    -0.0270 N.am    
  10 C10            4.1514     1.8906    -0.0271 C.2     
  11 C11            1.1851    -4.2412    -0.0312 C.3     
  12 O12            3.5296     2.9356    -0.0159 O.2     
  13 C13            0.0782    -5.1078    -0.6351 C.3     
  14 C14            0.5252    -6.5710    -0.6468 C.3     
  15 C15            0.8077    -7.0294     0.7853 C.3     
  16 C16            1.9146    -6.1628     1.3892 C.3     
  17 C17            1.4676    -4.6996     1.4009 C.3     
  18 C18            5.6264     1.9101    -0.0406 C.ar    
  19 C19            6.3411     1.9132     1.1622 C.ar    
  20 C20            7.7230     1.9315     1.1402 C.ar    
  21 N21            1.2368    -8.4343     0.7741 N.3     
  22 C22            8.3993     1.9473    -0.0661 C.ar    
  23 C23            7.7007     1.9449    -1.2598 C.ar    
  24 C24            6.3188     1.9199    -1.2564 C.ar    
  25 F25            5.6824     1.8987     2.3416 F       
  26 F26            5.6383     1.9171    -2.4235 F       
  27 C27            1.5178    -8.9102     2.1364 C.3     
  28 C28            1.9028   -10.3911     2.0846 C.3     
  29 O29            3.0232   -10.5569     1.2113 O.3     
  30 C30            2.7842   -10.1042    -0.1241 C.3     
  31 C31            2.4081    -8.6205    -0.0947 C.3     
  32 H32           -0.8184     1.8242     0.0160 H       
  33 H33            1.5405     2.8076     0.0024 H       
  34 H34           -0.1879    -2.6218    -0.0102 H       
  35 H35            3.9890    -0.1189    -0.0359 H       
  36 H36            2.0908    -4.3397    -0.6296 H       
  37 H37           -0.8276    -5.0094    -0.0367 H       
  38 H38           -0.1231    -4.7812    -1.6554 H       
  39 H39           -0.2634    -7.1884    -1.0770 H       
  40 H40            1.4309    -6.6695    -1.2451 H       
  41 H41           -0.0981    -6.9310     1.3837 H       
  42 H42            2.1159    -6.4894     2.4095 H       
  43 H43            2.8203    -6.2613     0.7908 H       
  44 H44            2.2562    -4.0822     1.8311 H       
  45 H45            0.5619    -4.6012     1.9993 H       
  46 H46            8.2762     1.9339     2.0678 H       
  47 H47            9.4791     1.9620    -0.0760 H       
  48 H48            8.2367     1.9580    -2.1973 H       
  49 H49            2.3407    -8.3349     2.5605 H       
  50 H50            0.6293    -8.7866     2.7556 H       
  51 H51            2.1673   -10.7337     3.0850 H       
  52 H52            1.0606   -10.9733     1.7106 H       
  53 H53            3.6861   -10.2393    -0.7211 H       
  54 H54            1.9676   -10.6781    -0.5623 H       
  55 H55            2.1695    -8.2853    -1.1040 H       
  56 H56            3.2452    -8.0405     0.2938 H       
@<TRIPOS>BOND
   1    1    2 1
   2    1    5 1
   3    1   32 1
   4    2    3 2
   5    3    4 1
   6    3    6 1
   7    4    5 2
   8    4    9 1
   9    5   33 1
  10    6    7 am
  11    6    8 2
  12    7   11 1
  13    7   34 1
  14    9   10 am
  15    9   35 1
  16   10   12 2
  17   10   18 1
  18   11   13 1
  19   11   17 1
  20   11   36 1
  21   13   14 1
  22   13   37 1
  23   13   38 1
  24   14   15 1
  25   14   39 1
  26   14   40 1
  27   15   16 1
  28   15   21 1
  29   15   41 1
  30   16   17 1
  31   16   42 1
  32   16   43 1
  33   17   44 1
  34   17   45 1
  35   18   19 ar
  36   18   24 ar
  37   19   20 ar
  38   19   25 1
  39   20   22 ar
  40   20   46 1
  41   21   27 1
  42   21   31 1
  43   22   23 ar
  44   22   47 1
  45   23   24 ar
  46   23   48 1
  47   24   26 1
  48   27   28 1
  49   27   49 1
  50   27   50 1
  51   28   29 1
  52   28   51 1
  53   28   52 1
  54   29   30 1
  55   30   31 1
  56   30   53 1
  57   30   54 1
  58   31   55 1
  59   31   56 1

#	End of record

