#	Name: ASD01915561
#	Creating user name:	WinNT
#	Creation time:	15. 06. 2019 20:05

#	Modifying user name:	WinNT
#	Modification time:	15. 06. 2019 20:05

#	Program:	/corina/corina34_cracker 3.40 0067  02.08.2006

@<TRIPOS>MOLECULE
ASD01915561
  44   47    0    0    0
SMALL
NO_CHARGES


@<TRIPOS>ATOM
   1 C1            -0.0042     1.4686     0.2350 C.2     
   2 N2             0.0662     0.1192    -0.0301 N.pl3   
   3 C3            -1.1429    -0.6636    -0.3131 C.3     
   4 C4            -2.3280    -0.0486     0.4294 C.3     
   5 N5            -2.4044     1.3988     0.2637 N.am    
   6 C6            -1.2935     2.1742     0.2864 C.2     
   7 C7             1.2763     1.9058     0.4262 C.2     
   8 C8             2.0758     0.7650     0.2738 C.2     
   9 N9             1.2865    -0.2503     0.0108 N.2     
  10 C10            3.5774     0.7131     0.3906 C.3     
  11 O11            4.0778     2.0190     0.6844 O.3     
  12 C12            5.4236     2.1474     0.8227 C.ar    
  13 O13           -1.3589     3.3874     0.3460 O.2     
  14 C14            5.9776     3.3868     1.1083 C.ar    
  15 C15            6.2452     1.0382     0.6842 C.ar    
  16 C16            7.6130     1.1713     0.8252 C.ar    
  17 C17            8.1632     2.4087     1.1042 C.ar    
  18 C18            7.3460     3.5147     1.2483 C.ar    
  19 C19           -3.6531     1.9998     0.0772 C.ar    
  20 C20           -4.5848     2.0025     1.1072 C.ar    
  21 C21           -5.8178     2.5967     0.9211 C.ar    
  22 C22           -6.1264     3.1886    -0.2893 C.ar    
  23 C23           -5.2001     3.1883    -1.3195 C.ar    
  24 C24           -3.9618     2.6002    -1.1365 C.ar    
  25 F25           -5.5047     3.7672    -2.5016 F       
  26 C26           -7.4730     3.8350    -0.4889 C.3     
  27 H27           -1.3402    -0.6535    -1.3850 H       
  28 H28           -0.9976    -1.6909     0.0210 H       
  29 H29           -3.2488    -0.4951     0.0541 H       
  30 H30           -2.2354    -0.2772     1.4911 H       
  31 H31            1.6015     2.9119     0.6461 H       
  32 H32            3.8561     0.0285     1.1917 H       
  33 H33            4.0031     0.3641    -0.5502 H       
  34 H34            5.3398     4.2511     1.2206 H       
  35 H35            5.8159     0.0714     0.4667 H       
  36 H36            8.2530     0.3081     0.7179 H       
  37 H37            9.2328     2.5108     1.2141 H       
  38 H38            7.7782     4.4803     1.4659 H       
  39 H39           -4.3454     1.5398     2.0533 H       
  40 H40           -6.5420     2.5985     1.7223 H       
  41 H41           -3.2392     2.6000    -1.9391 H       
  42 H42           -7.4195     4.8837    -0.1968 H       
  43 H43           -7.7580     3.7643    -1.5386 H       
  44 H44           -8.2156     3.3244     0.1244 H       
@<TRIPOS>BOND
   1    1    2 1
   2    1    7 2
   3    1    6 1
   4    2    3 1
   5    2    9 1
   6    3    4 1
   7    3   27 1
   8    3   28 1
   9    4    5 1
  10    4   29 1
  11    4   30 1
  12    5    6 am
  13    5   19 1
  14    6   13 2
  15    7    8 1
  16    7   31 1
  17    8    9 2
  18    8   10 1
  19   10   11 1
  20   10   32 1
  21   10   33 1
  22   11   12 1
  23   12   14 ar
  24   12   15 ar
  25   14   18 ar
  26   14   34 1
  27   15   16 ar
  28   15   35 1
  29   16   17 ar
  30   16   36 1
  31   17   18 ar
  32   17   37 1
  33   18   38 1
  34   19   20 ar
  35   19   24 ar
  36   20   21 ar
  37   20   39 1
  38   21   22 ar
  39   21   40 1
  40   22   23 ar
  41   22   26 1
  42   23   24 ar
  43   23   25 1
  44   24   41 1
  45   26   42 1
  46   26   43 1
  47   26   44 1

#	End of record

