#	Name: ASD03240690
#	Creating user name:	WinNT
#	Creation time:	15. 06. 2019 20:35

#	Modifying user name:	WinNT
#	Modification time:	15. 06. 2019 20:35

#	Program:	/corina/corina34_cracker 3.40 0067  02.08.2006

@<TRIPOS>MOLECULE
ASD03240690
  59   65    0    0    0
SMALL
NO_CHARGES


@<TRIPOS>ATOM
   1 C1            -0.0470     1.2459     0.1175 C.3     
   2 C2             0.1513    -0.2778     0.0552 C.3     
   3 C3             1.5491    -0.0412     0.6511 C.3     
   4 C4             1.4840     1.3693     0.0418 C.3     
   5 O5            -0.7216     1.7825    -1.0222 O.3     
   6 C6             2.6192    -0.9120     0.0446 C.ar    
   7 C7             3.7105    -1.2927     0.8050 C.ar    
   8 C8             4.6932    -2.0902     0.2556 C.ar    
   9 C9             4.5848    -2.5126    -1.0693 C.ar    
  10 C10            3.4821    -2.1254    -1.8308 C.ar    
  11 C11            2.5033    -1.3320    -1.2684 C.ar    
  12 C12           10.1758    -4.5180    -1.9755 C.2     
  13 N13            9.9112    -5.4822    -2.8749 N.2     
  14 C14            8.6952    -5.7312    -3.2877 C.2     
  15 C15            7.5885    -4.9389    -2.7556 C.ar    
  16 C16            7.8728    -3.9283    -1.8123 C.ar    
  17 N17            9.1887    -3.7380    -1.4367 N.pl3   
  18 C18            6.2670    -5.1580    -3.1578 C.ar    
  19 C19            5.2752    -4.3568    -2.6010 C.ar    
  20 C20            5.6363    -3.3683    -1.6653 C.ar    
  21 N21            6.8995    -3.1902    -1.3081 N.ar    
  22 N22            9.7893    -2.8411    -0.5449 N.2     
  23 C23           11.0826    -3.0576    -0.5346 C.2     
  24 C24           11.3726    -4.0917    -1.4157 C.2     
  25 C25            3.8559    -4.5411    -2.9882 C.ar    
  26 C26            3.4991    -4.5924    -4.3347 C.ar    
  27 C27            2.1765    -4.7646    -4.6892 C.ar    
  28 C28            1.2057    -4.8857    -3.7113 C.ar    
  29 C29            1.5539    -4.8351    -2.3735 C.ar    
  30 C30            2.8741    -4.6695    -2.0071 C.ar    
  31 C31           -0.6363     1.7336     1.4426 C.3     
  32 C32           -0.7319     3.2451     1.6595 C.3     
  33 C33           -1.9987     2.4283     1.3967 C.3     
  34 N34            1.5714    -0.0472     2.1199 N.3     
  35 H35           -0.5163    -0.8323     0.7146 H       
  36 H36            0.1708    -0.6744    -0.9599 H       
  37 H37            1.8678     1.4229    -0.9770 H       
  38 H38            1.8922     2.1444     0.6903 H       
  39 H39           -0.3465     1.5035    -1.8687 H       
  40 H40            3.7934    -0.9646     1.8307 H       
  41 H41            5.5449    -2.3865     0.8501 H       
  42 H42            3.3928    -2.4490    -2.8573 H       
  43 H43            1.6470    -1.0349    -1.8557 H       
  44 H44            8.5117    -6.5116    -4.0113 H       
  45 H45            6.0241    -5.9248    -3.8786 H       
  46 H46           11.8051    -2.5174     0.0592 H       
  47 H47           12.3528    -4.4932    -1.6262 H       
  48 H48            4.2561    -4.4972    -5.0991 H       
  49 H49            1.8989    -4.8045    -5.7322 H       
  50 H50            0.1719    -5.0200    -3.9933 H       
  51 H51            0.7917    -4.9299    -1.6142 H       
  52 H52            3.1453    -4.6347    -0.9623 H       
  53 H53           -0.4163     1.1134     2.3115 H       
  54 H54           -0.5752     3.6193     2.6712 H       
  55 H55           -0.3750     3.8921     0.8582 H       
  56 H56           -2.4752     2.5380     0.4225 H       
  57 H57           -2.6754     2.2652     2.2355 H       
  58 H58            2.5187    -0.0575     2.4672 H       
  59 H59            1.0581     0.7375     2.4925 H       
@<TRIPOS>BOND
   1    1    2 1
   2    1    4 1
   3    1    5 1
   4    1   31 1
   5    2    3 1
   6    2   35 1
   7    2   36 1
   8    3    4 1
   9    3    6 1
  10    3   34 1
  11    4   37 1
  12    4   38 1
  13    5   39 1
  14    6    7 ar
  15    6   11 ar
  16    7    8 ar
  17    7   40 1
  18    8    9 ar
  19    8   41 1
  20    9   10 ar
  21    9   20 1
  22   10   11 ar
  23   10   42 1
  24   11   43 1
  25   12   13 1
  26   12   17 1
  27   12   24 2
  28   13   14 2
  29   14   15 1
  30   14   44 1
  31   15   16 ar
  32   15   18 ar
  33   16   17 1
  34   16   21 ar
  35   17   22 1
  36   18   19 ar
  37   18   45 1
  38   19   20 ar
  39   19   25 1
  40   20   21 ar
  41   22   23 2
  42   23   24 1
  43   23   46 1
  44   24   47 1
  45   25   26 ar
  46   25   30 ar
  47   26   27 ar
  48   26   48 1
  49   27   28 ar
  50   27   49 1
  51   28   29 ar
  52   28   50 1
  53   29   30 ar
  54   29   51 1
  55   30   52 1
  56   31   32 1
  57   31   33 1
  58   31   53 1
  59   32   33 1
  60   32   54 1
  61   32   55 1
  62   33   56 1
  63   33   57 1
  64   34   58 1
  65   34   59 1

#	End of record

