#	Name: ASD04390010
#	Creating user name:	WinNT
#	Creation time:	15. 06. 2019 20:49

#	Modifying user name:	WinNT
#	Modification time:	15. 06. 2019 20:49

#	Program:	/corina/corina34_cracker 3.40 0067  02.08.2006

@<TRIPOS>MOLECULE
ASD04390010
  30   31    0    0    0
SMALL
NO_CHARGES


@<TRIPOS>ATOM
   1 C1            -0.0167     1.3833     0.0096 C.ar    
   2 C2             0.0021    -0.0041     0.0020 C.ar    
   3 C3             1.2081    -0.6771    -0.0131 C.ar    
   4 C4             2.3962     0.0305    -0.0202 C.ar    
   5 C5             2.3801     1.4128    -0.0126 C.ar    
   6 C6             1.1763     2.0908     0.0021 C.ar    
   7 O7            -1.2021     2.0479     0.0189 O.3     
   8 C8            -1.2922    -0.7759     0.0107 C.3     
   9 N9            -1.8480    -0.8127    -1.3443 N.pl3   
  10 C10           -3.0468    -1.4734    -1.5861 C.ar    
  11 C11           -3.5691    -1.5045    -2.8753 C.ar    
  12 C12           -4.7626    -2.1654    -3.1017 C.ar    
  13 C13           -5.3966    -2.7755    -2.0271 C.ar    
  14 C14           -4.8217    -2.7052    -0.7742 C.ar    
  15 N15           -3.6788    -2.0721    -0.5885 N.ar    
  16 C16           -2.8443    -0.8269    -4.0096 C.3     
  17 H17            1.2233    -1.7570    -0.0191 H       
  18 H18            3.3382    -0.4976    -0.0313 H       
  19 H19            3.3093     1.9633    -0.0182 H       
  20 H20            1.1643     3.1708     0.0076 H       
  21 H21           -1.5410     2.2354     0.9049 H       
  22 H22           -1.1063    -1.7933     0.3549 H       
  23 H23           -2.0009    -0.2894     0.6810 H       
  24 H24           -1.3794    -0.3760    -2.0727 H       
  25 H25           -5.1923    -2.2059    -4.0917 H       
  26 H26           -6.3301    -3.2994    -2.1702 H       
  27 H27           -5.3114    -3.1782     0.0642 H       
  28 H28           -2.1527    -1.5315    -4.4714 H       
  29 H29           -3.5671    -0.4878    -4.7517 H       
  30 H30           -2.2887     0.0289    -3.6260 H       
@<TRIPOS>BOND
   1    1    2 ar
   2    1    6 ar
   3    1    7 1
   4    2    3 ar
   5    2    8 1
   6    3    4 ar
   7    3   17 1
   8    4    5 ar
   9    4   18 1
  10    5    6 ar
  11    5   19 1
  12    6   20 1
  13    7   21 1
  14    8    9 1
  15    8   22 1
  16    8   23 1
  17    9   10 1
  18    9   24 1
  19   10   11 ar
  20   10   15 ar
  21   11   12 ar
  22   11   16 1
  23   12   13 ar
  24   12   25 1
  25   13   14 ar
  26   13   26 1
  27   14   15 ar
  28   14   27 1
  29   16   28 1
  30   16   29 1
  31   16   30 1

#	End of record

