#	Name: ASD01680159
#	Creating user name:	WinNT
#	Creation time:	15. 06. 2019 19:22

#	Modifying user name:	WinNT
#	Modification time:	15. 06. 2019 19:22

#	Program:	/corina/corina34_cracker 3.40 0067  02.08.2006

@<TRIPOS>MOLECULE
ASD01680159
  77   80    0    0    0
SMALL
NO_CHARGES


@<TRIPOS>ATOM
   1 N1             0.1125    -0.3596     1.7082 N.am    
   2 C2             0.2167    -1.7966     1.3958 C.3     
   3 C3             1.7144    -2.1382     1.5952 C.3     
   4 C4             2.4006    -0.8514     1.0656 C.3     
   5 C5             1.4279     0.2641     1.5030 C.3     
   6 C6            -1.0050     0.2778     2.1099 C.2     
   7 O7            -2.0606    -0.3217     2.1633 O.2     
   8 O8            -0.9517     1.5789     2.4520 O.3     
   9 C9            -0.6486    -2.6146     2.3566 C.3     
  10 N10           -0.3079    -2.2657     3.7381 N.pl3   
  11 C11           -1.0333    -2.8100     4.7915 C.ar    
  12 C12           -2.0817    -3.6856     4.5269 C.ar    
  13 C13           -2.7950    -4.2198     5.5845 C.ar    
  14 C14           -2.4347    -3.8591     6.8764 C.ar    
  15 C15           -1.3835    -2.9850     7.0660 C.ar    
  16 N16           -0.7169    -2.4948     6.0379 N.ar    
  17 O17            3.6808    -0.6735     1.6752 O.3     
  18 C18            4.6295     0.0031     0.8480 C.3     
  19 C19            5.9363     0.1349     1.5868 C.2     
  20 N20            6.9847     0.7439     0.9983 N.am    
  21 O21            6.0446    -0.3070     2.7111 O.2     
  22 C22            8.2551     0.8721     1.7165 C.3     
  23 C23            9.2709     1.5965     0.8309 C.3     
  24 N24            8.7130     2.8798     0.3971 N.am    
  25 C25            9.1518     3.4555    -0.7398 C.2     
  26 C26            8.5888     4.7506    -1.1776 C.ar    
  27 C27            7.9224     4.8479    -2.4004 C.ar    
  28 C28            7.3995     6.0591    -2.8030 C.ar    
  29 C29            7.5343     7.1764    -1.9977 C.ar    
  30 C30            8.1940     7.0869    -0.7850 C.ar    
  31 C31            8.7162     5.8799    -0.3676 C.ar    
  32 O32           10.0103     2.9100    -1.4052 O.2     
  33 N33            7.7777     3.6539    -3.2632 N.pl3   
  34 O34            7.2978     3.7624    -4.3775 O.2     
  35 O35            8.1384     2.5631    -2.8591 O.2     
  36 C36           10.5368     1.8375     1.6121 C.2     
  37 O37           10.9325     2.9654     1.7884 O.2     
  38 O38           11.2249     0.7991     2.1121 O.3     
  39 C39           -2.1938     2.2007     2.8749 C.3     
  40 C40           -1.9412     3.6468     3.2155 C.ar    
  41 C41           -2.0573     4.6176     2.2383 C.ar    
  42 C42           -1.8255     5.9440     2.5507 C.ar    
  43 C43           -1.4780     6.2998     3.8405 C.ar    
  44 C44           -1.3628     5.3292     4.8180 C.ar    
  45 C45           -1.5988     4.0032     4.5065 C.ar    
  46 H46           -0.0808    -1.9830     0.3638 H       
  47 H47            1.9420    -2.2968     2.6493 H       
  48 H48            1.9997    -3.0061     1.0007 H       
  49 H49            2.4901    -0.8810    -0.0203 H       
  50 H50            1.3606     1.0236     0.7241 H       
  51 H51            1.7741     0.7140     2.4335 H       
  52 H52           -1.7006    -2.3945     2.1751 H       
  53 H53           -0.4664    -3.6770     2.1947 H       
  54 H54            0.4239    -1.6548     3.9176 H       
  55 H55           -2.3353    -3.9443     3.5094 H       
  56 H56           -3.6140    -4.9017     5.4097 H       
  57 H57           -2.9718    -4.2584     7.7240 H       
  58 H58           -1.1000    -2.7019     8.0689 H       
  59 H59            4.7856    -0.5677    -0.0674 H       
  60 H60            4.2518     0.9945     0.5980 H       
  61 H61            6.8981     1.0974     0.0991 H       
  62 H62            8.0989     1.4429     2.6319 H       
  63 H63            8.6328    -0.1193     1.9665 H       
  64 H64            9.4939     0.9835    -0.0424 H       
  65 H65            8.0278     3.3151     0.9281 H       
  66 H66            6.8840     6.1358    -3.7489 H       
  67 H67            7.1231     8.1224    -2.3175 H       
  68 H68            8.2961     7.9627    -0.1613 H       
  69 H69            9.2265     5.8102     0.5817 H       
  70 H70           12.0307     1.0033     2.6060 H       
  71 H71           -2.9239     2.1397     2.0678 H       
  72 H72           -2.5790     1.6825     3.7531 H       
  73 H73           -2.3288     4.3396     1.2306 H       
  74 H74           -1.9155     6.7024     1.7870 H       
  75 H75           -1.2962     7.3361     4.0844 H       
  76 H76           -1.0909     5.6071     5.8256 H       
  77 H77           -1.5124     3.2453     5.2711 H       
@<TRIPOS>BOND
   1    1    2 1
   2    1    5 1
   3    1    6 am
   4    2    3 1
   5    2    9 1
   6    2   46 1
   7    3    4 1
   8    3   47 1
   9    3   48 1
  10    4    5 1
  11    4   17 1
  12    4   49 1
  13    5   50 1
  14    5   51 1
  15    6    7 2
  16    6    8 1
  17    8   39 1
  18    9   10 1
  19    9   52 1
  20    9   53 1
  21   10   11 1
  22   10   54 1
  23   11   12 ar
  24   11   16 ar
  25   12   13 ar
  26   12   55 1
  27   13   14 ar
  28   13   56 1
  29   14   15 ar
  30   14   57 1
  31   15   16 ar
  32   15   58 1
  33   17   18 1
  34   18   19 1
  35   18   59 1
  36   18   60 1
  37   19   20 am
  38   19   21 2
  39   20   22 1
  40   20   61 1
  41   22   23 1
  42   22   62 1
  43   22   63 1
  44   23   24 1
  45   23   36 1
  46   23   64 1
  47   24   25 am
  48   24   65 1
  49   25   26 1
  50   25   32 2
  51   26   27 ar
  52   26   31 ar
  53   27   28 ar
  54   27   33 1
  55   28   29 ar
  56   28   66 1
  57   29   30 ar
  58   29   67 1
  59   30   31 ar
  60   30   68 1
  61   31   69 1
  62   33   34 2
  63   33   35 2
  64   36   37 2
  65   36   38 1
  66   38   70 1
  67   39   40 1
  68   39   71 1
  69   39   72 1
  70   40   41 ar
  71   40   45 ar
  72   41   42 ar
  73   41   73 1
  74   42   43 ar
  75   42   74 1
  76   43   44 ar
  77   43   75 1
  78   44   45 ar
  79   44   76 1
  80   45   77 1

#	End of record

