#	Name: ASD01914291
#	Creating user name:	WinNT
#	Creation time:	15. 06. 2019 20:03

#	Modifying user name:	WinNT
#	Modification time:	15. 06. 2019 20:03

#	Program:	/corina/corina34_cracker 3.40 0067  02.08.2006

@<TRIPOS>MOLECULE
ASD01914291
  32   34    0    0    0
SMALL
NO_CHARGES


@<TRIPOS>ATOM
   1 N1            -0.0169     1.3963     0.0097 N.2     
   2 N2             0.0021    -0.0041     0.0020 N.pl3   
   3 C3             1.2265     1.8293     0.0002 C.2     
   4 C4             2.0818     0.7147    -0.0140 C.2     
   5 C5             1.3050    -0.4065    -0.0126 C.2     
   6 C6             1.7882    -1.8053    -0.0243 C.ar    
   7 C7             1.6518     3.2515     0.0030 C.ar    
   8 C8             3.0065     3.5760    -0.0144 C.ar    
   9 C9             0.8767    -2.8611    -0.0213 C.ar    
  10 C10            0.6976     4.2664     0.0173 C.ar    
  11 C11            1.0985     5.5872     0.0194 C.ar    
  12 C12            2.4449     5.9038     0.0073 C.ar    
  13 C13            3.3964     4.9000    -0.0122 C.ar    
  14 C14            1.3336    -4.1632    -0.0322 C.ar    
  15 C15            2.6922    -4.4224    -0.0461 C.ar    
  16 C16            3.6014    -3.3794    -0.0491 C.ar    
  17 C17            3.1572    -2.0733    -0.0441 C.ar    
  18 C18            0.3502    -5.3051    -0.0285 C.3     
  19 H19           -0.7745    -0.5852     0.0066 H       
  20 H20            3.1615     0.7411    -0.0247 H       
  21 H21            3.7502     2.7930    -0.0293 H       
  22 H22           -0.1843    -2.6599    -0.0101 H       
  23 H23           -0.3540     4.0203     0.0264 H       
  24 H24            0.3597     6.3748     0.0301 H       
  25 H25            2.7544     6.9385     0.0086 H       
  26 H26            4.4464     5.1527    -0.0212 H       
  27 H27            3.0448    -5.4432    -0.0542 H       
  28 H28            4.6610    -3.5882    -0.0599 H       
  29 H29            3.8678    -1.2600    -0.0468 H       
  30 H30            0.1033    -5.5753    -1.0552 H       
  31 H31            0.7924    -6.1638     0.4768 H       
  32 H32           -0.5563    -5.0023     0.4956 H       
@<TRIPOS>BOND
   1    1    2 1
   2    1    3 2
   3    2    5 1
   4    2   19 1
   5    3    4 1
   6    3    7 1
   7    4    5 2
   8    4   20 1
   9    5    6 1
  10    6    9 ar
  11    6   17 ar
  12    7   10 ar
  13    7    8 ar
  14    8   13 ar
  15    8   21 1
  16    9   14 ar
  17    9   22 1
  18   10   11 ar
  19   10   23 1
  20   11   12 ar
  21   11   24 1
  22   12   13 ar
  23   12   25 1
  24   13   26 1
  25   14   15 ar
  26   14   18 1
  27   15   16 ar
  28   15   27 1
  29   16   17 ar
  30   16   28 1
  31   17   29 1
  32   18   30 1
  33   18   31 1
  34   18   32 1

#	End of record

