#	Name: ASD04882239
#	Creating user name:	WinNT
#	Creation time:	15. 06. 2019 20:54

#	Modifying user name:	WinNT
#	Modification time:	15. 06. 2019 20:54

#	Program:	/corina/corina34_cracker 3.40 0067  02.08.2006

@<TRIPOS>MOLECULE
ASD04882239
  80   85    0    0    0
SMALL
NO_CHARGES


@<TRIPOS>ATOM
   1 N1            -0.1371     1.5565    -0.0346 N.am    
   2 C2            -0.0771     0.1569    -0.0447 C.ar    
   3 C3            -1.2535    -0.5942     0.0292 C.ar    
   4 C4            -1.1954    -1.9831     0.0193 C.ar    
   5 C5             0.0209    -2.6240    -0.0628 C.ar    
   6 C6             1.2011    -1.8789    -0.1369 C.ar    
   7 C7             1.1451    -0.4824    -0.1334 C.ar    
   8 N8            -2.4854     0.0496     0.1133 N.3     
   9 C9            -2.6133     0.7782     1.3831 C.3     
  10 C10           -3.5906    -0.9038    -0.0572 C.3     
  11 C11           -4.9209    -0.1473    -0.0380 C.3     
  12 N12           -5.0488     0.5813     1.2319 N.3     
  13 C13           -3.9436     1.5347     1.4023 C.3     
  14 C14            2.5038    -2.5657    -0.2249 C.2     
  15 O15            3.5301    -1.9168    -0.2893 O.2     
  16 C16            0.8436     2.2689     0.5546 C.2     
  17 O17            1.7269     1.6977     1.1668 O.2     
  18 C18            0.8464     3.7326     0.4581 C.2     
  19 N19            2.5564    -3.9124    -0.2337 N.am    
  20 C20           -6.2845     1.2270     1.3162 C.ar    
  21 C21           -7.1642     0.9149     2.3446 C.ar    
  22 C22           -6.6339     2.1872     0.3748 C.ar    
  23 C23           -7.8563     2.8236     0.4610 C.ar    
  24 C24           -8.7321     2.5066     1.4834 C.ar    
  25 C25           -8.3853     1.5554     2.4250 C.ar    
  26 C26           -0.0704     4.5073    -0.1890 C.2     
  27 N27            0.3005     5.7823    -0.0330 N.2     
  28 C28            1.3966     5.8225     0.6763 C.2     
  29 O29            1.7562     4.5761     0.9990 O.3     
  30 C30            2.1350     7.0750     1.0726 C.3     
  31 C31           -6.7871    -0.1218     3.3713 C.3     
  32 C32            2.6577     7.9724    -0.0510 C.3     
  33 C33            1.4562     8.4159     0.7861 C.3     
  34 C34            3.8501    -4.5944    -0.3211 C.3     
  35 C35            3.6300    -6.1085    -0.3128 C.3     
  36 C36            4.9607    -6.8100    -0.4027 C.2     
  37 N37            5.0133    -8.1567    -0.4115 N.am    
  38 C38            3.8519    -9.0624    -0.3457 C.3     
  39 C39            6.2380    -8.9659    -0.4949 C.3     
  40 C40            5.8083   -10.4481    -0.5010 C.3     
  41 C41            4.3404   -10.3814    -0.9948 C.3     
  42 O42            5.9843    -6.1627    -0.4670 O.2     
  43 H43           -0.8825     2.0131    -0.4552 H       
  44 H44           -2.1061    -2.5609     0.0766 H       
  45 H45            0.0627    -3.7031    -0.0695 H       
  46 H46            2.0554     0.0959    -0.1906 H       
  47 H47           -2.5848     0.0714     2.2123 H       
  48 H48           -1.7906     1.4866     1.4803 H       
  49 H49           -3.4805    -1.4216    -1.0100 H       
  50 H50           -3.5733    -1.6297     0.7557 H       
  51 H51           -4.9494     0.5596    -0.8672 H       
  52 H52           -5.7436    -0.8557    -0.1352 H       
  53 H53           -4.0537     2.0525     2.3552 H       
  54 H54           -3.9609     2.2606     0.5895 H       
  55 H55            1.7377    -4.4301    -0.1823 H       
  56 H56           -5.9502     2.4357    -0.4234 H       
  57 H57           -8.1285     3.5701    -0.2705 H       
  58 H58           -9.6873     3.0064     1.5490 H       
  59 H59           -9.0716     1.3101     3.2220 H       
  60 H60           -0.9371     4.1555    -0.7289 H       
  61 H61            2.7379     6.9988     1.9775 H       
  62 H62           -6.2733     0.3606     4.2029 H       
  63 H63           -7.6875    -0.6149     3.7375 H       
  64 H64           -6.1276    -0.8608     2.9163 H       
  65 H65            3.6041     8.4869     0.1149 H       
  66 H66            2.4674     7.6568    -1.0768 H       
  67 H67            0.4755     8.3921     0.3110 H       
  68 H68            1.6123     9.2222     1.5027 H       
  69 H69            4.3516    -4.3052    -1.2446 H       
  70 H70            4.4678    -4.3124     0.5316 H       
  71 H71            3.1284    -6.3977     0.6107 H       
  72 H72            3.0123    -6.3905    -1.1655 H       
  73 H73            3.5630    -9.2340     0.6912 H       
  74 H74            3.0159    -8.6488    -0.9098 H       
  75 H75            6.7751    -8.7318    -1.4140 H       
  76 H76            6.8728    -8.7675     0.3687 H       
  77 H77            6.4205   -11.0242    -1.1949 H       
  78 H78            5.8615   -10.8692     0.5029 H       
  79 H79            3.7659   -11.2321    -0.6282 H       
  80 H80            4.2962   -10.3216    -2.0822 H       
@<TRIPOS>BOND
   1    1    2 1
   2    1   16 am
   3    1   43 1
   4    2    3 ar
   5    2    7 ar
   6    3    4 ar
   7    3    8 1
   8    4    5 ar
   9    4   44 1
  10    5    6 ar
  11    5   45 1
  12    6    7 ar
  13    6   14 1
  14    7   46 1
  15    8    9 1
  16    8   10 1
  17    9   13 1
  18    9   47 1
  19    9   48 1
  20   10   11 1
  21   10   49 1
  22   10   50 1
  23   11   12 1
  24   11   51 1
  25   11   52 1
  26   12   13 1
  27   12   20 1
  28   13   53 1
  29   13   54 1
  30   14   15 2
  31   14   19 am
  32   16   17 2
  33   16   18 1
  34   18   26 2
  35   18   29 1
  36   19   34 1
  37   19   55 1
  38   20   21 ar
  39   20   22 ar
  40   21   31 1
  41   21   25 ar
  42   22   23 ar
  43   22   56 1
  44   23   24 ar
  45   23   57 1
  46   24   25 ar
  47   24   58 1
  48   25   59 1
  49   26   27 1
  50   26   60 1
  51   27   28 2
  52   28   29 1
  53   28   30 1
  54   30   32 1
  55   30   33 1
  56   30   61 1
  57   31   62 1
  58   31   63 1
  59   31   64 1
  60   32   33 1
  61   32   65 1
  62   32   66 1
  63   33   67 1
  64   33   68 1
  65   34   35 1
  66   34   69 1
  67   34   70 1
  68   35   36 1
  69   35   71 1
  70   35   72 1
  71   36   37 am
  72   36   42 2
  73   37   39 1
  74   37   38 1
  75   38   41 1
  76   38   73 1
  77   38   74 1
  78   39   40 1
  79   39   75 1
  80   39   76 1
  81   40   41 1
  82   40   77 1
  83   40   78 1
  84   41   79 1
  85   41   80 1

#	End of record

