#	Name: ASD02508258
#	Creating user name:	WinNT
#	Creation time:	15. 06. 2019 20:24

#	Modifying user name:	WinNT
#	Modification time:	15. 06. 2019 20:24

#	Program:	/corina/corina34_cracker 3.40 0067  02.08.2006

@<TRIPOS>MOLECULE
ASD02508258
  47   49    0    0    0
SMALL
NO_CHARGES


@<TRIPOS>ATOM
   1 C1             0.3089     1.0080     0.9350 C.ar    
   2 C2             0.2799    -0.3158     0.4973 C.ar    
   3 C3            -0.9333    -0.9117     0.1899 C.ar    
   4 C4            -2.1059    -0.1931     0.3183 C.ar    
   5 C5            -2.0760     1.1209     0.7523 C.ar    
   6 C6            -0.8723     1.7214     1.0661 C.ar    
   7 S7            -3.6470    -0.9524    -0.0729 S.o2    
   8 N8            -4.1885    -1.6994     1.3023 N.am    
   9 C9            -3.4440    -2.7352     1.8747 C.ar    
  10 N10            1.6483     1.3235     1.1617 N.am    
  11 C11            2.3776     0.2285     0.8690 C.2     
  12 O12            1.5607    -0.7588     0.4694 O.3     
  13 O13           -4.5584     0.1043    -0.3410 O.2     
  14 O14           -3.3598    -1.9863    -1.0045 O.2     
  15 C15            2.1677     2.6100     1.6322 C.3     
  16 O16            3.5879     0.1476     0.9536 O.2     
  17 C17           -3.2315    -2.7628     3.2469 C.ar    
  18 C18           -2.9208    -3.7408     1.0726 C.ar    
  19 C19           -2.1853    -4.7636     1.6397 C.ar    
  20 C20           -1.9698    -4.7872     3.0067 C.ar    
  21 C21           -2.4952    -3.7877     3.8104 C.ar    
  22 Cl22          -2.2233    -3.8199     5.5246 Cl      
  23 C23           -0.8423     3.1520     1.5390 C.3     
  24 F24           -1.2506    -5.7887     3.5591 F       
  25 C25            2.4981     3.4970     0.4302 C.3     
  26 N26            3.0189     4.7870     0.9019 N.3     
  27 C27            4.3125     4.6174     1.5771 C.3     
  28 C28            3.1242     5.7484    -0.2038 C.3     
  29 H29           -0.9617    -1.9365    -0.1498 H       
  30 H30           -2.9967     1.6769     0.8496 H       
  31 H31           -5.0222    -1.4182     1.7107 H       
  32 H32            1.4162     3.1011     2.2505 H       
  33 H33            3.0703     2.4443     2.2204 H       
  34 H34           -3.6410    -1.9839     3.8731 H       
  35 H35           -3.0890    -3.7235     0.0060 H       
  36 H36           -1.7784    -5.5457     1.0159 H       
  37 H37           -0.8304     3.1742     2.6287 H       
  38 H38            0.0523     3.6427     1.1557 H       
  39 H39           -1.7273     3.6737     1.1747 H       
  40 H40            3.2496     3.0060    -0.1881 H       
  41 H41            1.5955     3.6628    -0.1580 H       
  42 H42            5.0311     4.1836     0.8817 H       
  43 H43            4.6753     5.5876     1.9163 H       
  44 H44            4.1909     3.9550     2.4342 H       
  45 H45            2.1388     5.9082    -0.6414 H       
  46 H46            3.5123     6.6946     0.1731 H       
  47 H47            3.7998     5.3555    -0.9637 H       
@<TRIPOS>BOND
   1    1    2 ar
   2    1   10 1
   3    1    6 ar
   4    2    3 ar
   5    2   12 1
   6    3    4 ar
   7    3   29 1
   8    4    5 ar
   9    4    7 1
  10    5    6 ar
  11    5   30 1
  12    6   23 1
  13    7    8 am
  14    7   13 2
  15    7   14 2
  16    8    9 1
  17    8   31 1
  18    9   17 ar
  19    9   18 ar
  20   10   11 am
  21   10   15 1
  22   11   12 1
  23   11   16 2
  24   15   25 1
  25   15   32 1
  26   15   33 1
  27   17   21 ar
  28   17   34 1
  29   18   19 ar
  30   18   35 1
  31   19   20 ar
  32   19   36 1
  33   20   21 ar
  34   20   24 1
  35   21   22 1
  36   23   37 1
  37   23   38 1
  38   23   39 1
  39   25   26 1
  40   25   40 1
  41   25   41 1
  42   26   27 1
  43   26   28 1
  44   27   42 1
  45   27   43 1
  46   27   44 1
  47   28   45 1
  48   28   46 1
  49   28   47 1

#	End of record

