#	Name: ASD01908362
#	Creating user name:	WinNT
#	Creation time:	15. 06. 2019 19:55

#	Modifying user name:	WinNT
#	Modification time:	15. 06. 2019 19:55

#	Program:	/corina/corina34_cracker 3.40 0067  02.08.2006

@<TRIPOS>MOLECULE
ASD01908362
  43   46    0    0    0
SMALL
NO_CHARGES


@<TRIPOS>ATOM
   1 C1            -0.0145     1.4094     0.0543 C.ar    
   2 C2             0.0002     0.0275     0.0478 C.ar    
   3 C3             1.2044    -0.6452     0.0282 C.ar    
   4 C4             2.4044     0.0560     0.0148 C.ar    
   5 C5             2.3899     1.4323     0.0212 C.ar    
   6 C6             1.1753     2.1077     0.0410 C.ar    
   7 S7             4.0585    -0.5558    -0.0113 S.o2    
   8 N8             5.0536     0.7724    -0.0194 N.am    
   9 S9             4.0306     2.0791     0.0010 S.o2    
  10 C10            6.4523     0.7873    -0.0384 C.ar    
  11 C11            7.1340     1.9974    -0.0427 C.ar    
  12 C12            7.1595    -0.4081    -0.0473 C.ar    
  13 C13            8.5398    -0.3933    -0.0661 C.ar    
  14 C14            9.2213     0.8167    -0.0757 C.ar    
  15 C15            8.5143     2.0120    -0.0615 C.ar    
  16 N16           10.6216     0.8316    -0.0938 N.am    
  17 C17           11.2766     1.7969    -0.7688 C.2     
  18 O18           10.6554     2.5969    -1.4411 O.2     
  19 C19           12.7508     1.8830    -0.6916 C.ar    
  20 C20           13.4293     2.8832    -1.3910 C.ar    
  21 C21           14.8023     2.9638    -1.3189 C.ar    
  22 C22           15.5161     2.0449    -0.5461 C.ar    
  23 C23           14.8372     1.0445     0.1535 C.ar    
  24 C24           13.4638     0.9675     0.0853 C.ar    
  25 O25            4.1900     2.7357    -1.2491 O.2     
  26 O26            4.2253     2.7244     1.2520 O.2     
  27 O27            4.2669    -1.2085     1.2336 O.2     
  28 O28            4.2316    -1.1971    -1.2675 O.2     
  29 C29           16.9437     2.1282    -0.4713 C.1     
  30 N30           18.0762     2.1943    -0.4120 N.1     
  31 H31           -0.9545     1.9411     0.0651 H       
  32 H32           -0.9283    -0.5242     0.0584 H       
  33 H33            1.2149    -1.7251     0.0235 H       
  34 H34            1.1628     3.1876     0.0458 H       
  35 H35            6.5842     2.9269    -0.0316 H       
  36 H36            6.6296    -1.3491    -0.0391 H       
  37 H37            9.0898    -1.3228    -0.0730 H       
  38 H38            9.0443     2.9530    -0.0693 H       
  39 H39           11.1201     0.1471     0.3794 H       
  40 H40           12.8774     3.5934    -1.9889 H       
  41 H41           15.3270     3.7372    -1.8601 H       
  42 H42           15.3889     0.3339     0.7510 H       
  43 H43           12.9388     0.1942     0.6264 H       
@<TRIPOS>BOND
   1    1    2 ar
   2    1    6 ar
   3    1   31 1
   4    2    3 ar
   5    2   32 1
   6    3    4 ar
   7    3   33 1
   8    4    5 ar
   9    4    7 1
  10    5    6 ar
  11    5    9 1
  12    6   34 1
  13    7    8 am
  14    7   27 2
  15    7   28 2
  16    8    9 am
  17    8   10 1
  18    9   25 2
  19    9   26 2
  20   10   11 ar
  21   10   12 ar
  22   11   15 ar
  23   11   35 1
  24   12   13 ar
  25   12   36 1
  26   13   14 ar
  27   13   37 1
  28   14   15 ar
  29   14   16 1
  30   15   38 1
  31   16   17 am
  32   16   39 1
  33   17   18 2
  34   17   19 1
  35   19   20 ar
  36   19   24 ar
  37   20   21 ar
  38   20   40 1
  39   21   22 ar
  40   21   41 1
  41   22   23 ar
  42   22   29 1
  43   23   24 ar
  44   23   42 1
  45   24   43 1
  46   29   30 3

#	End of record

