#	Name: ASD05940051
#	Creating user name:	WinNT
#	Creation time:	15. 06. 2019 21:04

#	Modifying user name:	WinNT
#	Modification time:	15. 06. 2019 21:04

#	Program:	/corina/corina34_cracker 3.40 0067  02.08.2006

@<TRIPOS>MOLECULE
ASD05940051
  59   62    0    0    0
SMALL
NO_CHARGES


@<TRIPOS>ATOM
   1 N1            -0.0159     1.3181     0.0093 N.ar    
   2 C2             0.0021    -0.0041     0.0020 C.ar    
   3 N3             1.1319    -0.6930    -0.0101 N.ar    
   4 C4             2.3066    -0.0681    -0.0158 C.ar    
   5 C5             2.3274     1.3257    -0.0126 C.ar    
   6 C6             1.1197     2.0168     0.0022 C.ar    
   7 N7             3.4912    -0.7843    -0.0194 N.3     
   8 C8             4.5325    -0.1239    -0.8126 C.3     
   9 C9             4.6626     1.3202    -0.4024 C.2     
  10 N10            3.5574     2.0048    -0.0283 N.am    
  11 N11            1.0976     3.4049     0.0085 N.pl3   
  12 O12           -1.1750    -0.6756     0.0076 O.3     
  13 C13            3.2722    -2.1617    -0.4807 C.3     
  14 O14            5.7473     1.8634    -0.4080 O.2     
  15 C15           -2.3694     0.1089     0.0211 C.3     
  16 C16           -3.5876    -0.8168     0.0256 C.3     
  17 C17           -4.8663     0.0231     0.0401 C.3     
  18 C18           -6.0845    -0.9026     0.0446 C.3     
  19 C19            4.6022    -2.8335    -0.7061 C.ar    
  20 C20            5.2124    -3.5217     0.3255 C.ar    
  21 C21            6.4327    -4.1380     0.1188 C.ar    
  22 C22            7.0420    -4.0662    -1.1197 C.ar    
  23 C23            6.4312    -3.3785    -2.1519 C.ar    
  24 C24            5.2093    -2.7662    -1.9464 C.ar    
  25 C25            7.0958    -3.2999    -3.5021 C.3     
  26 N26            6.6626    -4.4310    -4.3263 N.pl3   
  27 N27            6.7506    -5.5967    -6.3616 N.ar    
  28 C28            7.1461    -4.5723    -5.6218 C.ar    
  29 C29            7.1851    -5.7674    -7.5960 C.ar    
  30 C30            8.0739    -4.8767    -8.1631 C.ar    
  31 C31            8.5135    -3.7884    -7.4206 C.ar    
  32 C32            8.0409    -3.6358    -6.1299 C.ar    
  33 H33            5.4840    -0.6315    -0.6537 H       
  34 H34            4.2697    -0.1768    -1.8692 H       
  35 H35            3.6126     2.9403     0.2223 H       
  36 H36            1.9298     3.9032     0.0026 H       
  37 H37            0.2500     3.8765     0.0188 H       
  38 H38            2.7102    -2.7125     0.2736 H       
  39 H39            2.7096    -2.1471    -1.4142 H       
  40 H40           -2.3840     0.7330     0.9146 H       
  41 H41           -2.3979     0.7426    -0.8653 H       
  42 H42           -3.5729    -1.4409    -0.8679 H       
  43 H43           -3.5591    -1.4505     0.9120 H       
  44 H44           -4.8810     0.6473     0.9336 H       
  45 H45           -4.8948     0.6569    -0.8463 H       
  46 H46           -6.0560    -1.5363     0.9309 H       
  47 H47           -6.9955    -0.3042     0.0549 H       
  48 H48           -6.0698    -1.5267    -0.8489 H       
  49 H49            4.7363    -3.5778     1.2933 H       
  50 H50            6.9099    -4.6751     0.9251 H       
  51 H51            7.9956    -4.5470    -1.2811 H       
  52 H52            4.7321    -2.2290    -2.7527 H       
  53 H53            6.8167    -2.3664    -3.9907 H       
  54 H54            8.1780    -3.3350    -3.3770 H       
  55 H55            6.0384    -5.0812    -3.9679 H       
  56 H56            6.8410    -6.6152    -8.1697 H       
  57 H57            8.4243    -5.0247    -9.1739 H       
  58 H58            9.2091    -3.0775    -7.8416 H       
  59 H59            8.3622    -2.8012    -5.5244 H       
@<TRIPOS>BOND
   1    1    2 ar
   2    1    6 ar
   3    2    3 ar
   4    2   12 1
   5    3    4 ar
   6    4    5 ar
   7    4    7 1
   8    5    6 ar
   9    5   10 1
  10    6   11 1
  11    7    8 1
  12    7   13 1
  13    8    9 1
  14    8   33 1
  15    8   34 1
  16    9   10 am
  17    9   14 2
  18   10   35 1
  19   11   36 1
  20   11   37 1
  21   12   15 1
  22   13   19 1
  23   13   38 1
  24   13   39 1
  25   15   16 1
  26   15   40 1
  27   15   41 1
  28   16   17 1
  29   16   42 1
  30   16   43 1
  31   17   18 1
  32   17   44 1
  33   17   45 1
  34   18   46 1
  35   18   47 1
  36   18   48 1
  37   19   20 ar
  38   19   24 ar
  39   20   21 ar
  40   20   49 1
  41   21   22 ar
  42   21   50 1
  43   22   23 ar
  44   22   51 1
  45   23   24 ar
  46   23   25 1
  47   24   52 1
  48   25   26 1
  49   25   53 1
  50   25   54 1
  51   26   28 1
  52   26   55 1
  53   27   28 ar
  54   27   29 ar
  55   28   32 ar
  56   29   30 ar
  57   29   56 1
  58   30   31 ar
  59   30   57 1
  60   31   32 ar
  61   31   58 1
  62   32   59 1

#	End of record

