#	Name: ASD03320108
#	Creating user name:	WinNT
#	Creation time:	15. 06. 2019 20:36

#	Modifying user name:	WinNT
#	Modification time:	15. 06. 2019 20:36

#	Program:	/corina/corina34_cracker 3.40 0067  02.08.2006

@<TRIPOS>MOLECULE
ASD03320108
  71   74    0    0    0
SMALL
NO_CHARGES


@<TRIPOS>ATOM
   1 C1            -0.0666     1.3393    -0.5342 C.2     
   2 C2             0.0859    -0.1156    -0.3418 C.ar    
   3 C3             0.9559    -0.6145     0.6369 C.ar    
   4 C4             1.0650    -1.9948     0.7796 C.ar    
   5 C5             0.3031    -2.8285    -0.0580 C.ar    
   6 N6            -0.5067    -2.3130    -0.9704 N.ar    
   7 C7            -0.6393    -1.0126    -1.1288 C.ar    
   8 O8             0.5649     2.1137     0.1588 O.2     
   9 N9            -0.9016     1.8099    -1.4817 N.am    
  10 C10           -1.1329     3.1868    -1.5900 C.ar    
  11 C11           -1.5766     3.7243    -2.7910 C.ar    
  12 C12           -1.8049     5.0821    -2.8969 C.ar    
  13 C13           -1.5906     5.9091    -1.8040 C.ar    
  14 C14           -1.1468     5.3729    -0.6040 C.ar    
  15 C15           -0.9241     4.0145    -0.4948 C.ar    
  16 O16           -1.8151     7.2460    -1.9091 O.3     
  17 C17           -1.5739     8.0380    -0.7444 C.3     
  18 F18           -0.2338     7.9107    -0.3633 F       
  19 F19           -1.8531     9.3795    -1.0266 F       
  20 F20           -2.3985     7.5991     0.2970 F       
  21 N21            0.4008    -4.2016     0.0719 N.3     
  22 C22           -0.9288    -4.8106     0.2594 C.3     
  23 C23           -1.1156    -5.8548    -0.8613 C.3     
  24 C24            0.3418    -6.1823    -1.2803 C.3     
  25 C25            1.0300    -4.8035    -1.1229 C.3     
  26 O26           -1.7717    -7.0214    -0.3608 O.3     
  27 C27            1.9687    -2.5755     1.7963 C.2     
  28 C28            1.6851    -3.6214     2.6292 C.2     
  29 C29            2.8064    -3.8482     3.4276 C.2     
  30 N30            3.7333    -2.9837     3.1008 N.2     
  31 N31            3.2406    -2.1706     2.0721 N.pl3   
  32 C32            3.9598    -1.0754     1.4169 C.3     
  33 O33            4.5545    -1.5519     0.2081 O.3     
  34 C34            5.2841    -0.5566    -0.5124 C.3     
  35 C35            5.8737    -1.1753    -1.7815 C.3     
  36 Si36           6.8249     0.1223    -2.7208 Si      
  37 C37            8.2025     0.7780    -1.6517 C.3     
  38 C38            7.5428    -0.6311    -4.2661 C.3     
  39 C39            5.6805     1.5174    -3.1840 C.3     
  40 H40            1.5271     0.0544     1.2636 H       
  41 H41           -1.3152    -0.6343    -1.8815 H       
  42 H42           -1.3424     1.1948    -2.0886 H       
  43 H43           -1.7428     3.0807    -3.6422 H       
  44 H44           -2.1500     5.5002    -3.8309 H       
  45 H45           -0.9795     6.0175     0.2463 H       
  46 H46           -0.5832     3.5966     0.4409 H       
  47 H47           -0.9794    -5.2983     1.2329 H       
  48 H48           -1.7011    -4.0449     0.1853 H       
  49 H49           -1.6702    -5.4281    -1.6971 H       
  50 H50            0.7848    -6.9186    -0.6096 H       
  51 H51            0.3834    -6.5237    -2.3146 H       
  52 H52            0.8455    -4.1848    -2.0012 H       
  53 H53            2.1011    -4.9297    -0.9649 H       
  54 H54           -1.9133    -7.7089    -1.0258 H       
  55 H55            0.7579    -4.1740     2.6632 H       
  56 H56            2.8948    -4.6096     4.1884 H       
  57 H57            3.2628    -0.2698     1.1859 H       
  58 H58            4.7383    -0.7025     2.0824 H       
  59 H59            4.6145     0.2597    -0.7834 H       
  60 H60            6.0901    -0.1730     0.1131 H       
  61 H61            6.5433    -1.9916    -1.5105 H       
  62 H62            5.0677    -1.5590    -2.4070 H       
  63 H63            8.8721    -0.0383    -1.3807 H       
  64 H64            8.7590     1.5371    -2.2013 H       
  65 H65            7.7824     1.2187    -0.7476 H       
  66 H66            6.7368    -1.0147    -4.8916 H       
  67 H67            8.0993     0.1281    -4.8157 H       
  68 H68            8.2124    -1.4474    -3.9951 H       
  69 H69            5.2604     1.9582    -2.2799 H       
  70 H70            6.2370     2.2766    -3.7336 H       
  71 H71            4.8745     1.1338    -3.8095 H       
@<TRIPOS>BOND
   1    1    2 1
   2    1    8 2
   3    1    9 am
   4    2    3 ar
   5    2    7 ar
   6    3    4 ar
   7    3   40 1
   8    4    5 ar
   9    4   27 1
  10    5    6 ar
  11    5   21 1
  12    6    7 ar
  13    7   41 1
  14    9   10 1
  15    9   42 1
  16   10   11 ar
  17   10   15 ar
  18   11   12 ar
  19   11   43 1
  20   12   13 ar
  21   12   44 1
  22   13   14 ar
  23   13   16 1
  24   14   15 ar
  25   14   45 1
  26   15   46 1
  27   16   17 1
  28   17   18 1
  29   17   19 1
  30   17   20 1
  31   21   22 1
  32   21   25 1
  33   22   23 1
  34   22   47 1
  35   22   48 1
  36   23   24 1
  37   23   26 1
  38   23   49 1
  39   24   25 1
  40   24   50 1
  41   24   51 1
  42   25   52 1
  43   25   53 1
  44   26   54 1
  45   27   28 2
  46   27   31 1
  47   28   29 1
  48   28   55 1
  49   29   30 2
  50   29   56 1
  51   30   31 1
  52   31   32 1
  53   32   33 1
  54   32   57 1
  55   32   58 1
  56   33   34 1
  57   34   35 1
  58   34   59 1
  59   34   60 1
  60   35   36 1
  61   35   61 1
  62   35   62 1
  63   36   37 1
  64   36   38 1
  65   36   39 1
  66   37   63 1
  67   37   64 1
  68   37   65 1
  69   38   66 1
  70   38   67 1
  71   38   68 1
  72   39   69 1
  73   39   70 1
  74   39   71 1

#	End of record

