#	Name: ASD05643001
#	Creating user name:	WinNT
#	Creation time:	15. 06. 2019 21:01

#	Modifying user name:	WinNT
#	Modification time:	15. 06. 2019 21:01

#	Program:	/corina/corina34_cracker 3.40 0067  02.08.2006

@<TRIPOS>MOLECULE
ASD05643001
  68   74    0    0    0
SMALL
NO_CHARGES


@<TRIPOS>ATOM
   1 N1            -0.0165     1.3670     0.0096 N.pl3   
   2 C2             0.0021    -0.0041     0.0020 C.2     
   3 C3             1.2277    -0.6586    -0.0132 C.2     
   4 C4             2.4464     0.1565    -0.0206 C.2     
   5 N5             2.3250     1.4931    -0.0122 N.2     
   6 C6             1.1442     2.0732     0.0023 C.2     
   7 N7             1.0827     3.4410     0.0102 N.pl3   
   8 N8            -0.9518    -0.9748     0.0055 N.pl3   
   9 C9            -0.3120    -2.1793    -0.0073 C.2     
  10 N10            0.9761    -1.9883    -0.0184 N.2     
  11 O11            3.5483    -0.3695    -0.0335 O.2     
  12 C12           -2.4016    -0.7643     0.0204 C.3     
  13 O13           -3.0527    -1.9145     0.5558 O.3     
  14 C14           -3.6582    -2.6947    -0.4695 C.3     
  15 C15           -3.4952    -1.9436    -1.7985 C.3     
  16 C16           -2.9159    -0.5703    -1.4148 C.3     
  17 O17           -3.9361     0.4298    -1.4492 O.3     
  18 O18           -4.7623    -1.7869    -2.4406 O.3     
  19 H19           -2.8044    -2.4762    -2.4528 H       
  20 P20           -5.0241    -2.1981    -3.9751 P.3     
  21 O21           -5.4791    -0.9546    -4.7711 O.co2   
  22 O22           -3.7197    -2.7537    -4.5891 O.co2   
  23 O23           -6.1709    -3.3262    -4.0402 O.3     
  24 C24           -6.0197    -4.5493    -4.7637 C.3     
  25 C25           -6.6362    -5.6962    -3.9586 C.3     
  26 H26           -7.1439    -5.2930    -3.0801 H       
  27 C27           -5.5347    -6.6699    -3.5159 C.3     
  28 C28           -6.0359    -8.0620    -3.9410 C.3     
  29 C29           -7.1561    -7.7690    -4.9512 C.3     
  30 O30           -7.5622    -6.4152    -4.7662 O.3     
  31 N31           -6.6563    -7.9558    -6.3156 N.pl3   
  32 O32           -6.5527    -8.7726    -2.8141 O.3     
  33 H33           -4.5965    -6.4357    -4.0194 H       
  34 O34           -5.3625    -6.6156    -2.0984 O.3     
  35 P35           -3.9275    -6.4137    -1.3968 P.3     
  36 O36           -3.9607    -5.0923    -0.4776 O.3     
  37 O37           -3.6058    -7.6438    -0.5190 O.co2   
  38 O38           -2.8403    -6.2580    -2.4834 O.co2   
  39 C39           -2.9745    -4.0614    -0.5602 C.3     
  40 H40           -4.7198    -2.8323    -0.2539 H       
  41 C41           -6.5997    -9.1322    -6.9976 C.2     
  42 C42           -6.0601    -8.8375    -8.2438 C.2     
  43 N43           -5.8114    -7.5076    -8.2726 N.2     
  44 C44           -6.1682    -6.9816    -7.1359 C.2     
  45 N45           -6.9417   -10.4294    -6.7141 N.pl3   
  46 C46           -6.7560   -11.4097    -7.6363 C.2     
  47 N47           -6.2481   -11.1738    -8.8268 N.2     
  48 C48           -5.8841    -9.9365    -9.1982 C.2     
  49 O49           -5.4142    -9.7308   -10.3063 O.2     
  50 N50           -7.1105   -12.6924    -7.3142 N.pl3   
  51 H51           -0.8653     1.8366     0.0161 H       
  52 H52            1.9000     3.9633     0.0051 H       
  53 H53            0.2217     3.8877     0.0209 H       
  54 H54           -0.7989    -3.1433    -0.0075 H       
  55 H55           -2.6424     0.1116     0.6227 H       
  56 H56           -2.0954    -0.3031    -2.0809 H       
  57 H57           -3.6265     1.3156    -1.2156 H       
  58 H58           -6.5257    -4.4675    -5.7257 H       
  59 H59           -4.9602    -4.7472    -4.9257 H       
  60 H60           -5.2337    -8.6276    -4.4150 H       
  61 H61           -7.9995    -8.4358    -4.7718 H       
  62 H62           -6.8827    -9.6569    -3.0243 H       
  63 H63           -2.4446    -4.1406    -1.5095 H       
  64 H64           -2.2665    -4.1690     0.2615 H       
  65 H65           -6.0838    -5.9359    -6.8796 H       
  66 H66           -7.3191   -10.6491    -5.8479 H       
  67 H67           -7.4863   -12.8870    -6.4414 H       
  68 H68           -6.9858   -13.4065    -7.9587 H       
@<TRIPOS>BOND
   1    1    2 1
   2    1    6 1
   3    1   51 1
   4    2    3 2
   5    2    8 1
   6    3    4 1
   7    3   10 1
   8    4    5 1
   9    4   11 2
  10    5    6 2
  11    6    7 1
  12    7   52 1
  13    7   53 1
  14    8    9 1
  15    8   12 1
  16    9   10 2
  17    9   54 1
  18   12   13 1
  19   12   16 1
  20   12   55 1
  21   13   14 1
  22   14   15 1
  23   14   39 1
  24   14   40 1
  25   15   18 1
  26   15   19 1
  27   15   16 1
  28   16   17 1
  29   16   56 1
  30   17   57 1
  31   18   20 1
  32   20   21 ar
  33   20   22 ar
  34   20   23 1
  35   23   24 1
  36   24   25 1
  37   24   58 1
  38   24   59 1
  39   25   26 1
  40   25   27 1
  41   25   30 1
  42   27   33 1
  43   27   34 1
  44   27   28 1
  45   28   29 1
  46   28   32 1
  47   28   60 1
  48   29   30 1
  49   29   31 1
  50   29   61 1
  51   31   41 1
  52   31   44 1
  53   32   62 1
  54   34   35 1
  55   35   36 1
  56   35   37 ar
  57   35   38 ar
  58   36   39 1
  59   39   63 1
  60   39   64 1
  61   41   42 2
  62   41   45 1
  63   42   43 1
  64   42   48 1
  65   43   44 2
  66   44   65 1
  67   45   46 1
  68   45   66 1
  69   46   47 2
  70   46   50 1
  71   47   48 1
  72   48   49 2
  73   50   67 1
  74   50   68 1

#	End of record

