#	Name: ASD03540024
#	Creating user name:	WinNT
#	Creation time:	15. 06. 2019 20:42

#	Modifying user name:	WinNT
#	Modification time:	15. 06. 2019 20:42

#	Program:	/corina/corina34_cracker 3.40 0067  02.08.2006

@<TRIPOS>MOLECULE
ASD03540024
  51   54    0    0    0
SMALL
NO_CHARGES


@<TRIPOS>ATOM
   1 C1            -0.0164     1.3563     0.0095 C.2     
   2 N2             0.0021    -0.0041     0.0020 N.am    
   3 C3             1.2115    -0.6367    -0.0129 C.2     
   4 C4             2.4113     0.0970    -0.0208 C.2     
   5 C5             2.3181     1.5618    -0.0125 C.2     
   6 N6             1.0859     2.1108     0.0030 N.am    
   7 S7             0.9033    -2.3267    -0.0185 S.3     
   8 C8            -1.0851    -0.8317     0.0084 C.2     
   9 C9            -0.8596    -2.1540    -0.0005 C.2     
  10 C10           -1.8608    -3.2292     0.0031 C.2     
  11 O11           -3.0464    -2.9564     0.0156 O.2     
  12 N12           -1.4659    -4.5177    -0.0076 N.am    
  13 C13           -2.4642    -5.5899    -0.0040 C.3     
  14 C14           -1.7668    -6.9257    -0.0177 C.ar    
  15 C15           -1.4362    -7.5439     1.1740 C.ar    
  16 C16           -0.7969    -8.7685     1.1642 C.ar    
  17 C17           -0.4866    -9.3780    -0.0429 C.ar    
  18 C18           -0.8193    -8.7556    -1.2373 C.ar    
  19 C19           -1.4636    -7.5337    -1.2220 C.ar    
  20 O20            0.1428   -10.5824    -0.0552 O.3     
  21 C21            0.4311   -11.1506    -1.3343 C.3     
  22 O22            3.3177     2.2569    -0.0183 O.2     
  23 O23           -1.0950     1.9158     0.0175 O.2     
  24 C24            3.6609    -0.5523    -0.0358 C.2     
  25 O25            4.6852     0.1013    -0.0424 O.2     
  26 C26            0.9535     3.5698     0.0121 C.3     
  27 C27            0.9217     4.0625     1.4359 C.ar    
  28 C28            2.0993     4.3967     2.0782 C.ar    
  29 C29            2.0701     4.8486     3.3843 C.ar    
  30 C30            0.8632     4.9666     4.0480 C.ar    
  31 C31           -0.3145     4.6333     3.4054 C.ar    
  32 C32           -0.2856     4.1855     2.0979 C.ar    
  33 H33           -2.0898    -0.4355     0.0201 H       
  34 H34           -0.5206    -4.7352    -0.0176 H       
  35 H35           -3.0795    -5.5104     0.8922 H       
  36 H36           -3.0961    -5.5008    -0.8877 H       
  37 H37           -1.6777    -7.0689     2.1134 H       
  38 H38           -0.5386    -9.2508     2.0953 H       
  39 H39           -0.5787    -9.2280    -2.1782 H       
  40 H40           -1.7272    -7.0510    -2.1515 H       
  41 H41            0.9328   -12.1091    -1.2013 H       
  42 H42           -0.4986   -11.3003    -1.8833 H       
  43 H43            1.0789   -10.4759    -1.8939 H       
  44 H44            3.7089    -1.6313    -0.0413 H       
  45 H45            1.8021     4.0149    -0.5075 H       
  46 H46            0.0295     3.8539    -0.4914 H       
  47 H47            3.0421     4.3044     1.5597 H       
  48 H48            2.9901     5.1090     3.8863 H       
  49 H49            0.8405     5.3190     5.0686 H       
  50 H50           -1.2573     4.7252     3.9240 H       
  51 H51           -1.2060     3.9286     1.5947 H       
@<TRIPOS>BOND
   1    1    2 am
   2    1    6 am
   3    1   23 2
   4    2    3 1
   5    2    8 1
   6    3    4 2
   7    3    7 1
   8    4    5 1
   9    4   24 1
  10    5    6 am
  11    5   22 2
  12    6   26 1
  13    7    9 1
  14    8    9 2
  15    8   33 1
  16    9   10 1
  17   10   11 2
  18   10   12 am
  19   12   13 1
  20   12   34 1
  21   13   14 1
  22   13   35 1
  23   13   36 1
  24   14   15 ar
  25   14   19 ar
  26   15   16 ar
  27   15   37 1
  28   16   17 ar
  29   16   38 1
  30   17   18 ar
  31   17   20 1
  32   18   19 ar
  33   18   39 1
  34   19   40 1
  35   20   21 1
  36   21   41 1
  37   21   42 1
  38   21   43 1
  39   24   25 2
  40   24   44 1
  41   26   27 1
  42   26   45 1
  43   26   46 1
  44   27   28 ar
  45   27   32 ar
  46   28   29 ar
  47   28   47 1
  48   29   30 ar
  49   29   48 1
  50   30   31 ar
  51   30   49 1
  52   31   32 ar
  53   31   50 1
  54   32   51 1

#	End of record

