#	Name: ASD01918239
#	Creating user name:	WinNT
#	Creation time:	15. 06. 2019 20:11

#	Modifying user name:	WinNT
#	Modification time:	15. 06. 2019 20:11

#	Program:	/corina/corina34_cracker 3.40 0067  02.08.2006

@<TRIPOS>MOLECULE
ASD01918239
  47   49    0    0    0
SMALL
NO_CHARGES


@<TRIPOS>ATOM
   1 C1            -0.0167     1.3790     0.0096 C.ar    
   2 C2             0.0021    -0.0041     0.0020 C.ar    
   3 C3             1.2204    -0.6698    -0.0132 C.ar    
   4 C4             2.3829     0.0795    -0.0204 C.ar    
   5 C5             2.2912     1.4738    -0.0120 C.ar    
   6 N6             1.1036     2.0713     0.0026 N.ar    
   7 C7             3.4849     2.2647    -0.0187 C.1     
   8 C8             4.4635     2.9132    -0.0242 C.1     
   9 C9             5.6572     3.7042    -0.0309 C.ar    
  10 C10            5.5671     5.0943    -0.0226 C.ar    
  11 C11            6.7352     5.8525    -0.0323 C.ar    
  12 C12            7.9933     5.2045    -0.0644 C.ar    
  13 C13            8.0598     3.8095    -0.0637 C.ar    
  14 C14            6.9117     3.0745    -0.0401 C.ar    
  15 C15            6.7173     7.3119     0.0087 C.2     
  16 C16            7.8718     8.0142    -0.0476 C.2     
  17 N17            9.0792     7.3924    -0.1824 N.am    
  18 C18            9.1913     6.0412    -0.1106 C.2     
  19 O19           10.2939     5.5243    -0.0847 O.2     
  20 C20            7.7513     9.5075     0.0964 C.3     
  21 C21            8.9610    10.2462    -0.4321 C.3     
  22 C22           10.2587     9.5743    -0.0322 C.3     
  23 C23           10.3121     8.1265    -0.4619 C.3     
  24 C24           11.4253    10.3260    -0.6764 C.3     
  25 C25           10.4057     9.6457     1.4890 C.3     
  26 H26           -0.9635     1.8985     0.0169 H       
  27 H27           -0.9230    -0.5613     0.0083 H       
  28 H28            1.2594    -1.7491    -0.0191 H       
  29 H29            3.3475    -0.4060    -0.0319 H       
  30 H30            4.6019     5.5787    -0.0092 H       
  31 H31            9.0192     3.3138    -0.0772 H       
  32 H32            6.9680     1.9960    -0.0375 H       
  33 H33            5.7752     7.8345     0.0843 H       
  34 H34            6.8687     9.8433    -0.4481 H       
  35 H35            7.6244     9.7500     1.1514 H       
  36 H36            8.9039    10.2867    -1.5199 H       
  37 H37            8.9537    11.2635    -0.0407 H       
  38 H38           11.1356     7.6376     0.0586 H       
  39 H39           10.5070     8.0870    -1.5336 H       
  40 H40           11.4250    11.3605    -0.3328 H       
  41 H41           12.3644     9.8498    -0.3944 H       
  42 H42           11.3177    10.3033    -1.7608 H       
  43 H43            9.5659     9.1345     1.9596 H       
  44 H44           11.3373     9.1645     1.7870 H       
  45 H45           10.4187    10.6891     1.8042 H       
  46 Cl46          17.3644    16.3605     6.9596 Cl      
  47 H47           17.3644    17.7305     6.9596 H       
@<TRIPOS>BOND
   1    1    2 ar
   2    1    6 ar
   3    1   26 1
   4    2    3 ar
   5    2   27 1
   6    3    4 ar
   7    3   28 1
   8    4    5 ar
   9    4   29 1
  10    5    6 ar
  11    5    7 1
  12    7    8 3
  13    8    9 1
  14    9   10 ar
  15    9   14 ar
  16   10   11 ar
  17   10   30 1
  18   11   12 ar
  19   11   15 1
  20   12   13 ar
  21   12   18 1
  22   13   14 ar
  23   13   31 1
  24   14   32 1
  25   15   16 2
  26   15   33 1
  27   16   17 1
  28   16   20 1
  29   17   18 am
  30   17   23 1
  31   18   19 2
  32   20   21 1
  33   20   34 1
  34   20   35 1
  35   21   22 1
  36   21   36 1
  37   21   37 1
  38   22   23 1
  39   22   24 1
  40   22   25 1
  41   23   38 1
  42   23   39 1
  43   24   40 1
  44   24   41 1
  45   24   42 1
  46   25   43 1
  47   25   44 1
  48   25   45 1
  49   46   47 1

#	End of record

