#	Name: ASD01883468
#	Creating user name:	WinNT
#	Creation time:	15. 06. 2019 19:46

#	Modifying user name:	WinNT
#	Modification time:	15. 06. 2019 19:46

#	Program:	/corina/corina34_cracker 3.40 0067  02.08.2006

@<TRIPOS>MOLECULE
ASD01883468
  57   59    0    0    0
SMALL
NO_CHARGES


@<TRIPOS>ATOM
   1 N1             0.4170    -0.9768    -1.1560 N.am    
   2 C2            -0.3325    -1.6569    -2.0433 C.2     
   3 C3            -1.7058    -1.8781    -1.7840 C.2     
   4 C4            -2.2571    -1.3760    -0.5931 C.2     
   5 C5            -1.4221    -0.6729     0.2950 C.2     
   6 C6            -0.1163    -0.4964    -0.0026 C.2     
   7 O7             0.1712    -2.0815    -3.0694 O.2     
   8 C8            -2.5180    -2.5992    -2.7172 C.1     
   9 N9            -3.1624    -3.1712    -3.4576 N.1     
  10 N10           -3.5888    -1.5678    -0.3009 N.pl3   
  11 C11           -4.5029    -0.4230    -0.1886 C.3     
  12 C12           -5.2216    -0.4966     1.1623 C.3     
  13 C13           -5.9023    -1.8604     1.2998 C.3     
  14 C14           -4.8458    -2.9667     1.2539 C.3     
  15 C15           -4.1240    -2.9215    -0.1015 C.3     
  16 C16            1.8377    -0.7554    -1.4368 C.3     
  17 C17            2.0071     0.5562    -2.2061 C.3     
  18 C18            3.4908     0.7874    -2.4994 C.3     
  19 C19            4.0003    -0.3040    -3.4429 C.3     
  20 C20            3.6733     2.1565    -3.1576 C.3     
  21 C21           -6.6388    -1.9238     2.6131 C.ar    
  22 C22           -5.9498    -2.1997     3.7793 C.ar    
  23 C23           -6.6254    -2.2579     4.9839 C.ar    
  24 C24           -7.9899    -2.0397     5.0223 C.ar    
  25 C25           -8.6787    -1.7629     3.8562 C.ar    
  26 C26           -8.0024    -1.7004     2.6522 C.ar    
  27 O27           -6.8277    -2.0411     0.2261 O.3     
  28 C28           -7.4215    -3.3402     0.1829 C.3     
  29 H29           -1.8244    -0.2777     1.2161 H       
  30 H30            0.5148     0.0449     0.6867 H       
  31 H31           -3.9352     0.5054    -0.2504 H       
  32 H32           -5.2356    -0.4601    -0.9948 H       
  33 H33           -4.4977    -0.3686     1.9670 H       
  34 H34           -5.9721     0.2918     1.2185 H       
  35 H35           -4.1253    -2.8153     2.0577 H       
  36 H36           -5.3287    -3.9363     1.3753 H       
  37 H37           -4.8274    -3.1631    -0.8983 H       
  38 H38           -3.3051    -3.6408    -0.1036 H       
  39 H39            2.3892    -0.7000    -0.4983 H       
  40 H40            2.2224    -1.5805    -2.0362 H       
  41 H41            1.4556     0.5008    -3.1447 H       
  42 H42            1.6223     1.3813    -1.6068 H       
  43 H43            4.0549     0.7543    -1.5673 H       
  44 H44            5.0573    -0.1393    -3.6519 H       
  45 H45            3.8703    -1.2794    -2.9740 H       
  46 H46            3.4362    -0.2709    -4.3750 H       
  47 H47            3.3103     2.9340    -2.4854 H       
  48 H48            4.7303     2.3212    -3.3666 H       
  49 H49            3.1092     2.1896    -4.0897 H       
  50 H50           -4.8838    -2.3702     3.7492 H       
  51 H51           -6.0872    -2.4741     5.8949 H       
  52 H52           -8.5178    -2.0858     5.9634 H       
  53 H53           -9.7448    -1.5928     3.8862 H       
  54 H54           -8.5406    -1.4842     1.7412 H       
  55 H55           -8.1368    -3.3856    -0.6384 H       
  56 H56           -6.6450    -4.0897     0.0302 H       
  57 H57           -7.9357    -3.5361     1.1238 H       
@<TRIPOS>BOND
   1    1    2 am
   2    1   16 1
   3    1    6 1
   4    2    3 1
   5    2    7 2
   6    3    4 2
   7    3    8 1
   8    4    5 1
   9    4   10 1
  10    5    6 2
  11    5   29 1
  12    6   30 1
  13    8    9 3
  14   10   11 1
  15   10   15 1
  16   11   12 1
  17   11   31 1
  18   11   32 1
  19   12   13 1
  20   12   33 1
  21   12   34 1
  22   13   14 1
  23   13   21 1
  24   13   27 1
  25   14   15 1
  26   14   35 1
  27   14   36 1
  28   15   37 1
  29   15   38 1
  30   16   17 1
  31   16   39 1
  32   16   40 1
  33   17   18 1
  34   17   41 1
  35   17   42 1
  36   18   19 1
  37   18   20 1
  38   18   43 1
  39   19   44 1
  40   19   45 1
  41   19   46 1
  42   20   47 1
  43   20   48 1
  44   20   49 1
  45   21   22 ar
  46   21   26 ar
  47   22   23 ar
  48   22   50 1
  49   23   24 ar
  50   23   51 1
  51   24   25 ar
  52   24   52 1
  53   25   26 ar
  54   25   53 1
  55   26   54 1
  56   27   28 1
  57   28   55 1
  58   28   56 1
  59   28   57 1

#	End of record

