#	Name: ASD03082418
#	Creating user name:	WinNT
#	Creation time:	15. 06. 2019 20:27

#	Modifying user name:	WinNT
#	Modification time:	15. 06. 2019 20:27

#	Program:	/corina/corina34_cracker 3.40 0067  02.08.2006

@<TRIPOS>MOLECULE
ASD03082418
  54   57    0    0    0
SMALL
NO_CHARGES


@<TRIPOS>ATOM
   1 C1             2.4027     1.4200    -0.0237 C.ar    
   2 C2             3.5320     2.0374    -0.5451 C.ar    
   3 C3             4.7405     1.3597    -0.5696 C.ar    
   4 C4             4.8203     0.0659    -0.0735 C.ar    
   5 C5             3.6950    -0.5482     0.4455 C.ar    
   6 Cl6            3.7990    -2.1663     1.0657 Cl      
   7 N7             1.1828     2.1002     0.0020 N.pl3   
   8 C8             1.1616     3.4943     0.1153 C.2     
   9 C9             0.0189     4.3096     0.0445 C.2     
  10 N10            2.2046     4.2664     0.3117 N.2     
  11 N11            1.7621     5.5944     0.3661 N.pl3   
  12 C12            0.4138     5.5932     0.1991 C.2     
  13 C13            2.5656     6.7217     0.5621 C.ar    
  14 C14            2.2699     7.9285    -0.0685 C.ar    
  15 C15            3.6798     6.6689     1.3978 C.ar    
  16 C16            4.4468     7.8034     1.5652 C.ar    
  17 N17            4.1365     8.9270     0.9465 N.ar    
  18 C18            3.0876     9.0182     0.1514 C.ar    
  19 C19            5.6540     7.7590     2.4662 C.3     
  20 H20            2.8682     9.9565    -0.3363 H       
  21 C21           -0.4812     6.8056     0.1876 C.3     
  22 O22           -1.8354     6.3961    -0.0136 O.3     
  23 C23            2.4863     0.1229     0.4669 C.ar    
  24 C24           -2.7712     7.4758    -0.0410 C.3     
  25 C25           -4.1598     6.9317    -0.2575 C.ar    
  26 C26           -4.9432     6.5851     0.8274 C.ar    
  27 C27           -6.2169     6.0860     0.6288 C.ar    
  28 C28           -6.7073     5.9339    -0.6547 C.ar    
  29 C29           -5.9242     6.2813    -1.7395 C.ar    
  30 C30           -4.6521     6.7845    -1.5408 C.ar    
  31 O31            5.8471     1.9615    -1.0797 O.3     
  32 C32            7.0588     1.2040    -1.0732 C.3     
  33 H33            3.4685     3.0440    -0.9311 H       
  34 H34            5.7622    -0.4621    -0.0931 H       
  35 H35            0.3505     1.6058    -0.0586 H       
  36 H36           -0.9952     3.9706    -0.1069 H       
  37 H37            1.4128     8.0099    -0.7206 H       
  38 H38            3.9389     5.7527     1.9076 H       
  39 H39            6.5302     7.4703     1.8857 H       
  40 H40            5.8167     8.7437     2.9043 H       
  41 H41            5.4882     7.0309     3.2602 H       
  42 H42           -0.3974     7.3281     1.1405 H       
  43 H43           -0.1794     7.4724    -0.6201 H       
  44 H44            1.6088    -0.3582     0.8729 H       
  45 H45           -2.7349     8.0122     0.9072 H       
  46 H46           -2.5169     8.1565    -0.8535 H       
  47 H47           -4.5601     6.7040     1.8301 H       
  48 H48           -6.8288     5.8146     1.4763 H       
  49 H49           -7.7022     5.5433    -0.8099 H       
  50 H50           -6.3072     6.1621    -2.7423 H       
  51 H51           -4.0403     7.0559    -2.3884 H       
  52 H52            7.3160     0.9388    -0.0477 H       
  53 H53            6.9226     0.2956    -1.6601 H       
  54 H54            7.8620     1.7997    -1.5068 H       
@<TRIPOS>BOND
   1    1    2 ar
   2    1    7 1
   3    1   23 ar
   4    2    3 ar
   5    2   33 1
   6    3    4 ar
   7    3   31 1
   8    4    5 ar
   9    4   34 1
  10    5   23 ar
  11    5    6 1
  12    7    8 1
  13    7   35 1
  14    8    9 1
  15    8   10 2
  16    9   12 2
  17    9   36 1
  18   10   11 1
  19   11   12 1
  20   11   13 1
  21   12   21 1
  22   13   14 ar
  23   13   15 ar
  24   14   18 ar
  25   14   37 1
  26   15   16 ar
  27   15   38 1
  28   16   17 ar
  29   16   19 1
  30   17   18 ar
  31   18   20 1
  32   19   39 1
  33   19   40 1
  34   19   41 1
  35   21   22 1
  36   21   42 1
  37   21   43 1
  38   22   24 1
  39   23   44 1
  40   24   25 1
  41   24   45 1
  42   24   46 1
  43   25   26 ar
  44   25   30 ar
  45   26   27 ar
  46   26   47 1
  47   27   28 ar
  48   27   48 1
  49   28   29 ar
  50   28   49 1
  51   29   30 ar
  52   29   50 1
  53   30   51 1
  54   31   32 1
  55   32   52 1
  56   32   53 1
  57   32   54 1

#	End of record

