#	Name: ASD01915385
#	Creating user name:	WinNT
#	Creation time:	15. 06. 2019 20:05

#	Modifying user name:	WinNT
#	Modification time:	15. 06. 2019 20:05

#	Program:	/corina/corina34_cracker 3.40 0067  02.08.2006

@<TRIPOS>MOLECULE
ASD01915385
  54   57    0    0    0
SMALL
NO_CHARGES


@<TRIPOS>ATOM
   1 C1            -0.2310     1.6472    -0.3259 C.ar    
   2 C2            -0.4263     0.2897    -0.5694 C.ar    
   3 N3             0.6070    -0.5088    -0.8039 N.ar    
   4 C4             1.8431    -0.0534    -0.8152 C.ar    
   5 C5             2.1095     1.2833    -0.5808 C.ar    
   6 C6             1.0577     2.1531    -0.3317 C.ar    
   7 C7             3.5286     1.7902    -0.5957 C.3     
   8 N8             4.4471     0.7173    -0.1871 N.am    
   9 C9             5.3694     0.4345    -1.3018 C.3     
  10 C10            5.3966     1.7402    -2.1350 C.3     
  11 C11            3.9213     2.2086    -2.0283 C.3     
  12 C12            4.4464     0.0959     1.0089 C.2     
  13 O13            3.6962     0.4720     1.8892 O.2     
  14 C14            5.3541    -1.0384     1.2497 C.2     
  15 C15           -1.8010    -0.2679    -0.5662 C.ar    
  16 C16           -2.0057    -1.6245    -0.8088 C.ar    
  17 C17           -3.2881    -2.1383    -0.8040 C.ar    
  18 C18           -4.3678    -1.3076    -0.5588 C.ar    
  19 C19           -4.1692     0.0400    -0.3178 C.ar    
  20 C20           -2.8919     0.5624    -0.3146 C.ar    
  21 Cl21          -3.5458    -3.8282    -1.1067 Cl      
  22 C22            1.3124     3.6156    -0.0723 C.3     
  23 C23            0.7093     4.4472    -1.2062 C.3     
  24 C24            1.0745     5.9198    -1.0085 C.3     
  25 C25            1.2633     3.9599    -2.5465 C.3     
  26 O26           -0.7124     4.3038    -1.1980 O.3     
  27 N27            5.4717    -1.6907     2.3745 N.2     
  28 C28            6.3381    -2.6693     2.3792 C.2     
  29 C29            6.9932    -2.8747     1.2257 C.2     
  30 S30            6.4518    -1.7404     0.0652 S.3     
  31 H31           -1.0734     2.2969    -0.1395 H       
  32 H32            2.6595    -0.7331    -1.0097 H       
  33 H33            3.6259     2.6392     0.0808 H       
  34 H34            6.3651     0.2062    -0.9217 H       
  35 H35            4.9937    -0.3923    -1.9046 H       
  36 H36            6.0720     2.4722    -1.6922 H       
  37 H37            5.6681     1.5370    -3.1709 H       
  38 H38            3.3001     1.6971    -2.7635 H       
  39 H39            3.8504     3.2898    -2.1474 H       
  40 H40           -1.1636    -2.2730    -1.0006 H       
  41 H41           -5.3688    -1.7129    -0.5559 H       
  42 H42           -5.0152     0.6838    -0.1277 H       
  43 H43           -2.7385     1.6147    -0.1264 H       
  44 H44            0.8521     3.9025     0.8732 H       
  45 H45            2.3865     3.7941    -0.0224 H       
  46 H46            2.1590     6.0292    -1.0148 H       
  47 H47            0.6449     6.5123    -1.8163 H       
  48 H48            0.6798     6.2670    -0.0537 H       
  49 H49            1.1124     2.8838    -2.6324 H       
  50 H50            0.7435     4.4658    -3.3601 H       
  51 H51            2.3289     4.1828    -2.6019 H       
  52 H52           -1.1623     4.8050    -1.8919 H       
  53 H53            6.5160    -3.2743     3.2559 H       
  54 H54            7.7394    -3.6368     1.0562 H       
@<TRIPOS>BOND
   1    1    2 ar
   2    1    6 ar
   3    1   31 1
   4    2    3 ar
   5    2   15 1
   6    3    4 ar
   7    4    5 ar
   8    4   32 1
   9    5    6 ar
  10    5    7 1
  11    6   22 1
  12    7    8 1
  13    7   11 1
  14    7   33 1
  15    8    9 1
  16    8   12 am
  17    9   10 1
  18    9   34 1
  19    9   35 1
  20   10   11 1
  21   10   36 1
  22   10   37 1
  23   11   38 1
  24   11   39 1
  25   12   13 2
  26   12   14 1
  27   14   27 2
  28   14   30 1
  29   15   16 ar
  30   15   20 ar
  31   16   17 ar
  32   16   40 1
  33   17   18 ar
  34   17   21 1
  35   18   19 ar
  36   18   41 1
  37   19   20 ar
  38   19   42 1
  39   20   43 1
  40   22   23 1
  41   22   44 1
  42   22   45 1
  43   23   24 1
  44   23   25 1
  45   23   26 1
  46   24   46 1
  47   24   47 1
  48   24   48 1
  49   25   49 1
  50   25   50 1
  51   25   51 1
  52   26   52 1
  53   27   28 1
  54   28   29 2
  55   28   53 1
  56   29   30 1
  57   29   54 1

#	End of record

