#	Name: ASD03740141
#	Creating user name:	WinNT
#	Creation time:	15. 06. 2019 20:46

#	Modifying user name:	WinNT
#	Modification time:	15. 06. 2019 20:46

#	Program:	/corina/corina34_cracker 3.40 0067  02.08.2006

@<TRIPOS>MOLECULE
ASD03740141
  75   80    0    0    0
SMALL
NO_CHARGES


@<TRIPOS>ATOM
   1 C1            -0.0169     1.3957     0.0097 C.ar    
   2 C2             0.0021    -0.0041     0.0020 C.ar    
   3 C3            -1.1611    -0.7159     0.0097 C.ar    
   4 C4            -2.3872    -0.0536     0.0255 C.ar    
   5 C5            -2.4198     1.3547     0.0334 C.ar    
   6 C6            -1.2244     2.0768     0.0307 C.ar    
   7 N7            -3.6905    -0.4790     0.0361 N.pl3   
   8 N8            -4.5373     0.6338     0.0505 N.2     
   9 C9            -3.8333     1.7327     0.0494 C.2     
  10 O10           -4.3246     3.0000     0.0615 O.3     
  11 C11           -4.1268    -1.8775     0.0325 C.3     
  12 C12           -4.2621    -2.3651     1.4520 C.ar    
  13 C13           -5.4671    -2.2322     2.1163 C.ar    
  14 C14           -5.5919    -2.6792     3.4182 C.ar    
  15 C15           -4.5104    -3.2599     4.0565 C.ar    
  16 C16           -3.3047    -3.3927     3.3912 C.ar    
  17 C17           -3.1828    -2.9504     2.0874 C.ar    
  18 C18           -5.7462     3.1446     0.0763 C.3     
  19 C19           -6.1075     4.6313     0.0884 C.3     
  20 C20           -7.6296     4.7861     0.1042 C.3     
  21 N21           -7.9765     6.2135     0.1158 N.3     
  22 C22           -7.6538     6.8462    -1.1763 C.3     
  23 C23           -8.9548     7.4795    -1.7128 C.3     
  24 C24           -9.8093     7.6616    -0.4309 C.3     
  25 C25           -9.4169     6.4064     0.3877 C.3     
  26 C26           -9.6492     6.6498     1.8803 C.3     
  27 Cl27          -4.6662    -3.8211     5.6919 Cl      
  28 C28            1.2592     2.1527     0.0016 C.ar    
  29 C29            1.2539     3.5442     0.0091 C.ar    
  30 N30            2.3850     4.2214     0.0024 N.ar    
  31 C31            3.5612     3.6131    -0.0116 C.ar    
  32 C32            3.6463     2.2235    -0.0199 C.ar    
  33 C33            2.4849     1.4770    -0.0079 C.ar    
  34 N34            4.7256     4.3716    -0.0187 N.3     
  35 C35            4.4179     5.8092    -0.0086 C.3     
  36 C36            5.7248     6.6049     0.0436 C.3     
  37 O37            6.5470     6.2350    -1.0666 O.3     
  38 C38            6.8666     4.8416    -1.1072 C.3     
  39 C39            5.5713     4.0280    -1.1711 C.3     
  40 H40            0.9477    -0.5256    -0.0105 H       
  41 H41           -1.1320    -1.7955     0.0033 H       
  42 H42           -1.2404     3.1567     0.0367 H       
  43 H43           -5.0897    -1.9564    -0.4721 H       
  44 H44           -3.3906    -2.4864    -0.4922 H       
  45 H45           -6.3112    -1.7785     1.6181 H       
  46 H46           -6.5332    -2.5750     3.9372 H       
  47 H47           -2.4602    -3.8459     3.8889 H       
  48 H48           -2.2417    -3.0540     1.5679 H       
  49 H49           -6.1684     2.6753    -0.8123 H       
  50 H50           -6.1509     2.6651     0.9676 H       
  51 H51           -5.6853     5.1006     0.9769 H       
  52 H52           -5.7028     5.1108    -0.8029 H       
  53 H53           -8.0518     4.3167    -0.7844 H       
  54 H54           -8.0343     4.3066     0.9955 H       
  55 H55           -6.8975     7.6178    -1.0327 H       
  56 H56           -7.2911     6.0942    -1.8771 H       
  57 H57           -8.7503     8.4430    -2.1798 H       
  58 H58           -9.4499     6.8076    -2.4138 H       
  59 H59           -9.5322     8.5743     0.0968 H       
  60 H60          -10.8734     7.6568    -0.6670 H       
  61 H61           -9.9861     5.5402     0.0505 H       
  62 H62          -10.7069     6.8458     2.0561 H       
  63 H63           -9.3445     5.7680     2.4439 H       
  64 H64           -9.0618     7.5089     2.2041 H       
  65 H65            0.3134     4.0750     0.0202 H       
  66 H66            4.6096     1.7352    -0.0317 H       
  67 H67            2.5212     0.3976    -0.0135 H       
  68 H68            3.8687     6.0702    -0.9132 H       
  69 H69            3.8126     6.0457     0.8665 H       
  70 H70            5.5040     7.6712    -0.0064 H       
  71 H71            6.2485     6.3842     0.9738 H       
  72 H72            7.4716     4.6325    -1.9895 H       
  73 H73            7.4234     4.5696    -0.2105 H       
  74 H74            5.8079     2.9643    -1.1446 H       
  75 H75            5.0405     4.2606    -2.0942 H       
@<TRIPOS>BOND
   1    1    2 ar
   2    1   28 1
   3    1    6 ar
   4    2    3 ar
   5    2   40 1
   6    3    4 ar
   7    3   41 1
   8    4    5 ar
   9    4    7 1
  10    5    6 ar
  11    5    9 1
  12    6   42 1
  13    7    8 1
  14    7   11 1
  15    8    9 2
  16    9   10 1
  17   10   18 1
  18   11   12 1
  19   11   43 1
  20   11   44 1
  21   12   13 ar
  22   12   17 ar
  23   13   14 ar
  24   13   45 1
  25   14   15 ar
  26   14   46 1
  27   15   16 ar
  28   15   27 1
  29   16   17 ar
  30   16   47 1
  31   17   48 1
  32   18   19 1
  33   18   49 1
  34   18   50 1
  35   19   20 1
  36   19   51 1
  37   19   52 1
  38   20   21 1
  39   20   53 1
  40   20   54 1
  41   21   22 1
  42   21   25 1
  43   22   23 1
  44   22   55 1
  45   22   56 1
  46   23   24 1
  47   23   57 1
  48   23   58 1
  49   24   25 1
  50   24   59 1
  51   24   60 1
  52   25   26 1
  53   25   61 1
  54   26   62 1
  55   26   63 1
  56   26   64 1
  57   28   29 ar
  58   28   33 ar
  59   29   30 ar
  60   29   65 1
  61   30   31 ar
  62   31   32 ar
  63   31   34 1
  64   32   33 ar
  65   32   66 1
  66   33   67 1
  67   34   35 1
  68   34   39 1
  69   35   36 1
  70   35   68 1
  71   35   69 1
  72   36   37 1
  73   36   70 1
  74   36   71 1
  75   37   38 1
  76   38   39 1
  77   38   72 1
  78   38   73 1
  79   39   74 1
  80   39   75 1

#	End of record

