#	Name: ASD01885169
#	Creating user name:	WinNT
#	Creation time:	15. 06. 2019 19:49

#	Modifying user name:	WinNT
#	Modification time:	15. 06. 2019 19:49

#	Program:	/corina/corina34_cracker 3.40 0067  02.08.2006

@<TRIPOS>MOLECULE
ASD01885169
  52   55    0    0    0
SMALL
NO_CHARGES


@<TRIPOS>ATOM
   1 C1             0.7302     1.4200     1.0802 C.2     
   2 C2             0.7657     0.0146     1.0970 C.2     
   3 C3             1.2066    -0.6546    -0.0130 C.2     
   4 C4             1.6160     0.0754    -1.1497 C.2     
   5 C5             1.5737     1.4222    -1.1438 C.2     
   6 N6             1.1359     2.0991    -0.0428 N.pl3   
   7 C7             0.9859     3.4230     0.2488 C.2     
   8 N8             0.5211     3.5067     1.4676 N.2     
   9 N9             0.3609     2.3318     1.9670 N.2     
  10 C10            1.2993     4.5783    -0.6667 C.3     
  11 Cl11           0.2574    -0.8609     2.5072 Cl      
  12 N12            1.2514    -2.0467    -0.0204 N.pl3   
  13 C13            0.0200    -2.8422     0.0976 C.3     
  14 C14           -0.0070    -3.8691    -1.0396 C.3     
  15 N15            1.2390    -4.6469    -1.0223 N.3     
  16 C16            2.4055    -3.7902    -1.2740 C.3     
  17 C17            2.5307    -2.7601    -0.1526 C.3     
  18 C18            1.1844    -5.6999    -1.9382 C.ar    
  19 C19            0.9175    -5.4441    -3.2769 C.ar    
  20 C20            0.8638    -6.4886    -4.1823 C.ar    
  21 C21            1.0756    -7.7886    -3.7547 C.ar    
  22 C22            1.3415    -8.0460    -2.4203 C.ar    
  23 C23            1.4027    -7.0038    -1.5125 C.ar    
  24 C24            3.6697    -4.6506    -1.3230 C.3     
  25 F25            0.6042    -6.2404    -5.4847 F       
  26 F26            1.5473    -9.3152    -2.0056 F       
  27 C27            0.0573     4.9292    -1.4884 C.3     
  28 C28            0.1359     6.1568    -2.3983 C.3     
  29 C29            0.1411     4.7527    -3.0059 C.3     
  30 H30            1.9650    -0.4477    -2.0277 H       
  31 H31            1.8896     1.9712    -2.0186 H       
  32 H32            1.5979     5.4420    -0.0727 H       
  33 H33            2.1121     4.3001    -1.3376 H       
  34 H34            0.0081    -3.3585     1.0575 H       
  35 H35           -0.8479    -2.1873     0.0202 H       
  36 H36           -0.8560    -4.5392    -0.9044 H       
  37 H37           -0.0998    -3.3519    -1.9946 H       
  38 H38            2.2792    -3.2741    -2.2257 H       
  39 H39            3.3236    -2.0518    -0.3929 H       
  40 H40            2.7597    -3.2660     0.7854 H       
  41 H41            0.7515    -4.4305    -3.6108 H       
  42 H42            1.0330    -8.6029    -4.4628 H       
  43 H43            1.6104    -7.2050    -0.4720 H       
  44 H44            3.5788    -5.3847    -2.1236 H       
  45 H45            4.5350    -4.0146    -1.5098 H       
  46 H46            3.7960    -5.1654    -0.3706 H       
  47 H47           -0.8986     4.7185    -1.0090 H       
  48 H48           -0.7685     6.7535    -2.5177 H       
  49 H49            1.0724     6.7144    -2.4114 H       
  50 H50            1.0811     4.3865    -3.4188 H       
  51 H51           -0.7598     4.4256    -3.5251 H       
  52 *52            9.5350    11.7535     7.5072 Du      
@<TRIPOS>BOND
   1    1    2 1
   2    1    6 1
   3    1    9 2
   4    2    3 2
   5    2   11 1
   6    3    4 1
   7    3   12 1
   8    4    5 2
   9    4   30 1
  10    5    6 1
  11    5   31 1
  12    6    7 1
  13    7    8 2
  14    7   10 1
  15    8    9 1
  16   10   27 1
  17   10   32 1
  18   10   33 1
  19   12   13 1
  20   12   17 1
  21   13   14 1
  22   13   34 1
  23   13   35 1
  24   14   15 1
  25   14   36 1
  26   14   37 1
  27   15   16 1
  28   15   18 1
  29   16   17 1
  30   16   24 1
  31   16   38 1
  32   17   39 1
  33   17   40 1
  34   18   19 ar
  35   18   23 ar
  36   19   20 ar
  37   19   41 1
  38   20   21 ar
  39   20   25 1
  40   21   22 ar
  41   21   42 1
  42   22   23 ar
  43   22   26 1
  44   23   43 1
  45   24   44 1
  46   24   45 1
  47   24   46 1
  48   27   28 1
  49   27   29 1
  50   27   47 1
  51   28   29 1
  52   28   48 1
  53   28   49 1
  54   29   50 1
  55   29   51 1

#	End of record

