#	Name: ASD01028010
#	Creating user name:	WinNT
#	Creation time:	15. 06. 2019 18:56

#	Modifying user name:	WinNT
#	Modification time:	15. 06. 2019 18:56

#	Program:	/corina/corina34_cracker 3.40 0067  02.08.2006

@<TRIPOS>MOLECULE
ASD01028010
  64   67    0    0    0
SMALL
NO_CHARGES


@<TRIPOS>ATOM
   1 C1            -0.0853     1.6961     0.0184 C.3     
   2 C2            -0.0719     0.1774    -0.1125 C.3     
   3 C3             0.5765    -0.4867     1.1134 C.3     
   4 C4            -0.2205    -0.0546     2.3291 C.3     
   5 C5            -0.0335     1.4807     2.4696 C.3     
   6 C6            -0.7736     2.1377     1.3214 C.3     
   7 C7             0.6881    -0.2427    -1.3668 C.3     
   8 C8             1.1609     0.9488    -2.1396 C.2     
   9 C9             2.3073     0.9564    -2.8131 C.2     
  10 C10            3.1831    -0.2196    -2.8192 C.2     
  11 C11            2.6456    -1.5127    -2.2387 C.3     
  12 C12            1.8568    -1.1462    -0.9767 C.3     
  13 O13            4.3054    -0.1596    -3.2762 O.2     
  14 C14            1.3213    -2.4075    -0.2999 C.3     
  15 C15            0.5325    -2.0061     0.9511 C.3     
  16 C16            0.2971    -0.5545     3.6821 C.3     
  17 C17           -0.2940     0.4761     4.6826 C.3     
  18 C18           -0.5558     1.7705     3.8729 C.3     
  19 C19           -0.2576    -1.0522    -2.2564 C.3     
  20 O20            1.2599     2.1783     0.0129 O.3     
  21 C21            1.4542     1.8292     2.3921 C.3     
  22 C22           -2.0322     2.0694     3.8291 C.2     
  23 C23           -2.5102     3.4968     3.7559 C.3     
  24 O24           -2.8323     1.1652     3.8528 O.2     
  25 O25            0.1557     2.8676     4.4493 O.3     
  26 C26            0.7082     0.7525     5.8051 C.3     
  27 O27           -3.9617     3.5202     3.7250 O.3     
  28 C28           -4.5505     4.7246     3.6594 C.2     
  29 O29           -3.8754     5.7262     3.6289 O.2     
  30 C30           -6.0535     4.8277     3.6238 C.3     
  31 H31           -0.6208     2.1228    -0.8296 H       
  32 H32           -1.0987    -0.1771    -0.2025 H       
  33 H33            1.6078    -0.1479     1.2115 H       
  34 H34           -1.2744    -0.3002     2.1985 H       
  35 H35           -0.7214     3.2221     1.4190 H       
  36 H36           -1.8146     1.8148     1.3184 H       
  37 H37            0.5466     1.8370    -2.1509 H       
  38 H38            2.5969     1.8398    -3.3628 H       
  39 H39            1.9879    -1.9986    -2.9595 H       
  40 H40            3.4713    -2.1761    -1.9814 H       
  41 H41            2.5091    -0.6157    -0.2831 H       
  42 H42            0.6657    -2.9406    -0.9884 H       
  43 H43            2.1543    -3.0505    -0.0156 H       
  44 H44            0.9763    -2.4780     1.8277 H       
  45 H45           -0.5028    -2.3312     0.8480 H       
  46 H46           -0.0786    -1.5558     3.8928 H       
  47 H47            1.3866    -0.5367     3.7087 H       
  48 H48           -1.2284     0.0998     5.0989 H       
  49 H49           -1.1155    -0.4374    -2.5287 H       
  50 H50            0.2689    -1.3617    -3.1592 H       
  51 H51           -0.5998    -1.9342    -1.7149 H       
  52 H52            1.3336     3.1391     0.0929 H       
  53 H53            1.8967     1.3421     1.5232 H       
  54 H54            1.5701     2.9092     2.3013 H       
  55 H55            1.9557     1.4847     3.2964 H       
  56 H56           -2.1566     4.0436     4.6300 H       
  57 H57           -2.1199     3.9647     2.8522 H       
  58 H58           -0.1056     3.0721     5.3576 H       
  59 H59            1.6376     1.1292     5.3779 H       
  60 H60            0.2943     1.4956     6.4868 H       
  61 H61            0.9067    -0.1702     6.3504 H       
  62 H62           -6.4871     3.8283     3.6592 H       
  63 H63           -6.3986     5.4041     4.4822 H       
  64 H64           -6.3619     5.3252     2.7043 H       
@<TRIPOS>BOND
   1    1    2 1
   2    1   20 1
   3    1    6 1
   4    1   31 1
   5    2    3 1
   6    2    7 1
   7    2   32 1
   8    3    4 1
   9    3   15 1
  10    3   33 1
  11    4    5 1
  12    4   16 1
  13    4   34 1
  14    5    6 1
  15    5   21 1
  16    5   18 1
  17    6   35 1
  18    6   36 1
  19    7    8 1
  20    7   19 1
  21    7   12 1
  22    8    9 2
  23    8   37 1
  24    9   10 1
  25    9   38 1
  26   10   11 1
  27   10   13 2
  28   11   12 1
  29   11   39 1
  30   11   40 1
  31   12   14 1
  32   12   41 1
  33   14   15 1
  34   14   42 1
  35   14   43 1
  36   15   44 1
  37   15   45 1
  38   16   17 1
  39   16   46 1
  40   16   47 1
  41   17   18 1
  42   17   26 1
  43   17   48 1
  44   18   22 1
  45   18   25 1
  46   19   49 1
  47   19   50 1
  48   19   51 1
  49   20   52 1
  50   21   53 1
  51   21   54 1
  52   21   55 1
  53   22   23 1
  54   22   24 2
  55   23   27 1
  56   23   56 1
  57   23   57 1
  58   25   58 1
  59   26   59 1
  60   26   60 1
  61   26   61 1
  62   27   28 1
  63   28   29 2
  64   28   30 1
  65   30   62 1
  66   30   63 1
  67   30   64 1

#	End of record

