#	Name: ASD02508277
#	Creating user name:	WinNT
#	Creation time:	15. 06. 2019 20:24

#	Modifying user name:	WinNT
#	Modification time:	15. 06. 2019 20:24

#	Program:	/corina/corina34_cracker 3.40 0067  02.08.2006

@<TRIPOS>MOLECULE
ASD02508277
  44   46    0    0    0
SMALL
NO_CHARGES


@<TRIPOS>ATOM
   1 C1             0.0440     1.1039    -0.2565 C.ar    
   2 C2            -1.0399     1.5592    -1.0069 C.ar    
   3 C3            -2.2621     0.9107    -0.9244 C.ar    
   4 C4            -2.4031    -0.1867    -0.0975 C.ar    
   5 C5            -1.3282    -0.6390     0.6480 C.ar    
   6 C6            -0.1058    -0.0012     0.5667 C.ar    
   7 S7            -3.9558    -1.0127     0.0091 S.o2    
   8 N8            -4.4987    -0.8374     1.5638 N.am    
   9 C9            -4.8591     0.4252     2.0394 C.ar    
  10 O10            1.0937     1.9163    -0.5315 O.3     
  11 C11            0.7087     2.8503    -1.4154 C.2     
  12 N12           -0.5887     2.6638    -1.7289 N.am    
  13 O13           -4.8555    -0.2837    -0.8146 O.2     
  14 O14           -3.6871    -2.3967    -0.1685 O.2     
  15 O15            1.4203     3.7286    -1.8637 O.2     
  16 C16           -1.3806     3.4737    -2.6581 C.3     
  17 C17           -6.0395     0.5881     2.7523 C.ar    
  18 C18           -1.4909    -1.8364     1.5485 C.3     
  19 C19           -4.0346     1.5175     1.8045 C.ar    
  20 C20           -4.3929     2.7704     2.2774 C.ar    
  21 C21           -5.5745     2.9331     2.9853 C.ar    
  22 C22           -6.3963     1.8417     3.2245 C.ar    
  23 C23           -7.8612     3.3222     4.3710 C.3     
  24 O24           -7.5538     2.0022     3.9182 O.3     
  25 O25           -3.5861     3.8395     2.0476 O.3     
  26 C26           -4.0172     5.1004     2.5636 C.3     
  27 H27           -3.1021     1.2627    -1.5048 H       
  28 H28            0.7301    -0.3580     1.1501 H       
  29 H29           -4.5662    -1.6118     2.1441 H       
  30 H30           -0.7576     4.2678    -3.0697 H       
  31 H31           -1.7475     2.8431    -3.4679 H       
  32 H32           -2.2257     3.9127    -2.1280 H       
  33 H33           -6.6796    -0.2616     2.9387 H       
  34 H34           -1.3499    -2.7487     0.9689 H       
  35 H35           -0.7494    -1.7945     2.3463 H       
  36 H36           -2.4912    -1.8321     1.9815 H       
  37 H37           -3.1141     1.3909     1.2538 H       
  38 H38           -5.8529     3.9094     3.3537 H       
  39 H39           -8.8091     3.3103     4.9089 H       
  40 H40           -7.0708     3.6718     5.0352 H       
  41 H41           -7.9381     3.9915     3.5141 H       
  42 H42           -4.9810     5.3616     2.1265 H       
  43 H43           -4.1155     5.0352     3.6472 H       
  44 H44           -3.2841     5.8664     2.3107 H       
@<TRIPOS>BOND
   1    1    2 ar
   2    1   10 1
   3    1    6 ar
   4    2    3 ar
   5    2   12 1
   6    3    4 ar
   7    3   27 1
   8    4    5 ar
   9    4    7 1
  10    5    6 ar
  11    5   18 1
  12    6   28 1
  13    7    8 am
  14    7   13 2
  15    7   14 2
  16    8    9 1
  17    8   29 1
  18    9   17 ar
  19    9   19 ar
  20   10   11 1
  21   11   12 am
  22   11   15 2
  23   12   16 1
  24   16   30 1
  25   16   31 1
  26   16   32 1
  27   17   22 ar
  28   17   33 1
  29   18   34 1
  30   18   35 1
  31   18   36 1
  32   19   20 ar
  33   19   37 1
  34   20   21 ar
  35   20   25 1
  36   21   22 ar
  37   21   38 1
  38   22   24 1
  39   23   24 1
  40   23   39 1
  41   23   40 1
  42   23   41 1
  43   25   26 1
  44   26   42 1
  45   26   43 1
  46   26   44 1

#	End of record

