#	Name: ASD07930445
#	Creating user name:	WinNT
#	Creation time:	15. 06. 2019 21:12

#	Modifying user name:	WinNT
#	Modification time:	15. 06. 2019 21:12

#	Program:	/corina/corina34_cracker 3.40 0067  02.08.2006

@<TRIPOS>MOLECULE
ASD07930445
  48   50    0    0    0
SMALL
NO_CHARGES


@<TRIPOS>ATOM
   1 N1             0.0005     1.2712     0.0036 N.2     
   2 N2            -1.1611    -0.7565     0.0076 N.pl3   
   3 C3            -1.3888    -1.7915    -1.0064 C.3     
   4 C4            -0.2711    -2.8399    -0.9192 C.3     
   5 S5             1.3268    -1.9883    -1.1092 S.o2    
   6 N6             1.2083    -0.7373    -0.0149 N.am    
   7 C7             0.0133    -0.0321    -0.0009 C.2     
   8 C8             2.3111    -0.3990     0.8883 C.3     
   9 C9            -1.3840    -1.1539    -2.3972 C.3     
  10 C10           -2.7200    -2.4534    -0.7598 C.ar    
  11 C11           -3.4610    -2.1182     0.3561 C.ar    
  12 C12           -4.6880    -2.7283     0.5827 C.ar    
  13 C13           -5.1669    -3.6742    -0.3140 C.ar    
  14 C14           -4.4225    -4.0065    -1.4290 C.ar    
  15 C15           -3.2020    -3.3933    -1.6557 C.ar    
  16 N16           -5.4404    -2.3905     1.7132 N.am    
  17 C17           -6.7862    -2.3666     1.6446 C.2     
  18 O18           -7.3437    -2.5428     0.5788 O.2     
  19 C19           -7.5846    -2.1261     2.8658 C.ar    
  20 O20            2.3891    -2.7939    -0.6176 O.2     
  21 O21            1.4101    -1.3489    -2.3755 O.2     
  22 C22           -8.9767    -2.1013     2.7954 C.ar    
  23 F23           -2.4754    -3.7197    -2.7469 F       
  24 N24           -9.6886    -1.8869     3.8871 N.ar    
  25 C25           -9.0795    -1.6953     5.0490 C.ar    
  26 C26           -7.6852    -1.7195     5.1199 C.ar    
  27 N27           -6.9744    -1.9384     4.0350 N.ar    
  28 O28           -9.8105    -1.4753     6.1683 O.3     
  29 C29          -11.2320    -1.4632     6.0229 C.3     
  30 H30          -11.5192    -0.6757     5.3261 H       
  31 H31          -11.5662    -2.4273     5.6395 H       
  32 H32          -11.6948    -1.2773     6.9920 H       
  33 H33            0.8358     1.7644    -0.0028 H       
  34 H34           -1.8367    -0.5788     0.6806 H       
  35 H35           -0.3091    -3.3379     0.0496 H       
  36 H36           -0.3931    -3.5741    -1.7155 H       
  37 H37            2.9602     0.3346     0.4102 H       
  38 H38            1.9095     0.0182     1.8117 H       
  39 H39            2.8840    -1.2982     1.1148 H       
  40 H40           -0.4200    -0.6773    -2.5751 H       
  41 H41           -1.5532    -1.9236    -3.1503 H       
  42 H42           -2.1753    -0.4067    -2.4572 H       
  43 H43           -3.0865    -1.3826     1.0525 H       
  44 H44           -6.1207    -4.1500    -0.1395 H       
  45 H45           -4.7944    -4.7424    -2.1265 H       
  46 H46           -4.9933    -2.1735     2.5463 H       
  47 H47           -9.4728    -2.2571     1.8488 H       
  48 H48           -7.1902    -1.5626     6.0669 H       
@<TRIPOS>BOND
   1    1    7 2
   2    1   33 1
   3    2    3 1
   4    2    7 1
   5    2   34 1
   6    3    4 1
   7    3    9 1
   8    3   10 1
   9    4    5 1
  10    4   35 1
  11    4   36 1
  12    5    6 am
  13    5   20 2
  14    5   21 2
  15    6    7 1
  16    6    8 1
  17    8   37 1
  18    8   38 1
  19    8   39 1
  20    9   40 1
  21    9   41 1
  22    9   42 1
  23   10   11 ar
  24   10   15 ar
  25   11   12 ar
  26   11   43 1
  27   12   13 ar
  28   12   16 1
  29   13   14 ar
  30   13   44 1
  31   14   15 ar
  32   14   45 1
  33   15   23 1
  34   16   17 am
  35   16   46 1
  36   17   18 2
  37   17   19 1
  38   19   22 ar
  39   19   27 ar
  40   22   24 ar
  41   22   47 1
  42   24   25 ar
  43   25   26 ar
  44   25   28 1
  45   26   27 ar
  46   26   48 1
  47   28   29 1
  48   29   30 1
  49   29   31 1
  50   29   32 1

#	End of record

