#	Name: ASD00840837
#	Creating user name:	WinNT
#	Creation time:	15. 06. 2019 18:40

#	Modifying user name:	WinNT
#	Modification time:	15. 06. 2019 18:40

#	Program:	/corina/corina34_cracker 3.40 0067  02.08.2006

@<TRIPOS>MOLECULE
ASD00840837
  94   99    0    0    0
SMALL
NO_CHARGES


@<TRIPOS>ATOM
   1 F1             6.0577    -1.9500    -2.0368 F       
   2 N2             1.0764     1.4589    -0.7253 N.ar    
   3 C3             1.3334     0.1667    -0.8403 C.ar    
   4 C4             1.2483    -0.6728     0.2633 C.ar    
   5 C5             0.8901    -0.1395     1.4888 C.ar    
   6 C6             0.6283     1.2216     1.5676 C.ar    
   7 C7             0.7324     1.9964     0.4298 C.ar    
   8 C8             1.5417    -2.1447     0.1274 C.3     
   9 C9             1.2563    -2.8644     1.4280 C.2     
  10 C10            0.7197    -2.7507    -1.0119 C.3     
  11 C11           -0.7418    -2.4602    -0.7865 C.2     
  12 N12           -1.6679    -2.9797    -1.6165 N.am    
  13 O13           -1.0846    -1.7589     0.1417 O.2     
  14 C14           -3.0849    -2.6165    -1.4783 C.3     
  15 C15           -3.9137    -3.8995    -1.3614 C.3     
  16 C16           -3.6112    -4.8080    -2.5552 C.3     
  17 C17           -2.1288    -5.1881    -2.5465 C.3     
  18 C18           -1.2790    -3.9153    -2.6804 C.3     
  19 N19           -4.4290    -6.0249    -2.4637 N.3     
  20 C20           -4.2535    -6.8682    -3.6544 C.3     
  21 C21           -5.0578    -8.1592    -3.4850 C.3     
  22 N22           -6.4750    -7.8273    -3.2825 N.3     
  23 C23           -6.6505    -6.9841    -2.0918 C.3     
  24 C24           -5.8462    -5.6931    -2.2612 C.3     
  25 C25           -7.2928    -9.0442    -3.1910 C.3     
  26 O26            0.1835    -2.9396     1.9889 O.2     
  27 N27            2.4136    -3.4048     1.8447 N.am    
  28 C28            3.0188    -2.3712    -0.1029 C.ar    
  29 C29            3.4685    -3.1346     0.9696 C.ar    
  30 C30            3.8781    -1.9755    -1.1041 C.ar    
  31 C31            5.2134    -2.3363    -1.0555 C.ar    
  32 C32            5.6834    -3.1037     0.0152 C.ar    
  33 C33            4.8080    -3.5014     1.0253 C.ar    
  34 C34            2.2730    -5.9754     2.8177 C.ar    
  35 C35            1.0183    -6.3696     2.3766 C.ar    
  36 C36            3.2901    -6.9045     2.9238 C.ar    
  37 C37            3.0583    -8.2259     2.5903 C.ar    
  38 C38            1.8084    -8.6214     2.1502 C.ar    
  39 C39            0.7881    -7.6966     2.0429 C.ar    
  40 H40            1.6298    -9.6544     1.8903 H       
  41 O41            0.0162    -5.4577     2.2718 O.3     
  42 C42           -1.2495    -5.9348     1.8108 C.3     
  43 C43           -8.7061    -8.6758    -2.7354 C.3     
  44 C44           -9.5579    -9.9433    -2.6401 C.3     
  45 S45            2.5714    -4.2898     3.2354 S.o2    
  46 O46            3.9391    -4.2057     3.6116 O.2     
  47 O47            1.5053    -3.8927     4.0869 O.2     
  48 C48            7.0633    -3.4817     0.0737 C.1     
  49 N49            8.1580    -3.7816     0.1202 N.1     
  50 O50            1.6832    -0.3439    -2.0476 O.3     
  51 C51            2.1796    -0.1693    -4.4064 C.3     
  52 C52            1.6447     0.5466    -3.1645 C.3     
  53 H53            0.8155    -0.7678     2.3641 H       
  54 H54            0.3459     1.6696     2.5089 H       
  55 H55            0.5302     3.0558     0.4857 H       
  56 H56            1.0349    -2.3140    -1.9596 H       
  57 H57            0.8758    -3.8291    -1.0389 H       
  58 H58           -3.2211    -2.0105    -0.5826 H       
  59 H59           -3.4049    -2.0534    -2.3550 H       
  60 H60           -3.6561    -4.4160    -0.4367 H       
  61 H61           -4.9743    -3.6482    -1.3550 H       
  62 H62           -3.8457    -4.2819    -3.4806 H       
  63 H63           -1.8880    -5.6925    -1.6107 H       
  64 H64           -1.9190    -5.8540    -3.3836 H       
  65 H65           -1.4530    -3.4608    -3.6557 H       
  66 H66           -0.2238    -4.1678    -2.5757 H       
  67 H67           -4.6074    -6.3321    -4.5350 H       
  68 H68           -3.1978    -7.1107    -3.7759 H       
  69 H69           -4.9523    -8.7733    -4.3793 H       
  70 H70           -4.6858    -8.7086    -2.6203 H       
  71 H71           -7.7062    -6.7416    -1.9703 H       
  72 H72           -6.2966    -7.5202    -1.2112 H       
  73 H73           -5.9516    -5.0789    -1.3669 H       
  74 H74           -6.2182    -5.1437    -3.1259 H       
  75 H75           -7.3397    -9.5248    -4.1682 H       
  76 H76           -6.8457    -9.7291    -2.4704 H       
  77 H77            3.5093    -1.3830    -1.9283 H       
  78 H78            5.1713    -4.0939     1.8519 H       
  79 H79            4.2671    -6.5981     3.2672 H       
  80 H80            3.8548    -8.9506     2.6732 H       
  81 H81           -0.1881    -8.0061     1.6999 H       
  82 H82           -1.1360    -6.3610     0.8140 H       
  83 H83           -1.6198    -6.6999     2.4931 H       
  84 H84           -1.9581    -5.1073     1.7736 H       
  85 H85           -8.6592    -8.1953    -1.7581 H       
  86 H86           -9.1532    -7.9910    -3.4559 H       
  87 H87           -9.6048   -10.4238    -3.6173 H       
  88 H88           -9.1108   -10.6281    -1.9195 H       
  89 H89          -10.5648    -9.6808    -2.3155 H       
  90 H90            2.2323     0.5344    -5.2371 H       
  91 H91            3.1751    -0.5618    -4.1990 H       
  92 H92            1.5124    -0.9907    -4.6678 H       
  93 H93            0.6168     0.8628    -3.3419 H       
  94 H94            2.2623     1.4199    -2.9544 H       
@<TRIPOS>BOND
   1    1   31 1
   2    2    3 ar
   3    2    7 ar
   4    3    4 ar
   5    3   50 1
   6    4    5 ar
   7    4    8 1
   8    5    6 ar
   9    5   53 1
  10    6    7 ar
  11    6   54 1
  12    7   55 1
  13    8    9 1
  14    8   10 1
  15    8   28 1
  16    9   26 2
  17    9   27 am
  18   10   11 1
  19   10   56 1
  20   10   57 1
  21   11   12 am
  22   11   13 2
  23   12   14 1
  24   12   18 1
  25   14   15 1
  26   14   58 1
  27   14   59 1
  28   15   16 1
  29   15   60 1
  30   15   61 1
  31   16   17 1
  32   16   19 1
  33   16   62 1
  34   17   18 1
  35   17   63 1
  36   17   64 1
  37   18   65 1
  38   18   66 1
  39   19   20 1
  40   19   24 1
  41   20   21 1
  42   20   67 1
  43   20   68 1
  44   21   22 1
  45   21   69 1
  46   21   70 1
  47   22   23 1
  48   22   25 1
  49   23   24 1
  50   23   71 1
  51   23   72 1
  52   24   73 1
  53   24   74 1
  54   25   43 1
  55   25   75 1
  56   25   76 1
  57   27   45 am
  58   27   29 1
  59   28   29 ar
  60   28   30 ar
  61   29   33 ar
  62   30   31 ar
  63   30   77 1
  64   31   32 ar
  65   32   33 ar
  66   32   48 1
  67   33   78 1
  68   34   35 ar
  69   34   36 ar
  70   34   45 1
  71   35   41 1
  72   35   39 ar
  73   36   37 ar
  74   36   79 1
  75   37   38 ar
  76   37   80 1
  77   38   39 ar
  78   38   40 1
  79   39   81 1
  80   41   42 1
  81   42   82 1
  82   42   83 1
  83   42   84 1
  84   43   44 1
  85   43   85 1
  86   43   86 1
  87   44   87 1
  88   44   88 1
  89   44   89 1
  90   45   46 2
  91   45   47 2
  92   48   49 3
  93   50   52 1
  94   51   52 1
  95   51   90 1
  96   51   91 1
  97   51   92 1
  98   52   93 1
  99   52   94 1

#	End of record

