#	Name: ASD03330538
#	Creating user name:	WinNT
#	Creation time:	15. 06. 2019 20:37

#	Modifying user name:	WinNT
#	Modification time:	15. 06. 2019 20:37

#	Program:	/corina/corina34_cracker 3.40 0067  02.08.2006

@<TRIPOS>MOLECULE
ASD03330538
  66   69    0    0    0
SMALL
NO_CHARGES


@<TRIPOS>ATOM
   1 C1            -0.3189     1.1723     0.8869 C.2     
   2 N2            -0.3436    -0.1665     1.1238 N.pl3   
   3 C3             0.9858     1.5607     0.9196 C.2     
   4 N4             1.7371     0.4627     1.1563 N.2     
   5 C5             0.9480    -0.5795     1.2745 C.2     
   6 C6             1.3856    -1.9689     1.5295 C.ar    
   7 C7             1.4886     2.9327     0.7302 C.2     
   8 O8             0.7090     3.8427     0.5219 O.2     
   9 C9             3.3122     4.5435     0.5994 C.3     
  10 N10            2.8124     3.1793     0.7877 N.am    
  11 C11            3.4734     4.8257    -0.8957 C.3     
  12 C12            2.0997     4.8073    -1.5692 C.3     
  13 C13            4.1176     6.2000    -1.0887 C.3     
  14 C14            4.3640     3.7521    -1.5243 C.3     
  15 C15            4.6465     4.6886     1.2846 C.2     
  16 N16            5.1812     5.9124     1.4663 N.am    
  17 O17            5.2392     3.7042     1.6727 O.2     
  18 C18            6.5104     6.0492     2.0669 C.3     
  19 C19           -1.5514    -0.9918     1.2113 C.3     
  20 C20           -2.4700    -0.6648     0.0298 C.3     
  21 C21           -3.3800     0.5044     0.3923 C.3     
  22 N22           -2.6964     1.4497     1.2771 N.3     
  23 C23           -1.5208     2.0413     0.6212 C.3     
  24 C24           -3.6183     2.4929     1.7460 C.3     
  25 C25            2.6368    -2.4007     1.0875 C.ar    
  26 C26            0.5510    -2.8501     2.2176 C.ar    
  27 C27            0.9621    -4.1447     2.4552 C.ar    
  28 C28            2.2054    -4.5764     2.0128 C.ar    
  29 C29            3.0437    -3.7012     1.3280 C.ar    
  30 O30            2.5940    -5.8559     2.2657 O.3     
  31 C31            3.6819    -6.3646     1.4866 C.3     
  32 C32            4.7924    -5.3058     1.4618 C.3     
  33 O33            4.2627    -4.1108     0.8812 O.3     
  34 H34            2.6043     5.2523     1.0287 H       
  35 H35            3.4341     2.4535     0.9538 H       
  36 H36            1.4652     5.5722    -1.1213 H       
  37 H37            2.2145     5.0084    -2.6343 H       
  38 H38            1.6407     3.8283    -1.4317 H       
  39 H39            5.0787     6.2261    -0.5751 H       
  40 H40            4.2690     6.3841    -2.1524 H       
  41 H41            3.4642     6.9687    -0.6763 H       
  42 H42            3.9050     2.7731    -1.3868 H       
  43 H43            4.4788     3.9532    -2.5894 H       
  44 H44            5.3426     3.7652    -1.0446 H       
  45 H45            4.6860     6.7025     1.1994 H       
  46 H46            6.5042     5.6135     3.0661 H       
  47 H47            7.2435     5.5306     1.4490 H       
  48 H48            6.7725     7.1052     2.1326 H       
  49 H49           -1.2756    -2.0458     1.1776 H       
  50 H50           -2.0705    -0.7797     2.1460 H       
  51 H51           -1.8649    -0.3981    -0.8367 H       
  52 H52           -3.0783    -1.5373    -0.2086 H       
  53 H53           -3.6793     1.0207    -0.5198 H       
  54 H54           -4.2691     0.1232     0.8946 H       
  55 H55           -1.3442     3.0397     1.0212 H       
  56 H56           -1.6954     2.1033    -0.4529 H       
  57 H57           -4.4398     2.0321     2.2945 H       
  58 H58           -3.0848     3.1814     2.4012 H       
  59 H59           -4.0144     3.0392     0.8899 H       
  60 H60            3.2870    -1.7203     0.5577 H       
  61 H61           -0.4165    -2.5182     2.5644 H       
  62 H62            0.3145    -4.8256     2.9878 H       
  63 H63            4.0592    -7.2824     1.9375 H       
  64 H64            3.3434    -6.5660     0.4702 H       
  65 H65            5.1262    -5.0992     2.4787 H       
  66 H66            5.6305    -5.6659     0.8652 H       
@<TRIPOS>BOND
   1    1    2 1
   2    1    3 2
   3    1   23 1
   4    2   19 1
   5    2    5 1
   6    3    4 1
   7    3    7 1
   8    4    5 2
   9    5    6 1
  10    6   25 ar
  11    6   26 ar
  12    7    8 2
  13    7   10 am
  14    9   10 1
  15    9   11 1
  16    9   15 1
  17    9   34 1
  18   10   35 1
  19   11   12 1
  20   11   13 1
  21   11   14 1
  22   12   36 1
  23   12   37 1
  24   12   38 1
  25   13   39 1
  26   13   40 1
  27   13   41 1
  28   14   42 1
  29   14   43 1
  30   14   44 1
  31   15   16 am
  32   15   17 2
  33   16   18 1
  34   16   45 1
  35   18   46 1
  36   18   47 1
  37   18   48 1
  38   19   20 1
  39   19   49 1
  40   19   50 1
  41   20   21 1
  42   20   51 1
  43   20   52 1
  44   21   22 1
  45   21   53 1
  46   21   54 1
  47   22   23 1
  48   22   24 1
  49   23   55 1
  50   23   56 1
  51   24   57 1
  52   24   58 1
  53   24   59 1
  54   25   29 ar
  55   25   60 1
  56   26   27 ar
  57   26   61 1
  58   27   28 ar
  59   27   62 1
  60   28   29 ar
  61   28   30 1
  62   29   33 1
  63   30   31 1
  64   31   32 1
  65   31   63 1
  66   31   64 1
  67   32   33 1
  68   32   65 1
  69   32   66 1

#	End of record

