#	Name: ASD02408387
#	Creating user name:	WinNT
#	Creation time:	15. 06. 2019 20:21

#	Modifying user name:	WinNT
#	Modification time:	15. 06. 2019 20:21

#	Program:	/corina/corina34_cracker 3.40 0067  02.08.2006

@<TRIPOS>MOLECULE
ASD02408387
  26   27    0    0    0
SMALL
NO_CHARGES


@<TRIPOS>ATOM
   1 C1            -0.0054     0.9844    -0.6412 C.2     
   2 C2             0.0175     0.1913     0.5296 C.2     
   3 C3             1.3005     1.4096    -0.8706 C.2     
   4 N4             2.0657     0.8939     0.1174 N.pl3   
   5 N5             1.2448     0.1454     0.9679 N.2     
   6 C6             3.4484     1.0775     0.2646 C.ar    
   7 C7             3.9964     2.3472     0.1593 C.ar    
   8 C8             5.3592     2.5257     0.3052 C.ar    
   9 C9             6.1791     1.4412     0.5560 C.ar    
  10 C10            5.6401     0.1724     0.6623 C.ar    
  11 C11            4.2745    -0.0144     0.5227 C.ar    
  12 N12            1.7331     2.2080    -1.9124 N.pl3   
  13 O13            3.7430    -1.2613     0.6274 O.3     
  14 C14            4.6514    -2.3344     0.8825 C.3     
  15 C15           -1.1529     1.2875    -1.4423 C.1     
  16 N16           -2.0633     1.5279    -2.0779 N.1     
  17 H17           -0.8350    -0.2927     0.9829 H       
  18 H18            3.3583     3.1962    -0.0369 H       
  19 H19            5.7847     3.5149     0.2226 H       
  20 H20            7.2434     1.5854     0.6689 H       
  21 H21            6.2834    -0.6728     0.8584 H       
  22 H22            1.0889     2.6019    -2.5213 H       
  23 H23            2.6808     2.3745    -2.0346 H       
  24 H24            5.3801    -2.3936     0.0740 H       
  25 H25            5.1685    -2.1564     1.8254 H       
  26 H26            4.0986    -3.2719     0.9427 H       
@<TRIPOS>BOND
   1    1    2 1
   2    1    3 2
   3    1   15 1
   4    2    5 2
   5    2   17 1
   6    3    4 1
   7    3   12 1
   8    4    5 1
   9    4    6 1
  10    6    7 ar
  11    6   11 ar
  12    7    8 ar
  13    7   18 1
  14    8    9 ar
  15    8   19 1
  16    9   10 ar
  17    9   20 1
  18   10   11 ar
  19   10   21 1
  20   11   13 1
  21   12   22 1
  22   12   23 1
  23   13   14 1
  24   14   24 1
  25   14   25 1
  26   14   26 1
  27   15   16 3

#	End of record

