#	Name: ASD01151052
#	Creating user name:	WinNT
#	Creation time:	15. 06. 2019 19:05

#	Modifying user name:	WinNT
#	Modification time:	15. 06. 2019 19:05

#	Program:	/corina/corina34_cracker 3.40 0067  02.08.2006

@<TRIPOS>MOLECULE
ASD01151052
  52   54    0    0    0
SMALL
NO_CHARGES


@<TRIPOS>ATOM
   1 F1            -1.4343     3.1278     9.4564 F       
   2 C2            -1.3315     4.0863     8.5099 C.ar    
   3 C3            -0.1479     4.7949     8.3701 C.ar    
   4 C4            -0.0377     5.7742     7.4064 C.ar    
   5 C5            -1.1209     6.0519     6.5697 C.ar    
   6 C6            -2.3106     5.3348     6.7146 C.ar    
   7 C7            -2.4081     4.3540     7.6781 C.ar    
   8 C8            -1.0089     7.1005     5.5355 C.2     
   9 O9             0.0277     7.7237     5.4115 O.2     
  10 N10           -2.0557     7.3665     4.7294 N.am    
  11 C11           -1.9795     8.4166     3.8067 C.ar    
  12 C12           -0.7500     8.7954     3.2861 C.ar    
  13 C13           -0.6684     9.8326     2.3738 C.ar    
  14 C14           -1.8077    10.4982     1.9739 C.ar    
  15 C15           -3.0518    10.1267     2.4904 C.ar    
  16 C16           -3.1356     9.0763     3.4074 C.ar    
  17 F17           -4.3342     8.7103     3.9121 F       
  18 C18           -4.2738    10.8381     2.0644 C.2     
  19 O19           -5.3550    10.5129     2.5153 O.2     
  20 N20           -4.1904    11.8479     1.1756 N.am    
  21 C21           -5.3539    12.4762     0.7197 C.ar    
  22 C22           -6.4335    11.7147     0.2900 C.ar    
  23 I23           -6.3214     9.6230     0.3238 I       
  24 C24           -7.5816    12.3387    -0.1594 C.ar    
  25 C25           -7.6561    13.7191    -0.1819 C.ar    
  26 C26           -6.5830    14.4798     0.2452 C.ar    
  27 C27           -5.4347    13.8626     0.7009 C.ar    
  28 C28           -4.2662    14.6925     1.1666 C.3     
  29 F29           -4.5802    16.0503     1.0436 F       
  30 F30           -3.9889    14.3975     2.5057 F       
  31 F31           -3.1448    14.4003     0.3828 F       
  32 C32           -8.9094    14.3964    -0.6736 C.3     
  33 C33           -8.6623    14.9765    -2.0676 C.3     
  34 F34           -8.1995    13.9664    -2.9177 F       
  35 F35           -9.8569    15.5005    -2.5731 F       
  36 F36           -7.7045    15.9931    -1.9866 F       
  37 C37          -10.0478    13.3764    -0.7401 C.3     
  38 F38          -10.1761    12.7393     0.4988 F       
  39 F39          -11.2434    14.0317    -1.0535 F       
  40 F40           -9.7648    12.4254    -1.7264 F       
  41 F41           -9.2578    15.4274     0.2055 F       
  42 H42            0.6891     4.5793     9.0177 H       
  43 H43            0.8844     6.3260     7.2988 H       
  44 H44           -3.1514     5.5458     6.0704 H       
  45 H45           -3.3275     3.7986     7.7909 H       
  46 H46           -2.8619     6.8303     4.7884 H       
  47 H47            0.1469     8.2788     3.5946 H       
  48 H48            0.2919    10.1223     1.9735 H       
  49 H49           -1.7385    11.3070     1.2616 H       
  50 H50           -3.3235    12.1390     0.8522 H       
  51 H51           -8.4213    11.7476    -0.4936 H       
  52 H52           -6.6444    15.5579     0.2260 H       
@<TRIPOS>BOND
   1    1    2 1
   2    2    3 ar
   3    2    7 ar
   4    3    4 ar
   5    3   42 1
   6    4    5 ar
   7    4   43 1
   8    5    6 ar
   9    5    8 1
  10    6    7 ar
  11    6   44 1
  12    7   45 1
  13    8    9 2
  14    8   10 am
  15   10   11 1
  16   10   46 1
  17   11   12 ar
  18   11   16 ar
  19   12   13 ar
  20   12   47 1
  21   13   14 ar
  22   13   48 1
  23   14   15 ar
  24   14   49 1
  25   15   16 ar
  26   15   18 1
  27   16   17 1
  28   18   19 2
  29   18   20 am
  30   20   21 1
  31   20   50 1
  32   21   22 ar
  33   21   27 ar
  34   22   23 1
  35   22   24 ar
  36   24   25 ar
  37   24   51 1
  38   25   26 ar
  39   25   32 1
  40   26   27 ar
  41   26   52 1
  42   27   28 1
  43   28   29 1
  44   28   30 1
  45   28   31 1
  46   32   33 1
  47   32   37 1
  48   32   41 1
  49   33   34 1
  50   33   35 1
  51   33   36 1
  52   37   38 1
  53   37   39 1
  54   37   40 1

#	End of record

