#	Name: ASD01870317
#	Creating user name:	WinNT
#	Creation time:	15. 06. 2019 19:39

#	Modifying user name:	WinNT
#	Modification time:	15. 06. 2019 19:39

#	Program:	/corina/corina34_cracker 3.40 0067  02.08.2006

@<TRIPOS>MOLECULE
ASD01870317
  32   34    0    0    0
SMALL
NO_CHARGES


@<TRIPOS>ATOM
   1 C1            -0.0162     1.3436     0.0094 C.2     
   2 N2            -0.0453     0.2994    -0.8422 N.am    
   3 O3             0.9914     1.5837     0.6402 O.2     
   4 C4             1.1062    -0.4366    -1.0763 C.2     
   5 O5             1.2068    -1.4932    -1.8975 O.3     
   6 C6             2.4835    -1.9299    -1.8516 C.2     
   7 C7             3.1467    -1.1319    -1.0008 C.2     
   8 N8             2.2786    -0.2133    -0.5374 N.2     
   9 C9            -1.2337     2.2164     0.1733 C.3     
  10 C10           -2.0134     1.7602     1.3787 C.ar    
  11 C11           -2.5676     2.6415     2.2800 C.ar    
  12 C12           -2.4335     4.1353     2.1406 C.3     
  13 C13           -2.0199     4.5069     0.7180 C.3     
  14 C14           -0.7931     3.6697     0.3371 C.3     
  15 C15           -2.1686     0.3934     1.5691 C.ar    
  16 C16           -2.8761    -0.0879     2.6515 C.ar    
  17 C17           -3.4356     0.7968     3.5541 C.ar    
  18 C18           -3.2809     2.1551     3.3677 C.ar    
  19 H19           -0.8719     0.0628    -1.2914 H       
  20 H20            2.8946    -2.7659    -2.3980 H       
  21 H21            4.1914    -1.2100    -0.7380 H       
  22 H22           -1.8604     2.1293    -0.7142 H       
  23 H23           -3.3896     4.6052     2.3712 H       
  24 H24           -1.6788     4.4953     2.8399 H       
  25 H25           -2.8381     4.2934     0.0302 H       
  26 H26           -1.7692     5.5667     0.6735 H       
  27 H27           -0.0425     3.7392     1.1244 H       
  28 H28           -0.3764     4.0350    -0.6015 H       
  29 H29           -1.7324    -0.2985     0.8638 H       
  30 H30           -2.9925    -1.1523     2.7927 H       
  31 H31           -3.9919     0.4261     4.4024 H       
  32 H32           -3.7180     2.8457     4.0736 H       
@<TRIPOS>BOND
   1    1    2 am
   2    1    3 2
   3    1    9 1
   4    2    4 1
   5    2   19 1
   6    4    5 1
   7    4    8 2
   8    5    6 1
   9    6    7 2
  10    6   20 1
  11    7    8 1
  12    7   21 1
  13    9   10 1
  14    9   14 1
  15    9   22 1
  16   10   15 ar
  17   10   11 ar
  18   11   12 1
  19   11   18 ar
  20   12   13 1
  21   12   23 1
  22   12   24 1
  23   13   14 1
  24   13   25 1
  25   13   26 1
  26   14   27 1
  27   14   28 1
  28   15   16 ar
  29   15   29 1
  30   16   17 ar
  31   16   30 1
  32   17   18 ar
  33   17   31 1
  34   18   32 1

#	End of record

