#	Name: ASD08070003
#	Creating user name:	WinNT
#	Creation time:	15. 06. 2019 21:14

#	Modifying user name:	WinNT
#	Modification time:	15. 06. 2019 21:14

#	Program:	/corina/corina34_cracker 3.40 0067  02.08.2006

@<TRIPOS>MOLECULE
ASD08070003
  24   24    0    0    0
SMALL
NO_CHARGES


@<TRIPOS>ATOM
   1 C1            -0.0187     1.5258     0.0104 C.3     
   2 C2             0.0021    -0.0041     0.0020 C.3     
   3 C3             0.7421    -0.5109     1.2415 C.3     
   4 C4             2.1775     0.0187     1.2307 C.3     
   5 C5             2.1567     1.5485     1.2391 C.3     
   6 C6             1.4167     2.0553    -0.0004 C.3     
   7 N7            -0.7272     2.0111    -1.1764 N.am    
   8 S8            -1.6521     3.3818    -1.0859 S.o2    
   9 O9            -2.1702     3.6031    -2.3904 O.2     
  10 O10           -2.4755     3.2351     0.0629 O.2     
  11 O11           -0.7109     4.5419    -0.7947 O.3     
  12 H12           -1.1534     5.3985    -0.7212 H       
  13 H13           -0.5289     1.8773     0.9072 H       
  14 H14           -1.0205    -0.3814     0.0098 H       
  15 H15            0.5123    -0.3556    -0.8948 H       
  16 H16            0.2319    -0.1594     2.1383 H       
  17 H17            0.7568    -1.6008     1.2356 H       
  18 H18            2.7046    -0.3424     2.1137 H       
  19 H19            2.6876    -0.3328     0.3339 H       
  20 H20            1.6465     1.9000     2.1359 H       
  21 H21            3.1793     1.9258     1.2314 H       
  22 H22            1.9269     1.7038    -0.8972 H       
  23 H23            1.4019     3.1452     0.0056 H       
  24 H24           -0.6547     1.5295    -2.0153 H       
@<TRIPOS>BOND
   1    1    2 1
   2    1    6 1
   3    1    7 1
   4    1   13 1
   5    2    3 1
   6    2   14 1
   7    2   15 1
   8    3    4 1
   9    3   16 1
  10    3   17 1
  11    4    5 1
  12    4   18 1
  13    4   19 1
  14    5    6 1
  15    5   20 1
  16    5   21 1
  17    6   22 1
  18    6   23 1
  19    7    8 am
  20    7   24 1
  21    8    9 2
  22    8   10 2
  23    8   11 1
  24   11   12 1

#	End of record

