#	Name: ASD01910287
#	Creating user name:	WinNT
#	Creation time:	15. 06. 2019 19:55

#	Modifying user name:	WinNT
#	Modification time:	15. 06. 2019 19:55

#	Program:	/corina/corina34_cracker 3.40 0067  02.08.2006

@<TRIPOS>MOLECULE
ASD01910287
  44   47    0    0    0
SMALL
NO_CHARGES


@<TRIPOS>ATOM
   1 C1            -0.6754     2.3248     0.1872 C.ar    
   2 C2            -0.8085     0.9487     0.2568 C.ar    
   3 C3             0.3152     0.1417     0.3059 C.ar    
   4 C4             1.5743     0.7064     0.2856 C.ar    
   5 C5             1.7133     2.0908     0.2156 C.ar    
   6 C6             0.5795     2.8987     0.1664 C.ar    
   7 C7             3.0655     2.7032     0.1939 C.2     
   8 N8             3.3463     3.9895     0.1300 N.2     
   9 N9             4.6290     4.1137     0.1329 N.pl3   
  10 N10            5.1697     2.9472     0.1966 N.2     
  11 N11            4.2384     2.0559     0.2415 N.2     
  12 C12            5.3575     5.3833     0.0726 C.3     
  13 C13            6.2283     5.5324     1.3223 C.3     
  14 C14            6.9647     6.8732     1.2760 C.3     
  15 C15            7.8757     6.9087     0.0449 C.3     
  16 N16            7.0687     6.6219    -1.1490 N.am    
  17 C17            6.2503     5.4019    -1.1721 C.3     
  18 C18            7.0790     7.4620    -2.2028 C.2     
  19 C19            6.3668     7.0978    -3.4447 C.ar    
  20 O20            7.6744     8.5195    -2.1313 O.2     
  21 C21            5.6233     8.0584    -4.1336 C.ar    
  22 C22            4.9610     7.7134    -5.2921 C.ar    
  23 C23            5.0321     6.4151    -5.7739 C.ar    
  24 C24            5.7686     5.4573    -5.0936 C.ar    
  25 C25            6.4393     5.7930    -3.9372 C.ar    
  26 F26            4.3812     6.0821    -6.9099 F       
  27 Cl27          -2.3897     0.2326     0.2833 Cl      
  28 H28           -1.5549     2.9501     0.1446 H       
  29 H29            0.2065    -0.9314     0.3605 H       
  30 H30            2.4504     0.0761     0.3242 H       
  31 H31            0.6824     3.9724     0.1117 H       
  32 H32            4.6471     6.2085     0.0236 H       
  33 H33            5.5979     5.4948     2.2107 H       
  34 H34            6.9545     4.7203     1.3579 H       
  35 H35            6.2394     7.6847     1.2154 H       
  36 H36            7.5665     6.9890     2.1774 H       
  37 H37            8.3267     7.8967    -0.0476 H       
  38 H38            8.6574     6.1560     0.1470 H       
  39 H39            6.8995     4.5263    -1.1693 H       
  40 H40            5.6289     5.3957    -2.0676 H       
  41 H41            5.5669     9.0699    -3.7590 H       
  42 H42            4.3855     8.4554    -5.8255 H       
  43 H43            5.8204     4.4474    -5.4730 H       
  44 H44            7.0129     5.0463    -3.4083 H       
@<TRIPOS>BOND
   1    1    2 ar
   2    1    6 ar
   3    1   28 1
   4    2    3 ar
   5    2   27 1
   6    3    4 ar
   7    3   29 1
   8    4    5 ar
   9    4   30 1
  10    5    6 ar
  11    5    7 1
  12    6   31 1
  13    7    8 2
  14    7   11 1
  15    8    9 1
  16    9   10 1
  17    9   12 1
  18   10   11 2
  19   12   13 1
  20   12   17 1
  21   12   32 1
  22   13   14 1
  23   13   33 1
  24   13   34 1
  25   14   15 1
  26   14   35 1
  27   14   36 1
  28   15   16 1
  29   15   37 1
  30   15   38 1
  31   16   17 1
  32   16   18 am
  33   17   39 1
  34   17   40 1
  35   18   19 1
  36   18   20 2
  37   19   21 ar
  38   19   25 ar
  39   21   22 ar
  40   21   41 1
  41   22   23 ar
  42   22   42 1
  43   23   24 ar
  44   23   26 1
  45   24   25 ar
  46   24   43 1
  47   25   44 1

#	End of record

