#	Name: ASD01028046
#	Creating user name:	WinNT
#	Creation time:	15. 06. 2019 18:56

#	Modifying user name:	WinNT
#	Modification time:	15. 06. 2019 18:56

#	Program:	/corina/corina34_cracker 3.40 0067  02.08.2006

@<TRIPOS>MOLECULE
ASD01028046
  92   97    0    0    0
SMALL
NO_CHARGES


@<TRIPOS>ATOM
   1 C1            -0.1432     0.8555     1.0244 C.3     
   2 C2            -0.7282    -0.1700     1.9963 C.3     
   3 C3             1.8108     2.4204     0.9792 C.3     
   4 C4             1.3630     0.9860     1.2614 C.3     
   5 N5             3.0992     3.7505     2.5823 N.am    
   6 N6            -0.2470     3.9457     4.8135 N.pl3   
   7 C7             0.7196     4.8946     5.0881 C.ar    
   8 C8             1.7518     5.0362     4.1659 C.ar    
   9 C9             1.7322     4.1977     2.9156 C.3     
  10 C10            0.6799     5.7120     6.2140 C.ar    
  11 C11            1.7011     6.6270     6.4336 C.ar    
  12 C12            2.7531     6.7277     5.5311 C.ar    
  13 C13            2.7687     5.9347     4.3991 C.ar    
  14 O14           -2.1015     0.1219     2.2571 O.3     
  15 C15           -2.4066     0.6715     3.4629 C.ar    
  16 C16           -1.6899     1.7573     3.8861 C.ar    
  17 C17           -1.9740     2.3271     5.1320 C.ar    
  18 C18           -1.2304     3.4443     5.6084 C.ar    
  19 N19           -1.5388     3.9255     6.8030 N.ar    
  20 O20           -0.2327     5.8173     7.2202 O.3     
  21 C21            0.1289     6.9618     8.0022 C.3     
  22 O22            1.4525     7.3136     7.5837 O.3     
  23 C23           -3.4370     0.1443     4.2548 C.ar    
  24 C24           -3.7367     0.6959     5.4834 C.ar    
  25 C25           -3.0000     1.7945     5.9453 C.ar    
  26 N26           -3.2214     2.3640     7.1393 N.ar    
  27 C27           -2.5053     3.3900     7.5344 C.ar    
  28 O28           -4.1484    -0.9229     3.8069 O.3     
  29 C29           -5.1853    -1.4148     4.6583 C.3     
  30 C30           -5.8698    -2.6091     3.9905 C.3     
  31 C31           -6.9800    -3.1359     4.9021 C.3     
  32 N32           -7.6372    -4.2825     4.2609 N.3     
  33 C33            3.1961     2.6616     1.5815 C.3     
  34 Br34           4.1619     7.9477     5.8518 Br      
  35 C35            4.1907     4.2986     3.1523 C.2     
  36 O36            5.3059     4.4914     2.4230 O.3     
  37 O37            4.1682     4.6187     4.3242 O.2     
  38 C38            6.4531     5.0573     3.1100 C.3     
  39 C39            6.8838     4.1204     4.2404 C.3     
  40 C40            7.6076     5.2268     2.1204 C.3     
  41 C41            6.0768     6.4208     3.6931 C.3     
  42 C42           -8.5435    -4.9615     5.1975 C.3     
  43 C43           -6.6460    -5.2215     3.7175 C.3     
  44 C44           -7.3687    -6.3581     2.9906 C.3     
  45 N45           -8.2750    -7.0370     3.9272 N.3     
  46 C46           -9.2663    -6.0980     4.4706 C.3     
  47 C47           -8.9323    -8.1837     3.2861 C.3     
  48 H48           -0.3225     0.5283     0.0002 H       
  49 H49           -0.6211     1.8219     1.1853 H       
  50 H50           -0.6472    -1.1663     1.5617 H       
  51 H51           -0.1691    -0.1405     2.9316 H       
  52 H52            1.8513     2.5818    -0.0980 H       
  53 H53            1.0976     3.1160     1.4216 H       
  54 H54            1.5899     0.7329     2.2970 H       
  55 H55            1.8945     0.3036     0.5981 H       
  56 H56           -0.2203     3.5812     3.9150 H       
  57 H57            1.3340     4.7883     2.0906 H       
  58 H58            1.0958     3.3271     3.0743 H       
  59 H59            3.5825     6.0201     3.6942 H       
  60 H60           -0.9107     2.1713     3.2633 H       
  61 H61           -0.5590     7.7843     7.8060 H       
  62 H62            0.1239     6.7100     9.0627 H       
  63 H63           -4.5340     0.2843     6.0844 H       
  64 H64           -2.7132     3.8185     8.5037 H       
  65 H65           -4.7560    -1.7276     5.6101 H       
  66 H66           -5.9177    -0.6264     4.8316 H       
  67 H67           -6.2991    -2.2963     3.0387 H       
  68 H68           -5.1373    -3.3975     3.8172 H       
  69 H69           -6.5507    -3.4487     5.8539 H       
  70 H70           -7.7125    -2.3475     5.0754 H       
  71 H71            3.5477     1.7506     2.0658 H       
  72 H72            3.8917     2.9505     0.7936 H       
  73 H73            7.1519     3.1490     3.8249 H       
  74 H74            7.7450     4.5453     4.7561 H       
  75 H75            6.0614     3.9996     4.9454 H       
  76 H76            7.3324     5.9614     1.3636 H       
  77 H77            8.4952     5.5686     2.6527 H       
  78 H78            7.8176     4.2713     1.6398 H       
  79 H79            5.2543     6.3000     4.3982 H       
  80 H80            6.9380     6.8456     4.2089 H       
  81 H81            5.7700     7.0882     2.8878 H       
  82 H82           -7.9685    -5.3692     6.0289 H       
  83 H83           -9.2757    -4.2485     5.5765 H       
  84 H84           -5.9948    -4.6981     3.0174 H       
  85 H85           -6.0494    -5.6322     4.5321 H       
  86 H86           -7.9438    -5.9503     2.1592 H       
  87 H87           -6.6365    -7.0711     2.6117 H       
  88 H88           -9.9174    -6.6214     5.1707 H       
  89 H89           -9.8629    -5.6873     3.6561 H       
  90 H90           -8.1771    -8.8954     2.9524 H       
  91 H91           -9.5972    -8.6680     4.0013 H       
  92 H92           -9.5102    -7.8385     2.4288 H       
@<TRIPOS>BOND
   1    1    2 1
   2    1    4 1
   3    1   48 1
   4    1   49 1
   5    2   14 1
   6    2   50 1
   7    2   51 1
   8    3    4 1
   9    3   33 1
  10    3   52 1
  11    3   53 1
  12    4   54 1
  13    4   55 1
  14    5   33 1
  15    5   35 am
  16    5    9 1
  17    6    7 1
  18    6   18 1
  19    6   56 1
  20    7    8 ar
  21    7   10 ar
  22    8    9 1
  23    8   13 ar
  24    9   57 1
  25    9   58 1
  26   10   11 ar
  27   10   20 1
  28   11   12 ar
  29   11   22 1
  30   12   13 ar
  31   12   34 1
  32   13   59 1
  33   14   15 1
  34   15   16 ar
  35   15   23 ar
  36   16   17 ar
  37   16   60 1
  38   17   18 ar
  39   17   25 ar
  40   18   19 ar
  41   19   27 ar
  42   20   21 1
  43   21   22 1
  44   21   61 1
  45   21   62 1
  46   23   24 ar
  47   23   28 1
  48   24   25 ar
  49   24   63 1
  50   25   26 ar
  51   26   27 ar
  52   27   64 1
  53   28   29 1
  54   29   30 1
  55   29   65 1
  56   29   66 1
  57   30   31 1
  58   30   67 1
  59   30   68 1
  60   31   32 1
  61   31   69 1
  62   31   70 1
  63   32   42 1
  64   32   43 1
  65   33   71 1
  66   33   72 1
  67   35   36 1
  68   35   37 2
  69   36   38 1
  70   38   39 1
  71   38   40 1
  72   38   41 1
  73   39   73 1
  74   39   74 1
  75   39   75 1
  76   40   76 1
  77   40   77 1
  78   40   78 1
  79   41   79 1
  80   41   80 1
  81   41   81 1
  82   42   46 1
  83   42   82 1
  84   42   83 1
  85   43   44 1
  86   43   84 1
  87   43   85 1
  88   44   45 1
  89   44   86 1
  90   44   87 1
  91   45   46 1
  92   45   47 1
  93   46   88 1
  94   46   89 1
  95   47   90 1
  96   47   91 1
  97   47   92 1

#	End of record

