#	Name: ASD00192127
#	Creating user name:	WinNT
#	Creation time:	15. 06. 2019 18:33

#	Modifying user name:	WinNT
#	Modification time:	15. 06. 2019 18:33

#	Program:	/corina/corina34_cracker 3.40 0067  02.08.2006

@<TRIPOS>MOLECULE
ASD00192127
  47   51    0    0    0
SMALL
NO_CHARGES


@<TRIPOS>ATOM
   1 C1            -0.0169     1.3867    -0.0295 C.ar    
   2 C2             0.0020    -0.0029    -0.0699 C.ar    
   3 C3             1.1800    -0.6890    -0.0827 C.ar    
   4 C4             2.3959     0.0111    -0.0553 C.ar    
   5 C5             2.3705     1.4253    -0.0147 C.ar    
   6 C6             1.1479     2.0989    -0.0020 C.ar    
   7 N7             3.5672    -0.6421    -0.0667 N.ar    
   8 C8             4.7270    -0.0217    -0.0415 C.ar    
   9 C9             4.8177     1.3790    -0.0006 C.ar    
  10 C10            3.6460     2.1428     0.0135 C.ar    
  11 N11            5.8568     2.2827     0.0315 N.pl3   
  12 C12            5.3127     3.5197     0.0635 C.2     
  13 N13            4.0106     3.4327     0.0527 N.2     
  14 N14            5.8929    -0.7721    -0.0553 N.pl3   
  15 C15            6.0938     4.8078     0.1057 C.3     
  16 C16            6.4560     5.1372     1.5553 C.3     
  17 C17            7.2490     6.4450     1.5982 C.3     
  18 C18            8.5293     6.2923     0.7746 C.3     
  19 C19            8.1671     5.9629    -0.6749 C.3     
  20 C20            7.3741     4.6551    -0.7178 C.3     
  21 C21            7.1338    -0.1532    -0.1673 C.2     
  22 C22            5.8429    -2.2356     0.0540 C.3     
  23 C23            6.9042    -2.6917     1.0240 C.2     
  24 C24            8.0124    -1.9663     1.1866 C.2     
  25 C25            8.1933    -0.7228     0.4324 C.2     
  26 F26            9.4153    -0.1545     0.3369 F       
  27 F27            8.9670    -2.3759     2.0504 F       
  28 H28           -0.9625     1.9083    -0.0242 H       
  29 H29           -0.9307    -0.5471    -0.0911 H       
  30 H30            1.1774    -1.7685    -0.1135 H       
  31 H31            1.1233     3.1782     0.0286 H       
  32 H32            6.8033     2.0707     0.0315 H       
  33 H33            5.4885     5.6135    -0.3096 H       
  34 H34            5.5439     5.2459     2.1420 H       
  35 H35            7.0613     4.3315     1.9706 H       
  36 H36            6.6437     7.2507     1.1829 H       
  37 H37            7.5071     6.6797     2.6309 H       
  38 H38            9.0943     7.2240     0.8052 H       
  39 H39            9.1346     5.4866     1.1900 H       
  40 H40            7.5618     6.7686    -1.0903 H       
  41 H41            9.0792     5.8542    -1.2617 H       
  42 H42            7.9794     3.8494    -0.3025 H       
  43 H43            7.1160     4.4204    -1.7505 H       
  44 H44            7.2435     0.7654    -0.7245 H       
  45 H45            4.8615    -2.5409     0.4169 H       
  46 H46            6.0267    -2.6809    -0.9238 H       
  47 H47            6.7672    -3.6036     1.5862 H       
@<TRIPOS>BOND
   1    1    2 ar
   2    1    6 ar
   3    1   28 1
   4    2    3 ar
   5    2   29 1
   6    3    4 ar
   7    3   30 1
   8    4    5 ar
   9    4    7 ar
  10    5    6 ar
  11    5   10 ar
  12    6   31 1
  13    7    8 ar
  14    8    9 ar
  15    8   14 1
  16    9   10 ar
  17    9   11 1
  18   10   13 1
  19   11   12 1
  20   11   32 1
  21   12   13 2
  22   12   15 1
  23   14   21 1
  24   14   22 1
  25   15   16 1
  26   15   20 1
  27   15   33 1
  28   16   17 1
  29   16   34 1
  30   16   35 1
  31   17   18 1
  32   17   36 1
  33   17   37 1
  34   18   19 1
  35   18   38 1
  36   18   39 1
  37   19   20 1
  38   19   40 1
  39   19   41 1
  40   20   42 1
  41   20   43 1
  42   21   25 2
  43   21   44 1
  44   22   23 1
  45   22   45 1
  46   22   46 1
  47   23   24 2
  48   23   47 1
  49   24   25 1
  50   24   27 1
  51   25   26 1

#	End of record

