#	Name: ASD03430130
#	Creating user name:	WinNT
#	Creation time:	15. 06. 2019 20:40

#	Modifying user name:	WinNT
#	Modification time:	15. 06. 2019 20:40

#	Program:	/corina/corina34_cracker 3.40 0067  02.08.2006

@<TRIPOS>MOLECULE
ASD03430130
  64   70    0    0    0
SMALL
NO_CHARGES


@<TRIPOS>ATOM
   1 C1            -0.3727     1.5256     0.5909 C.ar    
   2 C2            -0.3242     0.1557     0.4548 C.ar    
   3 C3             0.8847    -0.4771     0.2563 C.ar    
   4 C4             2.0650     0.2597     0.2036 C.ar    
   5 C5             2.0065     1.6421     0.3339 C.ar    
   6 C6             0.7892     2.2853     0.5238 C.ar    
   7 O7             3.1458    -0.5540     0.0333 O.3     
   8 C8             1.2669    -1.9175     0.0502 C.3     
   9 C9             2.7065    -1.8281    -0.4752 C.3     
  10 C10            0.3019    -3.7625     1.0413 C.ar    
  11 C11            1.1814    -2.7201     1.3139 C.ar    
  12 C12            0.3604    -2.6130    -0.9246 C.2     
  13 N13           -0.1607    -3.6723    -0.2741 N.am    
  14 O14            0.1399    -2.2855    -2.0714 O.2     
  15 C15            1.7690    -2.6043     2.5655 C.ar    
  16 C16            1.4769    -3.5396     3.5581 C.ar    
  17 C17            0.6045    -4.5749     3.2882 C.ar    
  18 C18            0.0200    -4.6892     2.0428 C.ar    
  19 C19            2.7061    -1.4887     2.8471 C.ar    
  20 C20           -1.5206     2.4867     0.8300 C.3     
  21 C21           -0.7770     3.7717     1.2646 C.3     
  22 O22            0.5154     3.6131     0.6552 O.3     
  23 C23           -1.1029    -4.6188    -0.8761 C.3     
  24 C24           -2.5344    -4.1323    -0.6417 C.3     
  25 C25           -3.5339    -5.1217    -1.2715 C.3     
  26 C26           -4.4186    -5.5746    -0.0845 C.3     
  27 C27           -4.2023    -4.4293     0.9372 C.3     
  28 O28           -2.8101    -4.0858     0.7683 O.3     
  29 C29            2.3912    -0.5388     3.8166 C.ar    
  30 C30            3.2666     0.4965     4.0748 C.ar    
  31 C31            4.4548     0.5921     3.3731 C.ar    
  32 C32            4.7725    -0.3481     2.4096 C.ar    
  33 C33            3.9068    -1.3905     2.1470 C.ar    
  34 C34            6.0686    -0.2370     1.6488 C.3     
  35 F35            6.7735     0.8880     2.0902 F       
  36 F36            6.8378    -1.3848     1.8679 F       
  37 F37            5.7978    -0.1110     0.2821 F       
  38 C38            2.9272     1.5249     5.1228 C.3     
  39 F39            3.4218     1.1076     6.3631 F       
  40 F40            3.5066     2.7507     4.7781 F       
  41 F41            1.5379     1.6710     5.1999 F       
  42 H42           -1.2344    -0.4235     0.5039 H       
  43 H43            2.9162     2.2224     0.2872 H       
  44 H44            2.7220    -1.8360    -1.5651 H       
  45 H45            3.3165    -2.6367    -0.0725 H       
  46 H46            1.9316    -3.4544     4.5339 H       
  47 H47            0.3783    -5.3000     4.0559 H       
  48 H48           -0.6615    -5.5030     1.8434 H       
  49 H49           -2.0853     2.6547    -0.0871 H       
  50 H50           -2.1717     2.1253     1.6260 H       
  51 H51           -1.2799     4.6583     0.8783 H       
  52 H52           -0.6890     3.8185     2.3501 H       
  53 H53           -0.9136    -4.6883    -1.9473 H       
  54 H54           -0.9734    -5.6003    -0.4198 H       
  55 H55           -2.6660    -3.1431    -1.0801 H       
  56 H56           -4.1383    -4.6230    -2.0292 H       
  57 H57           -3.0076    -5.9737    -1.7019 H       
  58 H58           -5.4654    -5.6383    -0.3816 H       
  59 H59           -4.0715    -6.5261     0.3184 H       
  60 H60           -4.8394    -3.5775     0.6994 H       
  61 H61           -4.3908    -4.7796     1.9520 H       
  62 H62            1.4636    -0.6124     4.3648 H       
  63 H63            5.1368     1.4041     3.5781 H       
  64 H64            4.1559    -2.1242     1.3947 H       
@<TRIPOS>BOND
   1    1    2 ar
   2    1    6 ar
   3    1   20 1
   4    2    3 ar
   5    2   42 1
   6    3    4 ar
   7    3    8 1
   8    4    5 ar
   9    4    7 1
  10    5    6 ar
  11    5   43 1
  12    6   22 1
  13    7    9 1
  14    8    9 1
  15    8   11 1
  16    8   12 1
  17    9   44 1
  18    9   45 1
  19   10   11 ar
  20   10   13 1
  21   10   18 ar
  22   11   15 ar
  23   12   13 am
  24   12   14 2
  25   13   23 1
  26   15   16 ar
  27   15   19 1
  28   16   17 ar
  29   16   46 1
  30   17   18 ar
  31   17   47 1
  32   18   48 1
  33   19   29 ar
  34   19   33 ar
  35   20   21 1
  36   20   49 1
  37   20   50 1
  38   21   22 1
  39   21   51 1
  40   21   52 1
  41   23   24 1
  42   23   53 1
  43   23   54 1
  44   24   25 1
  45   24   28 1
  46   24   55 1
  47   25   26 1
  48   25   56 1
  49   25   57 1
  50   26   27 1
  51   26   58 1
  52   26   59 1
  53   27   28 1
  54   27   60 1
  55   27   61 1
  56   29   30 ar
  57   29   62 1
  58   30   31 ar
  59   30   38 1
  60   31   32 ar
  61   31   63 1
  62   32   33 ar
  63   32   34 1
  64   33   64 1
  65   34   35 1
  66   34   36 1
  67   34   37 1
  68   38   39 1
  69   38   40 1
  70   38   41 1

#	End of record

