#	Name: ASD01913944
#	Creating user name:	WinNT
#	Creation time:	15. 06. 2019 20:02

#	Modifying user name:	WinNT
#	Modification time:	15. 06. 2019 20:02

#	Program:	/corina/corina34_cracker 3.40 0067  02.08.2006

@<TRIPOS>MOLECULE
ASD01913944
  42   45    0    0    0
SMALL
NO_CHARGES


@<TRIPOS>ATOM
   1 C1            -0.0173     1.4278     0.0099 C.ar    
   2 C2             0.0021    -0.0041     0.0020 C.1     
   3 C3             0.0180    -1.1779    -0.0044 C.1     
   4 C4             0.0374    -2.6098    -0.0123 C.ar    
   5 C5            -1.1657    -3.3304    -0.0047 C.ar    
   6 C6             0.1700    -5.3026    -0.0290 C.ar    
   7 N7             1.2564    -4.5437    -0.0405 N.ar    
   8 N8             1.1960    -3.2616    -0.0324 N.ar    
   9 C9            -1.0939    -4.7113    -0.0133 C.ar    
  10 C10           -1.2349     2.1134     0.0310 C.ar    
  11 C11           -0.0549     4.1972     0.0261 C.ar    
  12 N12            0.2896    -6.6909    -0.0386 N.am    
  13 C13            1.1812     2.1463     0.0023 C.ar    
  14 C14           -1.2457     3.4925     0.0390 C.ar    
  15 C15            1.1547     3.5252     0.0104 C.ar    
  16 C16           -0.7290    -7.5557    -0.1243 C.2     
  17 N17           -0.3532    -8.8409    -0.1138 N.am    
  18 C18            1.1108    -8.9181    -0.0081 C.3     
  19 C19            1.5544    -7.4360     0.0375 C.3     
  20 C20            1.6854    -9.4992    -1.3154 C.3     
  21 C21            1.8863    -8.2640    -2.2275 C.3     
  22 C22            2.3784    -7.1882    -1.2418 C.3     
  23 H23            1.4282    -9.4724     0.8752 H       
  24 H24            2.1069    -7.2008     0.9472 H       
  25 C25           -1.2589    -9.9895    -0.1945 C.3     
  26 O26           -1.8906    -7.2056    -0.2037 O.2     
  27 H27           -2.1187    -2.8226     0.0079 H       
  28 H28           -1.9897    -5.3145    -0.0076 H       
  29 H29           -2.1651     1.5646     0.0408 H       
  30 H30           -0.0695     5.2771     0.0324 H       
  31 H31            2.1260     1.6231    -0.0095 H       
  32 H32           -2.1860     4.0237     0.0512 H       
  33 H33            2.0802     4.0818     0.0046 H       
  34 H34            2.6388    -9.9926    -1.1265 H       
  35 H35            0.9780   -10.1950    -1.7665 H       
  36 H36            2.6423    -8.4635    -2.9869 H       
  37 H37            0.9441    -7.9662    -2.6875 H       
  38 H38            2.1774    -6.1913    -1.6342 H       
  39 H39            3.4426    -7.3126    -1.0419 H       
  40 H40           -2.2878    -9.6367    -0.2650 H       
  41 H41           -1.0167   -10.5819    -1.0768 H       
  42 H42           -1.1461   -10.6046     0.6983 H       
@<TRIPOS>BOND
   1    1    2 1
   2    1   13 ar
   3    1   10 ar
   4    2    3 3
   5    3    4 1
   6    4    5 ar
   7    4    8 ar
   8    5    9 ar
   9    5   27 1
  10    6    7 ar
  11    6   12 1
  12    6    9 ar
  13    7    8 ar
  14    9   28 1
  15   10   14 ar
  16   10   29 1
  17   11   14 ar
  18   11   15 ar
  19   11   30 1
  20   12   16 am
  21   12   19 1
  22   13   15 ar
  23   13   31 1
  24   14   32 1
  25   15   33 1
  26   16   17 am
  27   16   26 2
  28   17   18 1
  29   17   25 1
  30   18   19 1
  31   18   20 1
  32   18   23 1
  33   19   24 1
  34   19   22 1
  35   20   21 1
  36   20   34 1
  37   20   35 1
  38   21   22 1
  39   21   36 1
  40   21   37 1
  41   22   38 1
  42   22   39 1
  43   25   40 1
  44   25   41 1
  45   25   42 1

#	End of record

