#	Name: ASD01914757
#	Creating user name:	WinNT
#	Creation time:	15. 06. 2019 20:04

#	Modifying user name:	WinNT
#	Modification time:	15. 06. 2019 20:04

#	Program:	/corina/corina34_cracker 3.40 0067  02.08.2006

@<TRIPOS>MOLECULE
ASD01914757
  46   49    0    0    0
SMALL
NO_CHARGES


@<TRIPOS>ATOM
   1 N1            -0.0266     1.3492     0.2483 N.am    
   2 C2             0.0016    -0.0051     0.0140 C.2     
   3 C3            -1.2635    -0.7040    -0.2277 C.2     
   4 C4            -2.4038     0.0124    -0.2100 C.2     
   5 N5            -2.3602     1.3673     0.0312 N.am    
   6 C6            -1.1991     2.0051     0.2577 C.2     
   7 C7             1.2744     1.7459     0.4400 C.2     
   8 C8             2.0445     0.6466     0.3202 C.2     
   9 N9             1.2545    -0.4044     0.0620 N.2     
  10 C10            3.5450     0.6061     0.4538 C.3     
  11 O11           -1.2092     3.2028     0.4665 O.2     
  12 C12           -3.5513     2.0951     0.0461 C.ar    
  13 O13            4.0343     1.9202     0.7292 O.3     
  14 C14            5.3778     2.0594     0.8795 C.ar    
  15 C15            5.9213     3.3071     1.1484 C.ar    
  16 C16            6.2075     0.9529     0.7699 C.ar    
  17 C17            7.5728     1.0970     0.9235 C.ar    
  18 C18            8.1125     2.3424     1.1868 C.ar    
  19 C19            7.2872     3.4459     1.3012 C.ar    
  20 N20           -3.5103     3.4186     0.0474 N.ar    
  21 C21           -4.6169     4.1462     0.0613 C.ar    
  22 C22           -5.8663     3.5365     0.0755 C.ar    
  23 C23           -5.9443     2.1538     0.0746 C.ar    
  24 C24           -4.7667     1.4234     0.0536 C.ar    
  25 N25           -4.5282     5.5333     0.0621 N.pl3   
  26 C26           -5.7415     6.3448     0.1880 C.3     
  27 C27           -3.2216     6.1839    -0.0629 C.3     
  28 H28           -1.2811    -1.7673    -0.4157 H       
  29 H29           -3.3513    -0.4753    -0.3851 H       
  30 H30            1.6157     2.7494     0.6473 H       
  31 H31            3.8192    -0.0622     1.2700 H       
  32 H32            3.9829     0.2429    -0.4760 H       
  33 H33            5.2771     4.1694     1.2379 H       
  34 H34            5.7864    -0.0202     0.5650 H       
  35 H35            8.2191     0.2359     0.8383 H       
  36 H36            9.1801     2.4529     1.3069 H       
  37 H37            7.7112     4.4177     1.5066 H       
  38 H38           -6.7657     4.1343     0.0875 H       
  39 H39           -6.9024     1.6554     0.0854 H       
  40 H40           -4.7938     0.3437     0.0523 H       
  41 H41           -5.9410     6.5389     1.2418 H       
  42 H42           -5.6020     7.2905    -0.3357 H       
  43 H43           -6.5841     5.8086    -0.2486 H       
  44 H44           -2.4440     5.4245    -0.1452 H       
  45 H45           -3.2120     6.8117    -0.9538 H       
  46 H46           -3.0365     6.7995     0.8174 H       
@<TRIPOS>BOND
   1    1    2 1
   2    1    7 1
   3    1    6 am
   4    2    3 1
   5    2    9 2
   6    3    4 2
   7    3   28 1
   8    4    5 1
   9    4   29 1
  10    5    6 am
  11    5   12 1
  12    6   11 2
  13    7    8 2
  14    7   30 1
  15    8    9 1
  16    8   10 1
  17   10   13 1
  18   10   31 1
  19   10   32 1
  20   12   20 ar
  21   12   24 ar
  22   13   14 1
  23   14   15 ar
  24   14   16 ar
  25   15   19 ar
  26   15   33 1
  27   16   17 ar
  28   16   34 1
  29   17   18 ar
  30   17   35 1
  31   18   19 ar
  32   18   36 1
  33   19   37 1
  34   20   21 ar
  35   21   22 ar
  36   21   25 1
  37   22   23 ar
  38   22   38 1
  39   23   24 ar
  40   23   39 1
  41   24   40 1
  42   25   26 1
  43   25   27 1
  44   26   41 1
  45   26   42 1
  46   26   43 1
  47   27   44 1
  48   27   45 1
  49   27   46 1

#	End of record

