#	Name: ASD01912638
#	Creating user name:	WinNT
#	Creation time:	15. 06. 2019 20:00

#	Modifying user name:	WinNT
#	Modification time:	15. 06. 2019 20:00

#	Program:	/corina/corina34_cracker 3.40 0067  02.08.2006

@<TRIPOS>MOLECULE
ASD01912638
  38   41    0    0    0
SMALL
NO_CHARGES


@<TRIPOS>ATOM
   1 C1            -0.0165     1.3669     0.0096 C.2     
   2 N2             0.0021    -0.0041     0.0020 N.pl3   
   3 C3            -1.2023    -0.6921     0.0091 C.2     
   4 C4            -2.3629    -0.0499     0.0230 C.2     
   5 N5            -2.4359     1.3308     0.0306 N.am    
   6 C6            -1.3019     2.0668     0.0309 C.2     
   7 C7             1.3015     1.7836    -0.0008 C.2     
   8 C8             2.0550     0.6110    -0.0143 C.2     
   9 N9             1.2244    -0.4045    -0.0118 N.2     
  10 O10           -1.3488     3.2837     0.0376 O.2     
  11 C11           -3.6794     1.9643     0.0442 C.ar    
  12 C12            3.5595     0.5249    -0.0295 C.3     
  13 O13            4.1120     1.8428    -0.0282 O.3     
  14 C14            5.4672     1.9435    -0.0410 C.ar    
  15 C15            6.0711     3.1925    -0.0405 C.ar    
  16 C16            7.4489     3.2923    -0.0536 C.ar    
  17 C17            8.2259     2.1487    -0.0672 C.ar    
  18 C18            7.6265     0.9027    -0.0682 C.ar    
  19 C19            6.2492     0.7976    -0.0489 C.ar    
  20 N20           -3.7440     3.2828    -0.0487 N.ar    
  21 C21           -4.8980     3.9219    -0.0403 C.ar    
  22 C22           -6.0906     3.2296     0.0675 C.ar    
  23 C23           -6.0648     1.8433     0.1672 C.ar    
  24 C24           -4.8381     1.2034     0.1496 C.ar    
  25 F25           -7.2673     3.8933     0.0761 F       
  26 H26           -1.1950    -1.7720     0.0029 H       
  27 H27           -3.2785    -0.6227     0.0281 H       
  28 H28            1.6684     2.7994     0.0012 H       
  29 H29            3.9016    -0.0134     0.8543 H       
  30 H30            3.8840    -0.0042    -0.9255 H       
  31 H31            5.4646     4.0861    -0.0302 H       
  32 H32            7.9195     4.2644    -0.0536 H       
  33 H33            9.3029     2.2288    -0.0775 H       
  34 H34            8.2356     0.0110    -0.0796 H       
  35 H35            5.7814    -0.1759    -0.0497 H       
  36 H36           -4.9117     4.9990    -0.1181 H       
  37 H37           -6.9813     1.2785     0.2528 H       
  38 H38           -4.7812     0.1275     0.2247 H       
@<TRIPOS>BOND
   1    1    2 1
   2    1    7 2
   3    1    6 1
   4    2    3 1
   5    2    9 1
   6    3    4 2
   7    3   26 1
   8    4    5 1
   9    4   27 1
  10    5    6 am
  11    5   11 1
  12    6   10 2
  13    7    8 1
  14    7   28 1
  15    8    9 2
  16    8   12 1
  17   11   20 ar
  18   11   24 ar
  19   12   13 1
  20   12   29 1
  21   12   30 1
  22   13   14 1
  23   14   15 ar
  24   14   19 ar
  25   15   16 ar
  26   15   31 1
  27   16   17 ar
  28   16   32 1
  29   17   18 ar
  30   17   33 1
  31   18   19 ar
  32   18   34 1
  33   19   35 1
  34   20   21 ar
  35   21   22 ar
  36   21   36 1
  37   22   23 ar
  38   22   25 1
  39   23   24 ar
  40   23   37 1
  41   24   38 1

#	End of record

