#	Name: ASD02198598
#	Creating user name:	WinNT
#	Creation time:	15. 06. 2019 20:19

#	Modifying user name:	WinNT
#	Modification time:	15. 06. 2019 20:19

#	Program:	/corina/corina34_cracker 3.40 0067  02.08.2006

@<TRIPOS>MOLECULE
ASD02198598
  45   48    0    0    0
SMALL
NO_CHARGES


@<TRIPOS>ATOM
   1 C1             0.5072     1.8254    -0.5855 C.2     
   2 C2             0.6082     0.4982    -0.8486 C.2     
   3 N3             1.8152    -0.1096    -0.8941 N.pl3   
   4 N4             2.9217     0.5069    -0.6970 N.2     
   5 C5             2.9667     1.7949    -0.4324 C.2     
   6 C6             1.7039     2.5476    -0.3615 C.2     
   7 C7             1.8586    -1.4803    -1.1698 C.ar    
   8 C8             0.6800    -2.2133    -1.2369 C.ar    
   9 C9             0.7229    -3.5653    -1.5093 C.ar    
  10 C10            1.9445    -4.1937    -1.7165 C.ar    
  11 C11            3.1230    -3.4611    -1.6494 C.ar    
  12 C12            3.0800    -2.1081    -1.3823 C.ar    
  13 C13            4.2601     2.4727    -0.2101 C.2     
  14 N14            5.3328     1.9714     0.4722 N.pl3   
  15 N15            6.3467     2.9369     0.4421 N.2     
  16 C16            5.9169     3.9780    -0.2254 C.2     
  17 C17            4.6144     3.7269    -0.6568 C.2     
  18 C18            5.4052     0.7168     1.0908 C.ar    
  19 C19            4.3143     0.2242     1.7949 C.ar    
  20 O20            1.6891     3.7453    -0.1195 O.2     
  21 C21            6.5660    -0.0396     0.9965 C.ar    
  22 C22            6.6341    -1.2764     1.6072 C.ar    
  23 C23            5.5479    -1.7619     2.3120 C.ar    
  24 C24            4.3887    -1.0135     2.4034 C.ar    
  25 N25            1.9879    -5.5649    -1.9923 N.am    
  26 C26            0.9927    -6.1431    -2.6935 C.2     
  27 O27            0.1068    -5.4612    -3.1641 O.2     
  28 C28            0.9805    -7.6368    -2.8928 C.3     
  29 H29           -0.4545     2.3157    -0.5526 H       
  30 H30           -0.2869    -0.0803    -1.0236 H       
  31 H31           -0.2697    -1.7249    -1.0755 H       
  32 H32           -0.1931    -4.1350    -1.5611 H       
  33 H33            4.0725    -3.9499    -1.8102 H       
  34 H34            3.9962    -1.5386    -1.3302 H       
  35 H35            6.4793     4.8805    -0.4142 H       
  36 H36            3.9931     4.3975    -1.2318 H       
  37 H37            3.4088     0.8084     1.8669 H       
  38 H38            7.4145     0.3389     0.4459 H       
  39 H39            7.5364    -1.8653     1.5339 H       
  40 H40            5.6036    -2.7294     2.7887 H       
  41 H41            3.5421    -1.3953     2.9546 H       
  42 H42            2.7343    -6.0993    -1.6788 H       
  43 H43            0.4329    -8.1078    -2.0764 H       
  44 H44            0.4951    -7.8730    -3.8397 H       
  45 H45            2.0045    -8.0099    -2.9063 H       
@<TRIPOS>BOND
   1    1    2 2
   2    1    6 1
   3    1   29 1
   4    2    3 1
   5    2   30 1
   6    3    4 1
   7    3    7 1
   8    4    5 2
   9    5    6 1
  10    5   13 1
  11    6   20 2
  12    7    8 ar
  13    7   12 ar
  14    8    9 ar
  15    8   31 1
  16    9   10 ar
  17    9   32 1
  18   10   11 ar
  19   10   25 1
  20   11   12 ar
  21   11   33 1
  22   12   34 1
  23   13   14 1
  24   13   17 2
  25   14   15 1
  26   14   18 1
  27   15   16 2
  28   16   17 1
  29   16   35 1
  30   17   36 1
  31   18   21 ar
  32   18   19 ar
  33   19   24 ar
  34   19   37 1
  35   21   22 ar
  36   21   38 1
  37   22   23 ar
  38   22   39 1
  39   23   24 ar
  40   23   40 1
  41   24   41 1
  42   25   26 am
  43   25   42 1
  44   26   27 2
  45   26   28 1
  46   28   43 1
  47   28   44 1
  48   28   45 1

#	End of record

