#	Name: ASD00069285
#	Creating user name:	WinNT
#	Creation time:	15. 06. 2019 18:29

#	Modifying user name:	WinNT
#	Modification time:	15. 06. 2019 18:29

#	Program:	/corina/corina34_cracker 3.40 0067  02.08.2006

@<TRIPOS>MOLECULE
ASD00069285
  97  100    0    0    0
SMALL
NO_CHARGES


@<TRIPOS>ATOM
   1 C1            -1.3562    -1.1302    -1.2680 C.2     
   2 N2            -0.2443    -0.3808    -1.1309 N.am    
   3 O3            -1.3095    -2.3282    -1.0708 O.2     
   4 O4            -2.5198    -0.5504    -1.6181 O.3     
   5 C5             0.9322    -0.9593    -0.6561 C.ar    
   6 C6             2.1004    -0.2108    -0.6231 C.ar    
   7 C7             3.2694    -0.8038    -0.1453 C.ar    
   8 C8             3.2103    -2.1354     0.2818 C.ar    
   9 C9             2.0100    -2.8092     0.2162 C.ar    
  10 N10            0.9214    -2.2153    -0.2367 N.ar    
  11 C11            5.9580     1.5832    -0.2218 C.2     
  12 N12            4.6949     1.2555    -0.3797 N.2     
  13 C13            4.5418    -0.0430    -0.0917 C.2     
  14 C14            5.7637    -0.5449     0.2610 C.2     
  15 N15            6.6488     0.4733     0.1792 N.pl3   
  16 C16            8.0834     0.4012     0.4675 C.3     
  17 O17            8.4247    -0.9307     0.8567 O.3     
  18 C18            9.8092    -1.1104     1.1617 C.3     
  19 C19           10.0582    -2.5655     1.5635 C.3     
  20 Si20          11.8631    -2.7998     1.9612 Si      
  21 C21           12.3397    -1.6765     3.3690 C.3     
  22 C22           12.1664    -4.5716     2.4504 C.3     
  23 C23           12.8883    -2.3854     0.4618 C.3     
  24 C24            6.5345     2.9216    -0.4455 C.2     
  25 N25            5.7662     3.9120    -0.9407 N.am    
  26 O26            7.7033     3.1319    -0.1832 O.2     
  27 C27            6.3421     5.1434    -1.2771 C.ar    
  28 C28            5.5365     6.2702    -1.4445 C.ar    
  29 C29            6.1134     7.4866    -1.7771 C.ar    
  30 C30            7.4830     7.5800    -1.9418 C.ar    
  31 C31            8.2811     6.4634    -1.7764 C.ar    
  32 C32            7.7152     5.2477    -1.4391 C.ar    
  33 N33            4.1509     6.1732    -1.2777 N.3     
  34 C34            3.7008     6.9778    -0.1347 C.3     
  35 C35            2.2093     6.7341     0.1065 C.3     
  36 C36            1.4246     7.1167    -1.1515 C.3     
  37 C37            1.9457     6.2993    -2.3368 C.3     
  38 C38            3.4448     6.5556    -2.5072 C.3     
  39 C39           -0.0607     6.8182    -0.9382 C.3     
  40 N40           -0.5967     7.7141     0.0952 N.3     
  41 C41           -0.5586     9.1135    -0.3500 C.3     
  42 C42           -1.9592     7.3205     0.4782 C.3     
  43 C43           -3.6522    -1.4301    -1.8464 C.3     
  44 C44           -4.0074    -2.1522    -0.5451 C.3     
  45 C45           -4.8522    -0.6053    -2.3159 C.3     
  46 C46           -3.2901    -2.4598    -2.9186 C.3     
  47 H47           -0.2626     0.5609    -1.3626 H       
  48 H48            2.1046     0.8146    -0.9622 H       
  49 H49            4.0944    -2.6288     0.6576 H       
  50 H50            1.9582    -3.8369     0.5439 H       
  51 H51            5.9806    -1.5625     0.5505 H       
  52 H52            8.6474     0.6750    -0.4242 H       
  53 H53            8.3264     1.0898     1.2768 H       
  54 H54           10.4089    -0.8679     0.2844 H       
  55 H55           10.0880    -0.4532     1.9854 H       
  56 H56            9.4584    -2.8080     2.4408 H       
  57 H57            9.7794    -3.2227     0.7398 H       
  58 H58           11.7399    -1.9190     4.2463 H       
  59 H59           13.3957    -1.8136     3.6017 H       
  60 H60           12.1623    -0.6399     3.0828 H       
  61 H61           11.8875    -5.2288     1.6267 H       
  62 H62           13.2224    -4.7087     2.6831 H       
  63 H63           11.5666    -4.8141     3.3277 H       
  64 H64           12.7108    -1.3487     0.1755 H       
  65 H65           13.9443    -2.5224     0.6945 H       
  66 H66           12.6094    -3.0426    -0.3619 H       
  67 H67            4.8143     3.7719    -1.0641 H       
  68 H68            5.4929     8.3608    -1.9078 H       
  69 H69            7.9307     8.5281    -2.2008 H       
  70 H70            9.3503     6.5417    -1.9069 H       
  71 H71            8.3422     4.3785    -1.3060 H       
  72 H72            4.2637     6.6929     0.7541 H       
  73 H73            3.8666     8.0341    -0.3464 H       
  74 H74            2.0445     5.6805     0.3318 H       
  75 H75            1.8720     7.3433     0.9450 H       
  76 H76            1.5580     8.1792    -1.3550 H       
  77 H77            1.7768     5.2388    -2.1499 H       
  78 H78            1.4201     6.5978    -3.2438 H       
  79 H79            3.6119     7.6138    -2.7078 H       
  80 H80            3.8219     5.9640    -3.3415 H       
  81 H81           -0.6008     6.9760    -1.8717 H       
  82 H82           -0.1811     5.7828    -0.6194 H       
  83 H83           -1.0748     9.2050    -1.3056 H       
  84 H84           -1.0506     9.7440     0.3906 H       
  85 H85            0.4781     9.4300    -0.4653 H       
  86 H86           -1.9347     6.3375     0.9484 H       
  87 H87           -2.3641     8.0492     1.1804 H       
  88 H88           -2.5897     7.2827    -0.4101 H       
  89 H89           -4.3371    -1.4242     0.1961 H       
  90 H90           -4.8083    -2.8673    -0.7333 H       
  91 H91           -3.1299    -2.6797    -0.1711 H       
  92 H92           -4.6304    -0.1609    -3.2861 H       
  93 H93           -5.7255    -1.2518    -2.4035 H       
  94 H94           -5.0558     0.1843    -1.5926 H       
  95 H95           -2.5144    -3.1239    -2.5373 H       
  96 H96           -4.1742    -3.0433    -3.1752 H       
  97 H97           -2.9236    -1.9456    -3.8071 H       
@<TRIPOS>BOND
   1    1    2 am
   2    1    3 2
   3    1    4 1
   4    2    5 1
   5    2   47 1
   6    4   43 1
   7    5    6 ar
   8    5   10 ar
   9    6    7 ar
  10    6   48 1
  11    7    8 ar
  12    7   13 1
  13    8    9 ar
  14    8   49 1
  15    9   10 ar
  16    9   50 1
  17   11   12 2
  18   11   15 1
  19   11   24 1
  20   12   13 1
  21   13   14 2
  22   14   15 1
  23   14   51 1
  24   15   16 1
  25   16   17 1
  26   16   52 1
  27   16   53 1
  28   17   18 1
  29   18   19 1
  30   18   54 1
  31   18   55 1
  32   19   20 1
  33   19   56 1
  34   19   57 1
  35   20   21 1
  36   20   22 1
  37   20   23 1
  38   21   58 1
  39   21   59 1
  40   21   60 1
  41   22   61 1
  42   22   62 1
  43   22   63 1
  44   23   64 1
  45   23   65 1
  46   23   66 1
  47   24   25 am
  48   24   26 2
  49   25   27 1
  50   25   67 1
  51   27   28 ar
  52   27   32 ar
  53   28   29 ar
  54   28   33 1
  55   29   30 ar
  56   29   68 1
  57   30   31 ar
  58   30   69 1
  59   31   32 ar
  60   31   70 1
  61   32   71 1
  62   33   34 1
  63   33   38 1
  64   34   35 1
  65   34   72 1
  66   34   73 1
  67   35   36 1
  68   35   74 1
  69   35   75 1
  70   36   37 1
  71   36   39 1
  72   36   76 1
  73   37   38 1
  74   37   77 1
  75   37   78 1
  76   38   79 1
  77   38   80 1
  78   39   40 1
  79   39   81 1
  80   39   82 1
  81   40   41 1
  82   40   42 1
  83   41   83 1
  84   41   84 1
  85   41   85 1
  86   42   86 1
  87   42   87 1
  88   42   88 1
  89   43   44 1
  90   43   46 1
  91   43   45 1
  92   44   89 1
  93   44   90 1
  94   44   91 1
  95   45   92 1
  96   45   93 1
  97   45   94 1
  98   46   95 1
  99   46   96 1
 100   46   97 1

#	End of record

