#	Name: ASD02039418
#	Creating user name:	WinNT
#	Creation time:	15. 06. 2019 20:18

#	Modifying user name:	WinNT
#	Modification time:	15. 06. 2019 20:18

#	Program:	/corina/corina34_cracker 3.40 0067  02.08.2006

@<TRIPOS>MOLECULE
ASD02039418
  53   56    0    0    0
SMALL
NO_CHARGES


@<TRIPOS>ATOM
   1 C1            -0.1210     1.5200    -0.1799 C.ar    
   2 C2            -0.1102     0.1412    -0.0702 C.ar    
   3 C3             1.1697     2.2917    -0.0826 C.3     
   4 N4             1.8259     2.3130    -1.3922 N.am    
   5 C5             1.4076     3.2850    -2.4054 C.3     
   6 C6             2.8144     1.4384    -1.6650 C.2     
   7 C7             3.1765     0.4051    -0.6793 C.2     
   8 C8             4.1878    -0.5029    -0.7974 C.2     
   9 N9             2.5684     0.1869     0.5147 N.2     
  10 C10            3.1599    -0.8064     1.1130 C.2     
  11 N11            4.1704    -1.2586     0.3257 N.pl3   
  12 O12            3.4074     1.5021    -2.7249 O.2     
  13 C13           -1.2903    -0.5746    -0.1589 C.ar    
  14 C14           -2.5025     1.4764    -0.4797 C.ar    
  15 C15           -1.3102     2.1905    -0.3840 C.ar    
  16 C16           -3.7834     2.1916    -0.6990 C.ar    
  17 C17           -4.1303     3.2853     0.1106 C.ar    
  18 C18           -4.6444     1.7887    -1.7088 C.ar    
  19 C19           -5.8453     2.5005    -1.8749 C.ar    
  20 C20           -6.1262     3.5903    -1.0132 C.ar    
  21 N21           -5.2535     3.9348    -0.0600 N.ar    
  22 C22            5.0779    -2.3661     0.6359 C.3     
  23 C23           -2.4883     0.0858    -0.3575 C.ar    
  24 C24            2.5642     4.2414    -2.7027 C.3     
  25 C25            1.0128     2.5482    -3.6868 C.3     
  26 C26           -6.7670     2.1514    -2.8765 C.ar    
  27 C27           -7.9196     2.8637    -3.0082 C.ar    
  28 C28           -8.1975     3.9357    -2.1624 C.ar    
  29 C29           -7.3277     4.3005    -1.1813 C.ar    
  30 F30           -3.6409    -0.6135    -0.4445 F       
  31 H31            0.8236    -0.3787     0.0849 H       
  32 H32            0.9594     3.3129     0.2351 H       
  33 H33            1.8254     1.8128     0.6446 H       
  34 H34            0.5537     3.8518    -2.0344 H       
  35 H35            4.8712    -0.6004    -1.6279 H       
  36 H36            2.8924    -1.2047     2.0806 H       
  37 H37           -1.2758    -1.6511    -0.0732 H       
  38 H38           -1.3152     3.2664    -0.4774 H       
  39 H39           -3.4543     3.5975     0.8929 H       
  40 H40           -4.3996     0.9536    -2.3484 H       
  41 H41            4.6556    -3.2980     0.2602 H       
  42 H42            6.0436    -2.1879     0.1627 H       
  43 H43            5.2098    -2.4362     1.7156 H       
  44 H44            3.3854     3.6880    -3.1582 H       
  45 H45            2.2259     5.0188    -3.3878 H       
  46 H46            2.9054     4.6989    -1.7740 H       
  47 H47            0.2547     1.7996    -3.4566 H       
  48 H48            0.6123     3.2613    -4.4073 H       
  49 H49            1.8902     2.0586    -4.1094 H       
  50 H50           -6.5620     1.3228    -3.5382 H       
  51 H51           -8.6275     2.5947    -3.7782 H       
  52 H52           -9.1186     4.4857    -2.2870 H       
  53 H53           -7.5591     5.1341    -0.5348 H       
@<TRIPOS>BOND
   1    1    2 ar
   2    1    3 1
   3    1   15 ar
   4    2   13 ar
   5    2   31 1
   6    3    4 1
   7    3   32 1
   8    3   33 1
   9    4    5 1
  10    4    6 am
  11    5   24 1
  12    5   25 1
  13    5   34 1
  14    6    7 1
  15    6   12 2
  16    7    8 2
  17    7    9 1
  18    8   11 1
  19    8   35 1
  20    9   10 2
  21   10   11 1
  22   10   36 1
  23   11   22 1
  24   13   23 ar
  25   13   37 1
  26   14   15 ar
  27   14   16 1
  28   14   23 ar
  29   15   38 1
  30   16   17 ar
  31   16   18 ar
  32   17   21 ar
  33   17   39 1
  34   18   19 ar
  35   18   40 1
  36   19   20 ar
  37   19   26 ar
  38   20   21 ar
  39   20   29 ar
  40   22   41 1
  41   22   42 1
  42   22   43 1
  43   23   30 1
  44   24   44 1
  45   24   45 1
  46   24   46 1
  47   25   47 1
  48   25   48 1
  49   25   49 1
  50   26   27 ar
  51   26   50 1
  52   27   28 ar
  53   27   51 1
  54   28   29 ar
  55   28   52 1
  56   29   53 1

#	End of record

