#	Name: ASD08170459
#	Creating user name:	WinNT
#	Creation time:	15. 06. 2019 21:17

#	Modifying user name:	WinNT
#	Modification time:	15. 06. 2019 21:17

#	Program:	/corina/corina34_cracker 3.40 0067  02.08.2006

@<TRIPOS>MOLECULE
ASD08170459
  90   91    0    0    0
SMALL
NO_CHARGES


@<TRIPOS>ATOM
   1 N1            -0.0150     1.2583     0.0090 N.2     
   2 N2             0.0021    -0.0041     0.0020 N.2     
   3 C3             1.1605    -0.5914    -0.0122 C.2     
   4 S4             2.3840     0.6077    -0.0174 S.3     
   5 C5             1.1353     1.8535     0.0012 C.2     
   6 C6             1.3656     3.3428     0.0065 C.3     
   7 C7             1.4576     3.8394     1.4507 C.3     
   8 C8             1.6914     5.3515     1.4562 C.3     
   9 C9             1.7835     5.8481     2.9004 C.3     
  10 C10            2.0137     7.3374     2.9058 C.2     
  11 S11            3.5804     8.1480     2.8945 S.3     
  12 C12            2.7761     9.6605     2.9091 C.2     
  13 N13            1.4944     9.4504     2.9203 N.2     
  14 N14            1.0968     8.2521     2.9138 N.2     
  15 N15            3.3933    10.9068     2.9093 N.am    
  16 C16            2.6464    12.0286     2.9214 C.2     
  17 O17            1.4361    11.9513     2.9322 O.2     
  18 C18            3.3152    13.3791     2.9217 C.3     
  19 N19            1.3725    -1.9658    -0.0212 N.am    
  20 C20            0.3217    -2.8098    -0.0157 C.2     
  21 C21            0.5514    -4.2992    -0.0255 C.3     
  22 O22           -0.8087    -2.3706    -0.0030 O.2     
  23 N23            2.2942    14.4296     2.9360 N.am    
  24 C24            1.3303    -4.6868    -1.2840 C.3     
  25 C25            4.1993    13.5102     4.1635 C.3     
  26 O26            3.6818    15.8836     1.9920 O.2     
  27 C27            2.5786    15.6525     2.4458 C.2     
  28 N28           -0.7392    -4.9924    -0.0170 N.am    
  29 C29           -0.8277    -6.2457     0.4707 C.2     
  30 O30            0.1629    -6.8006     0.9034 O.2     
  31 O31           -2.0138    -6.8828     0.4785 O.3     
  32 C32            4.8783    14.8813     4.1637 C.3     
  33 C33            3.3382    13.3673     5.4200 C.3     
  34 O34            1.6403    16.6179     2.4590 O.3     
  35 C35            2.0167    17.9104     1.9149 C.3     
  36 C36            2.4193    17.7485     0.4477 C.3     
  37 C37            0.8301    18.8711     2.0150 C.3     
  38 C38            3.1973    18.4737     2.7085 C.3     
  39 C39           -2.0347    -8.2304     1.0186 C.3     
  40 C40           -1.5735    -8.2025     2.4771 C.3     
  41 C41           -3.4576    -8.7877     0.9442 C.3     
  42 C42           -1.0949    -9.1211     0.2035 C.3     
  43 C43            1.5636    -6.1989    -1.2939 C.3     
  44 C44            0.5282    -4.2864    -2.5238 C.3     
  45 H45            2.2955     3.5685    -0.5153 H       
  46 H46            0.5365     3.8404    -0.4967 H       
  47 H47            0.5277     3.6137     1.9726 H       
  48 H48            2.2866     3.3418     1.9539 H       
  49 H49            2.6214     5.5772     0.9344 H       
  50 H50            0.8624     5.8491     0.9530 H       
  51 H51            0.8535     5.6223     3.4222 H       
  52 H52            2.6125     5.3505     3.4036 H       
  53 H53            4.3613    10.9687     2.9007 H       
  54 H54            3.9287    13.4809     2.0265 H       
  55 H55            2.2766    -2.3171    -0.0314 H       
  56 H56            1.1229    -4.5844     0.8578 H       
  57 H57            1.4135    14.2451     3.2983 H       
  58 H58            2.2906    -4.1711    -1.2903 H       
  59 H59            4.9589    12.7286     4.1528 H       
  60 H60           -1.5299    -4.5494    -0.3625 H       
  61 H61            4.1186    15.6629     4.1744 H       
  62 H62            5.5081    14.9747     5.0484 H       
  63 H63            5.4918    14.9831     3.2685 H       
  64 H64            2.8544    12.3905     5.4198 H       
  65 H65            3.9680    13.4607     6.3047 H       
  66 H66            2.5785    14.1490     5.4307 H       
  67 H67            1.5782    17.3472    -0.1177 H       
  68 H68            2.7018    18.7187     0.0392 H       
  69 H69            3.2646    17.0641     0.3764 H       
  70 H70            0.5432    18.9865     3.0603 H       
  71 H71            1.1126    19.8414     1.6066 H       
  72 H72           -0.0110    18.4698     1.4497 H       
  73 H73            4.0426    17.7893     2.6371 H       
  74 H74            3.4798    19.4440     2.3000 H       
  75 H75            2.9104    18.5891     3.7537 H       
  76 H76           -2.2430    -7.5679     3.0578 H       
  77 H77           -1.5891    -9.2142     2.8826 H       
  78 H78           -0.5597    -7.8055     2.5301 H       
  79 H79           -3.7862    -8.8075    -0.0949 H       
  80 H80           -3.4733    -9.7993     1.3496 H       
  81 H81           -4.1271    -8.1531     1.5249 H       
  82 H82           -0.0812    -8.7241     0.2564 H       
  83 H83           -1.1106   -10.1328     0.6089 H       
  84 H84           -1.4235    -9.1410    -0.8357 H       
  85 H85            0.6033    -6.7147    -1.2876 H       
  86 H86            2.1185    -6.4751    -2.1905 H       
  87 H87            2.1350    -6.4842    -0.4106 H       
  88 H88            0.3621    -3.2092    -2.5168 H       
  89 H89            1.0831    -4.5626    -3.4204 H       
  90 H90           -0.4320    -4.8022    -2.5175 H       
@<TRIPOS>BOND
   1    1    2 1
   2    1    5 2
   3    2    3 2
   4    3    4 1
   5    3   19 1
   6    4    5 1
   7    5    6 1
   8    6    7 1
   9    6   45 1
  10    6   46 1
  11    7    8 1
  12    7   47 1
  13    7   48 1
  14    8    9 1
  15    8   49 1
  16    8   50 1
  17    9   10 1
  18    9   51 1
  19    9   52 1
  20   10   11 1
  21   10   14 2
  22   11   12 1
  23   12   13 2
  24   12   15 1
  25   13   14 1
  26   15   16 am
  27   15   53 1
  28   16   17 2
  29   16   18 1
  30   18   23 1
  31   18   25 1
  32   18   54 1
  33   19   20 am
  34   19   55 1
  35   20   22 2
  36   20   21 1
  37   21   28 1
  38   21   24 1
  39   21   56 1
  40   23   27 am
  41   23   57 1
  42   24   43 1
  43   24   44 1
  44   24   58 1
  45   25   32 1
  46   25   33 1
  47   25   59 1
  48   26   27 2
  49   27   34 1
  50   28   29 am
  51   28   60 1
  52   29   30 2
  53   29   31 1
  54   31   39 1
  55   32   61 1
  56   32   62 1
  57   32   63 1
  58   33   64 1
  59   33   65 1
  60   33   66 1
  61   34   35 1
  62   35   36 1
  63   35   37 1
  64   35   38 1
  65   36   67 1
  66   36   68 1
  67   36   69 1
  68   37   70 1
  69   37   71 1
  70   37   72 1
  71   38   73 1
  72   38   74 1
  73   38   75 1
  74   39   40 1
  75   39   41 1
  76   39   42 1
  77   40   76 1
  78   40   77 1
  79   40   78 1
  80   41   79 1
  81   41   80 1
  82   41   81 1
  83   42   82 1
  84   42   83 1
  85   42   84 1
  86   43   85 1
  87   43   86 1
  88   43   87 1
  89   44   88 1
  90   44   89 1
  91   44   90 1

#	End of record

