#	Name: ASD08170160
#	Creating user name:	WinNT
#	Creation time:	15. 06. 2019 21:17

#	Modifying user name:	WinNT
#	Modification time:	15. 06. 2019 21:17

#	Program:	/corina/corina34_cracker 3.40 0067  02.08.2006

@<TRIPOS>MOLECULE
ASD08170160
  84   85    0    0    0
SMALL
NO_CHARGES


@<TRIPOS>ATOM
   1 Cl1            0.0000     0.0000     0.0000 Cl      
   2 H2             0.0000     1.3700     0.0000 H       
   3 Cl3            5.0000     6.3700     5.0000 Cl      
   4 H4             5.0000     7.7400     5.0000 H       
   5 C5            12.2379    24.4049    14.2845 C.3     
   6 C6            13.6525    26.4643    14.2821 C.3     
   7 C7            15.0879    26.9939    14.2712 C.3     
   8 C8            15.0675    28.5007    14.2795 C.2     
   9 C9            12.2583    22.8981    14.2762 C.2     
  10 S10           15.0398    29.5487    12.8608 S.3     
  11 C11           15.0303    30.9150    13.8943 C.2     
  12 N12           15.0474    30.5049    15.1266 N.2     
  13 N13           15.0614    29.2589    15.3296 N.2     
  14 S14           12.2588    21.8654    12.8461 S.3     
  15 N15           12.2843    22.1287    15.3178 N.2     
  16 N16           12.2985    20.8850    15.1012 N.2     
  17 C17           12.2879    20.4881    13.8644 C.2     
  18 N18           12.3001    19.1646    13.4377 N.am    
  19 C19           12.3256    18.1652    14.3417 C.2     
  20 O20           12.3380    18.4202    15.5273 O.2     
  21 N21           15.0084    32.2430    13.4820 N.am    
  22 C22           15.0030    33.2326    14.3970 C.2     
  23 C23           14.9793    34.6717    13.9503 C.3     
  24 O24           15.0173    32.9649    15.5799 O.2     
  25 C25           12.3389    16.7310    13.8792 C.3     
  26 C26           13.6207    16.4545    13.1365 C.ar    
  27 C27           13.6733    24.9345    14.2736 C.3     
  28 C28           13.6561    16.5538    11.7582 C.ar    
  29 C29           13.6812    34.9557    13.2395 C.ar    
  30 C30           13.6149    34.8711    11.8614 C.ar    
  31 C31           14.8318    16.3001    11.0769 C.ar    
  32 C32           15.9723    15.9476    11.7740 C.ar    
  33 C33           15.9371    15.8492    13.1524 C.ar    
  34 C34           14.7625    16.1071    13.8340 C.ar    
  35 C35           12.4242    35.1317    11.2093 C.ar    
  36 C36           11.2996    35.4764    11.9355 C.ar    
  37 C37           11.3656    35.5601    13.3138 C.ar    
  38 C38           12.5553    35.2953    13.9661 C.ar    
  39 O39           12.2482    15.8645    15.0119 O.3     
  40 C40           11.5962    14.6218    14.7423 C.3     
  41 C41           11.5563    13.7793    16.0188 C.3     
  42 O42           10.7401    14.4307    16.9942 O.3     
  43 C43           10.6357    13.7228    18.2311 C.3     
  44 O44           15.0953    35.5261    15.0899 O.3     
  45 C45           15.7410    36.7718    14.8191 C.3     
  46 C46           15.8094    37.6006    16.1033 C.3     
  47 O47           16.6473    36.9391    17.0532 O.3     
  48 C48           16.7793    37.6338    18.2949 C.3     
  49 H49           11.7107    24.7660    13.4014 H       
  50 H50           11.7277    24.7564    15.1813 H       
  51 H51           13.1423    26.8159    15.1789 H       
  52 H52           13.1253    26.8254    13.3990 H       
  53 H53           15.6151    26.6328    15.1543 H       
  54 H54           15.5981    26.6424    13.3744 H       
  55 H55           12.2903    18.9606    12.4894 H       
  56 H56           14.9970    32.4571    12.5360 H       
  57 H57           15.8127    34.8554    13.2722 H       
  58 H58           11.4905    16.5546    13.2180 H       
  59 H59           14.2005    24.5734    15.1567 H       
  60 H60           14.1835    24.5830    13.3768 H       
  61 H61           12.7650    16.8292    11.2136 H       
  62 H62           14.4936    34.6018    11.2940 H       
  63 H63           14.8593    16.3770    10.0000 H       
  64 H64           16.8907    15.7487    11.2417 H       
  65 H65           16.8281    15.5734    13.6970 H       
  66 H66           14.7350    16.0302    14.9109 H       
  67 H67           12.3726    35.0663    10.1326 H       
  68 H68           10.3695    35.6807    11.4261 H       
  69 H69           10.4871    35.8297    13.8811 H       
  70 H70           12.6069    35.3607    15.0429 H       
  71 H71           10.5787    14.8120    14.4006 H       
  72 H72           12.1446    14.0840    13.9689 H       
  73 H73           11.1396    12.7977    15.7934 H       
  74 H74           12.5673    13.6638    16.4096 H       
  75 H75           10.1998    12.7400    18.0516 H       
  76 H76           11.6275    13.6062    18.6678 H       
  77 H77           10.0000    14.2823    18.9174 H       
  78 H78           16.7506    36.5856    14.4527 H       
  79 H79           15.1753    37.3177    14.0640 H       
  80 H80           16.2209    38.5848    15.8791 H       
  81 H81           14.8074    37.7116    16.5179 H       
  82 H82           15.7975    37.7454    18.7550 H       
  83 H83           17.4303    37.0672    18.9608 H       
  84 H84           17.2110    38.6186    18.1162 H       
@<TRIPOS>BOND
   1    1    2 1
   2    3    4 1
   3    5    9 1
   4    5   27 1
   5    5   49 1
   6    5   50 1
   7    6    7 1
   8    6   27 1
   9    6   51 1
  10    6   52 1
  11    7    8 1
  12    7   53 1
  13    7   54 1
  14    8   10 1
  15    8   13 2
  16    9   14 1
  17    9   15 2
  18   10   11 1
  19   11   12 2
  20   11   21 1
  21   12   13 1
  22   14   17 1
  23   15   16 1
  24   16   17 2
  25   17   18 1
  26   18   19 am
  27   18   55 1
  28   19   20 2
  29   19   25 1
  30   21   22 am
  31   21   56 1
  32   22   23 1
  33   22   24 2
  34   23   29 1
  35   23   44 1
  36   23   57 1
  37   25   26 1
  38   25   39 1
  39   25   58 1
  40   26   28 ar
  41   26   34 ar
  42   27   59 1
  43   27   60 1
  44   28   31 ar
  45   28   61 1
  46   29   30 ar
  47   29   38 ar
  48   30   35 ar
  49   30   62 1
  50   31   32 ar
  51   31   63 1
  52   32   33 ar
  53   32   64 1
  54   33   34 ar
  55   33   65 1
  56   34   66 1
  57   35   36 ar
  58   35   67 1
  59   36   37 ar
  60   36   68 1
  61   37   38 ar
  62   37   69 1
  63   38   70 1
  64   39   40 1
  65   40   41 1
  66   40   71 1
  67   40   72 1
  68   41   42 1
  69   41   73 1
  70   41   74 1
  71   42   43 1
  72   43   75 1
  73   43   76 1
  74   43   77 1
  75   44   45 1
  76   45   46 1
  77   45   78 1
  78   45   79 1
  79   46   47 1
  80   46   80 1
  81   46   81 1
  82   47   48 1
  83   48   82 1
  84   48   83 1
  85   48   84 1

#	End of record

