#	Name: ASD05430322
#	Creating user name:	WinNT
#	Creation time:	15. 06. 2019 21:00

#	Modifying user name:	WinNT
#	Modification time:	15. 06. 2019 21:00

#	Program:	/corina/corina34_cracker 3.40 0067  02.08.2006

@<TRIPOS>MOLECULE
ASD05430322
  54   58    0    0    0
SMALL
NO_CHARGES


@<TRIPOS>ATOM
   1 N1            -0.0683     2.0190     0.0691 N.pl3   
   2 C2             1.4104     1.8766    -0.0013 C.3     
   3 O3             1.8173     3.0390    -0.7264 O.3     
   4 N4             0.7255     3.9427    -0.6547 N.2     
   5 C5            -0.3290     3.3496    -0.1733 C.2     
   6 C6             2.0543     1.7910     1.3585 C.ar    
   7 C7             3.4060     2.0424     1.4995 C.ar    
   8 C8             1.2916     1.4665     2.4645 C.ar    
   9 C9             1.8821     1.3880     3.7145 C.ar    
  10 C10            3.2368     1.6341     3.8561 C.ar    
  11 C11            3.9987     1.9640     2.7485 C.ar    
  12 C12           -1.6174     4.0078     0.0762 C.2     
  13 C13           -1.7680     5.3172    -0.1960 C.2     
  14 C14           -3.0599     5.9772     0.0541 C.ar    
  15 C15           -4.1316     5.2453     0.5745 C.ar    
  16 C16           -3.2164     7.3391    -0.2227 C.ar    
  17 C17           -4.4309     7.9537     0.0144 C.ar    
  18 C18           -5.4973     7.2160     0.5287 C.ar    
  19 C19           -5.3402     5.8650     0.8085 C.ar    
  20 N20           -6.7283     7.8411     0.7690 N.pl3   
  21 C21           -6.9269     8.9964     1.4553 C.2     
  22 N22           -8.2055     9.2586     1.4666 N.2     
  23 C23           -8.8620     8.2979     0.7995 C.2     
  24 C24           -7.9590     7.4054     0.3506 C.2     
  25 O25           -4.5866     9.2775    -0.2532 O.3     
  26 C26           -3.4526     9.9710    -0.7778 C.3     
  27 C27          -10.3521     8.2318     0.5843 C.3     
  28 C28           -0.5783     0.6672     0.3191 C.3     
  29 C29            0.4448    -0.3117    -0.2966 C.3     
  30 C30            1.5862     0.5896    -0.8330 C.3     
  31 F31            1.1361     1.0717     4.7956 F       
  32 F32            5.3211     2.2045     2.8852 F       
  33 H33            4.0002     2.2998     0.6352 H       
  34 H34            0.2346     1.2746     2.3537 H       
  35 H35            3.6982     1.5734     4.8307 H       
  36 H36           -2.4443     3.4413     0.4782 H       
  37 H37           -0.9410     5.8838    -0.5980 H       
  38 H38           -4.0124     4.1943     0.7928 H       
  39 H39           -2.3898     7.9091    -0.6206 H       
  40 H40           -6.1684     5.2975     1.2066 H       
  41 H41           -6.1560     9.5972     1.9147 H       
  42 H42           -8.1653     6.5139    -0.2229 H       
  43 H43           -3.7118    11.0163    -0.9459 H       
  44 H44           -2.6289     9.9108    -0.0665 H       
  45 H45           -3.1522     9.5149    -1.7211 H       
  46 H46          -10.6093     8.7507    -0.3391 H       
  47 H47          -10.6632     7.1895     0.5141 H       
  48 H48          -10.8617     8.7074     1.4224 H       
  49 H49           -0.6632     0.4927     1.3917 H       
  50 H50           -1.5501     0.5406    -0.1581 H       
  51 H51            0.8251    -0.9917     0.4657 H       
  52 H52           -0.0108    -0.8725    -1.1128 H       
  53 H53            1.4522     0.7934    -1.8953 H       
  54 H54            2.5592     0.1361    -0.6441 H       
@<TRIPOS>BOND
   1    1   28 1
   2    1    2 1
   3    1    5 1
   4    2    3 1
   5    2    6 1
   6    2   30 1
   7    3    4 1
   8    4    5 2
   9    5   12 1
  10    6    7 ar
  11    6    8 ar
  12    7   11 ar
  13    7   33 1
  14    8    9 ar
  15    8   34 1
  16    9   10 ar
  17    9   31 1
  18   10   11 ar
  19   10   35 1
  20   11   32 1
  21   12   13 2
  22   12   36 1
  23   13   14 1
  24   13   37 1
  25   14   15 ar
  26   14   16 ar
  27   15   19 ar
  28   15   38 1
  29   16   17 ar
  30   16   39 1
  31   17   18 ar
  32   17   25 1
  33   18   19 ar
  34   18   20 1
  35   19   40 1
  36   20   21 1
  37   20   24 1
  38   21   22 2
  39   21   41 1
  40   22   23 1
  41   23   24 2
  42   23   27 1
  43   24   42 1
  44   25   26 1
  45   26   43 1
  46   26   44 1
  47   26   45 1
  48   27   46 1
  49   27   47 1
  50   27   48 1
  51   28   29 1
  52   28   49 1
  53   28   50 1
  54   29   30 1
  55   29   51 1
  56   29   52 1
  57   30   53 1
  58   30   54 1

#	End of record

