#	Name: ASD01148571
#	Creating user name:	WinNT
#	Creation time:	15. 06. 2019 19:02

#	Modifying user name:	WinNT
#	Modification time:	15. 06. 2019 19:02

#	Program:	/corina/corina34_cracker 3.40 0067  02.08.2006

@<TRIPOS>MOLECULE
ASD01148571
  58   62    0    0    0
SMALL
NO_CHARGES


@<TRIPOS>ATOM
   1 C1            -0.0169     1.4375    -0.0252 C.ar    
   2 C2             0.0192     0.0536    -0.0359 C.ar    
   3 C3            -1.1616    -0.6687    -0.0207 C.ar    
   4 C4            -2.3763    -0.0072     0.0050 C.ar    
   5 C5            -2.4112     1.3746     0.0152 C.ar    
   6 C6            -1.2326     2.0969     0.0064 C.ar    
   7 C7            -3.7350     2.0942     0.0423 C.3     
   8 O8            -4.7252     1.3265     0.7562 O.3     
   9 C9            -3.6502     3.3776     0.9025 C.3     
  10 C10           -4.1246     2.8962     2.2606 C.2     
  11 N11           -4.7069     1.7532     2.1040 N.2     
  12 C12           -3.9507     3.6086     3.5380 C.ar    
  13 C13           -4.4589     3.0283     4.7786 C.ar    
  14 C14           -3.2979     4.8330     3.5717 C.ar    
  15 C15           -3.1206     5.5238     4.7574 C.ar    
  16 C16           -3.5875     5.0220     5.9643 C.ar    
  17 C17           -4.2777     3.7348     5.9911 C.ar    
  18 C18           -3.3834     5.7806     7.2120 C.2     
  19 O19           -3.8852     5.3916     8.2491 O.2     
  20 N20           -2.6407     6.9052     7.2030 N.am    
  21 C21           -4.7650     3.1900     7.1858 C.ar    
  22 C22           -5.1183     1.7926     4.7928 C.ar    
  23 C23           -4.2095     2.4154    -1.3764 C.3     
  24 F24           -4.3426     1.2278    -2.1037 F       
  25 F25           -5.4459     3.0676    -1.3181 F       
  26 F26           -3.2741     3.2446    -2.0045 F       
  27 Cl27          -1.1182    -2.4041    -0.0347 Cl      
  28 Cl28           1.5442    -0.7753    -0.0688 Cl      
  29 Cl29           1.4629     2.3449    -0.0442 Cl      
  30 N30           -2.4467     7.6261     8.3886 N.pl3   
  31 C31           -1.5240     7.1229     9.4091 C.3     
  32 C32           -3.1331     8.8244     8.5975 C.ar    
  33 C33           -2.9420     9.5404     9.7725 C.ar    
  34 C34           -3.6219    10.7252     9.9757 C.ar    
  35 C35           -4.4922    11.1989     9.0111 C.ar    
  36 C36           -4.6852    10.4885     7.8405 C.ar    
  37 C37           -4.0041     9.3059     7.6284 C.ar    
  38 C38           -5.5763     1.2874     5.9732 C.ar    
  39 C39           -5.4029     1.9853     7.1655 C.ar    
  40 H40           -3.2977    -0.5705     0.0168 H       
  41 H41           -1.2610     3.1765     0.0148 H       
  42 H42           -2.6236     3.7395     0.9573 H       
  43 H43           -4.3135     4.1495     0.5123 H       
  44 H44           -2.9197     5.2556     2.6526 H       
  45 H45           -2.6074     6.4740     4.7436 H       
  46 H46           -2.2405     7.2155     6.3757 H       
  47 H47           -4.6359     3.7207     8.1175 H       
  48 H48           -5.2633     1.2435     3.8741 H       
  49 H49           -0.5249     7.5162     9.2213 H       
  50 H50           -1.8616     7.4443    10.3944 H       
  51 H51           -1.4988     6.0338     9.3710 H       
  52 H52           -2.2627     9.1708    10.5264 H       
  53 H53           -3.4740    11.2821    10.8891 H       
  54 H54           -5.0227    12.1257     9.1725 H       
  55 H55           -5.3659    10.8611     7.0894 H       
  56 H56           -4.1553     8.7515     6.7140 H       
  57 H57           -6.0846     0.3345     5.9831 H       
  58 H58           -5.7780     1.5658     8.0874 H       
@<TRIPOS>BOND
   1    1    2 ar
   2    1   29 1
   3    1    6 ar
   4    2    3 ar
   5    2   28 1
   6    3    4 ar
   7    3   27 1
   8    4    5 ar
   9    4   40 1
  10    5    6 ar
  11    5    7 1
  12    6   41 1
  13    7    8 1
  14    7    9 1
  15    7   23 1
  16    8   11 1
  17    9   10 1
  18    9   42 1
  19    9   43 1
  20   10   11 2
  21   10   12 1
  22   12   13 ar
  23   12   14 ar
  24   13   22 ar
  25   13   17 ar
  26   14   15 ar
  27   14   44 1
  28   15   16 ar
  29   15   45 1
  30   16   17 ar
  31   16   18 1
  32   17   21 ar
  33   18   19 2
  34   18   20 am
  35   20   30 1
  36   20   46 1
  37   21   39 ar
  38   21   47 1
  39   22   38 ar
  40   22   48 1
  41   23   24 1
  42   23   25 1
  43   23   26 1
  44   30   31 1
  45   30   32 1
  46   31   49 1
  47   31   50 1
  48   31   51 1
  49   32   33 ar
  50   32   37 ar
  51   33   34 ar
  52   33   52 1
  53   34   35 ar
  54   34   53 1
  55   35   36 ar
  56   35   54 1
  57   36   37 ar
  58   36   55 1
  59   37   56 1
  60   38   39 ar
  61   38   57 1
  62   39   58 1

#	End of record

