#	Name: ASD01812789
#	Creating user name:	WinNT
#	Creation time:	15. 06. 2019 19:29

#	Modifying user name:	WinNT
#	Modification time:	15. 06. 2019 19:29

#	Program:	/corina/corina34_cracker 3.40 0067  02.08.2006

@<TRIPOS>MOLECULE
ASD01812789
  50   54    0    0    0
SMALL
NO_CHARGES


@<TRIPOS>ATOM
   1 N1             0.0030     1.3164    -0.2250 N.ar    
   2 C2             0.0323     0.0051    -0.3465 C.ar    
   3 N3             1.1651    -0.6757    -0.3654 N.ar    
   4 C4             2.3230    -0.0581    -0.2619 C.ar    
   5 C5             2.3512     1.3332    -0.1306 C.ar    
   6 C6             1.1254     2.0202    -0.1148 C.ar    
   7 C7             3.7591    -0.5137    -0.2478 C.3     
   8 N8             4.5727     0.6996    -0.1021 N.am    
   9 C9             3.7524     1.7636    -0.0350 C.2     
  10 C10            6.0357     0.7442    -0.0397 C.3     
  11 C11            6.5937     0.8914    -1.4319 C.ar    
  12 C12            6.8077     2.1524    -1.9586 C.ar    
  13 C13            7.3180     2.2931    -3.2332 C.ar    
  14 C14            7.6182     1.1619    -3.9895 C.ar    
  15 C15            7.4010    -0.1059    -3.4537 C.ar    
  16 C16            6.8951    -0.2349    -2.1761 C.ar    
  17 O17            1.0884     3.3667     0.0093 O.3     
  18 O18            4.1184     2.9167     0.0867 O.2     
  19 C19            8.1666     1.3069    -5.3606 C.ar    
  20 C20           -0.1200     3.9830    -0.0809 C.ar    
  21 C21           -2.5807     5.2370    -0.2653 C.ar    
  22 C22           -1.7805     5.1172    -1.3860 C.ar    
  23 C23           -0.5514     4.4915    -1.2965 C.ar    
  24 C24           -0.9278     4.0995     1.0438 C.ar    
  25 C25           -2.1567     4.7267     0.9481 C.ar    
  26 F26           -0.5135     3.6004     2.2289 F       
  27 C27           -3.9201     5.9200    -0.3671 C.3     
  28 F28           -4.9028     4.9750    -0.6808 F       
  29 F29           -4.2289     6.5256     0.8556 F       
  30 F30           -3.8721     6.8935    -1.3707 F       
  31 C31            8.4756     0.1848    -6.1391 C.ar    
  32 C32            8.9834     0.3988    -7.4080 C.ar    
  33 N33            9.1617     1.6307    -7.8478 N.ar    
  34 N34            8.8805     2.6627    -7.1394 N.ar    
  35 C35            8.3868     2.5675    -5.9208 C.ar    
  36 H36           -0.9007    -0.5319    -0.4332 H       
  37 H37            3.9314    -1.1837     0.5946 H       
  38 H38            4.0017    -1.0173    -1.1835 H       
  39 H39            6.3477     1.5932     0.5684 H       
  40 H40            6.4087    -0.1782     0.4055 H       
  41 H41            6.5747     3.0285    -1.3715 H       
  42 H42            7.4841     3.2782    -3.6438 H       
  43 H43            7.6316    -0.9860    -4.0357 H       
  44 H44            6.7301    -1.2170    -1.7582 H       
  45 H45           -2.1146     5.5165    -2.3322 H       
  46 H46            0.0729     4.3989    -2.1729 H       
  47 H47           -2.7837     4.8216     1.8223 H       
  48 H48            8.3229    -0.8153    -5.7611 H       
  49 H49            9.2342    -0.4415    -8.0385 H       
  50 H50            8.1576     3.4596    -5.3568 H       
@<TRIPOS>BOND
   1    1    2 ar
   2    1    6 ar
   3    2    3 ar
   4    2   36 1
   5    3    4 ar
   6    4    7 1
   7    4    5 ar
   8    5    6 ar
   9    5    9 1
  10    6   17 1
  11    7    8 1
  12    7   37 1
  13    7   38 1
  14    8    9 am
  15    8   10 1
  16    9   18 2
  17   10   11 1
  18   10   39 1
  19   10   40 1
  20   11   12 ar
  21   11   16 ar
  22   12   13 ar
  23   12   41 1
  24   13   14 ar
  25   13   42 1
  26   14   15 ar
  27   14   19 1
  28   15   16 ar
  29   15   43 1
  30   16   44 1
  31   17   20 1
  32   19   31 ar
  33   19   35 ar
  34   20   24 ar
  35   20   23 ar
  36   21   22 ar
  37   21   25 ar
  38   21   27 1
  39   22   23 ar
  40   22   45 1
  41   23   46 1
  42   24   25 ar
  43   24   26 1
  44   25   47 1
  45   27   28 1
  46   27   29 1
  47   27   30 1
  48   31   32 ar
  49   31   48 1
  50   32   33 ar
  51   32   49 1
  52   33   34 ar
  53   34   35 ar
  54   35   50 1

#	End of record

