#	Name: ASD01151117
#	Creating user name:	WinNT
#	Creation time:	15. 06. 2019 19:05

#	Modifying user name:	WinNT
#	Modification time:	15. 06. 2019 19:05

#	Program:	/corina/corina34_cracker 3.40 0067  02.08.2006

@<TRIPOS>MOLECULE
ASD01151117
  63   66    0    0    0
SMALL
NO_CHARGES


@<TRIPOS>ATOM
   1 C1            -3.1756    -2.5297    -2.0150 C.3     
   2 C2            -2.3281    -2.9676    -0.8188 C.3     
   3 C3            -2.4048    -1.9031     0.2776 C.3     
   4 C4            -1.8707    -0.5744    -0.2623 C.3     
   5 C5            -0.4264    -0.7573    -0.7342 C.3     
   6 C6             0.4444    -1.1821     0.4524 C.3     
   7 N7            -0.1456    -2.3790     1.0673 N.pl3   
   8 C8            -1.5564    -2.3409     1.4756 C.3     
   9 C9             0.6101    -3.5161     1.2572 C.2     
  10 C10            0.8937    -3.9590     2.5208 C.2     
  11 C11            0.3818    -3.2078     3.7227 C.3     
  12 C12           -0.3167    -4.1820     4.6735 C.3     
  13 C13            1.5545    -2.5422     4.4456 C.3     
  14 C14            1.6606    -5.1126     2.6856 C.2     
  15 C15            1.9781    -5.6091     4.0726 C.3     
  16 N16            2.1076    -5.7695     1.6379 N.2     
  17 C17            1.8391    -5.3494     0.3924 C.2     
  18 C18            2.1817    -5.8468    -0.8552 C.2     
  19 C19            1.6247    -4.9974    -1.8159 C.2     
  20 N20            0.9739    -4.0289    -1.1973 N.2     
  21 N21            1.0841    -4.2234     0.1841 N.pl3   
  22 C22            1.7447    -5.1576    -3.2868 C.ar    
  23 C23            2.4573    -6.2308    -3.8173 C.ar    
  24 C24            2.5654    -6.3752    -5.1857 C.ar    
  25 C25            1.9681    -5.4567    -6.0299 C.ar    
  26 C26            1.2595    -4.3893    -5.5085 C.ar    
  27 C27            1.1403    -4.2386    -4.1417 C.ar    
  28 C28            2.0904    -5.6190    -7.5231 C.3     
  29 F29            1.0272    -6.3954    -7.9964 F       
  30 F30            2.0567    -4.3606    -8.1334 F       
  31 F31            3.3008    -6.2518    -7.8258 F       
  32 C32           -3.8375    -1.7308     0.7119 C.2     
  33 O33           -4.7670    -1.3474    -0.1774 O.3     
  34 O34           -4.1496    -1.9377     1.8607 O.2     
  35 H35           -3.1209    -3.2880    -2.7960 H       
  36 H36           -4.2118    -2.4062    -1.7003 H       
  37 H37           -2.7977    -1.5829    -2.4008 H       
  38 H38           -2.7059    -3.9144    -0.4329 H       
  39 H39           -1.2918    -3.0911    -1.1334 H       
  40 H40           -2.4877    -0.2483    -1.0995 H       
  41 H41           -1.9025     0.1772     0.5265 H       
  42 H42           -0.3903    -1.5264    -1.5057 H       
  43 H43           -0.0544     0.1835    -1.1401 H       
  44 H44            1.4518    -1.4094     0.1035 H       
  45 H45            0.4824    -0.3759     1.1849 H       
  46 H46           -1.6816    -1.6292     2.2916 H       
  47 H47           -1.8693    -3.3328     1.8019 H       
  48 H48           -0.3263    -2.4447     3.3998 H       
  49 H49            0.3915    -4.9451     4.9965 H       
  50 H50           -0.6869    -3.6387     5.5429 H       
  51 H51           -1.1521    -4.6562     4.1586 H       
  52 H52            2.2956    -3.2973     4.7077 H       
  53 H53            2.0095    -1.7983     3.7915 H       
  54 H54            1.1940    -2.0567     5.3524 H       
  55 H55            1.2504    -6.3670     4.3626 H       
  56 H56            2.9781    -6.0427     4.0832 H       
  57 H57            1.9355    -4.7768     4.7751 H       
  58 H58            2.7723    -6.7299    -1.0497 H       
  59 H59            2.9246    -6.9482    -3.1589 H       
  60 H60            3.1175    -7.2068    -5.5980 H       
  61 H61            0.7954    -3.6748    -6.1722 H       
  62 H62            0.5833    -3.4071    -3.7357 H       
  63 H63           -5.6723    -1.2503     0.1481 H       
@<TRIPOS>BOND
   1    1    2 1
   2    1   35 1
   3    1   36 1
   4    1   37 1
   5    2    3 1
   6    2   38 1
   7    2   39 1
   8    3    8 1
   9    3    4 1
  10    3   32 1
  11    4    5 1
  12    4   40 1
  13    4   41 1
  14    5    6 1
  15    5   42 1
  16    5   43 1
  17    6    7 1
  18    6   44 1
  19    6   45 1
  20    7    8 1
  21    7    9 1
  22    8   46 1
  23    8   47 1
  24    9   21 1
  25    9   10 2
  26   10   11 1
  27   10   14 1
  28   11   12 1
  29   11   13 1
  30   11   48 1
  31   12   49 1
  32   12   50 1
  33   12   51 1
  34   13   52 1
  35   13   53 1
  36   13   54 1
  37   14   15 1
  38   14   16 2
  39   15   55 1
  40   15   56 1
  41   15   57 1
  42   16   17 1
  43   17   21 1
  44   17   18 2
  45   18   19 1
  46   18   58 1
  47   19   20 2
  48   19   22 1
  49   20   21 1
  50   22   27 ar
  51   22   23 ar
  52   23   24 ar
  53   23   59 1
  54   24   25 ar
  55   24   60 1
  56   25   26 ar
  57   25   28 1
  58   26   27 ar
  59   26   61 1
  60   27   62 1
  61   28   29 1
  62   28   30 1
  63   28   31 1
  64   32   33 1
  65   32   34 2
  66   33   63 1

#	End of record

