#	Name: ASD01230568
#	Creating user name:	WinNT
#	Creation time:	15. 06. 2019 19:14

#	Modifying user name:	WinNT
#	Modification time:	15. 06. 2019 19:14

#	Program:	/corina/corina34_cracker 3.40 0067  02.08.2006

@<TRIPOS>MOLECULE
ASD01230568
  22   23    0    0    0
SMALL
NO_CHARGES


@<TRIPOS>ATOM
   1 C1            -0.0145     1.3967    -0.0592 C.ar    
   2 C2             0.1779     0.2610     0.7264 C.ar    
   3 C3             1.3927    -0.3981     0.6692 C.ar    
   4 C4             2.3784     0.1001    -0.1732 C.ar    
   5 C5             2.1196     1.2318    -0.9250 C.ar    
   6 N6             0.9531     1.8406    -0.8515 N.ar    
   7 C7            -1.3552     3.5047     0.1327 C.ar    
   8 C8            -1.3124     2.1104    -0.0138 C.ar    
   9 C9            -2.5131     1.4071    -0.1165 C.ar    
  10 C10           -3.7006     2.1202    -0.0690 C.ar    
  11 C11           -3.6632     3.4935     0.0772 C.ar    
  12 N12           -2.5159     4.1387     0.1725 N.ar    
  13 N13           -0.1736     4.2227     0.2424 N.pl3   
  14 Br14           4.0582    -0.7604    -0.2907 Br      
  15 H15           -0.6105    -0.0988     1.3710 H       
  16 H16            1.5709    -1.2801     1.2665 H       
  17 H17            2.8837     1.6219    -1.5810 H       
  18 H18           -2.5170     0.3332    -0.2306 H       
  19 H19           -4.6475     1.6065    -0.1461 H       
  20 H20           -4.5888     4.0487     0.1138 H       
  21 H21            0.6733     3.7551     0.3138 H       
  22 H22           -0.1941     5.1925     0.2477 H       
@<TRIPOS>BOND
   1    1    2 ar
   2    1    6 ar
   3    1    8 1
   4    2    3 ar
   5    2   15 1
   6    3    4 ar
   7    3   16 1
   8    4    5 ar
   9    4   14 1
  10    5    6 ar
  11    5   17 1
  12    7    8 ar
  13    7   12 ar
  14    7   13 1
  15    8    9 ar
  16    9   10 ar
  17    9   18 1
  18   10   11 ar
  19   10   19 1
  20   11   12 ar
  21   11   20 1
  22   13   21 1
  23   13   22 1

#	End of record

