#	Name: ASD01151045
#	Creating user name:	WinNT
#	Creation time:	15. 06. 2019 19:05

#	Modifying user name:	WinNT
#	Modification time:	15. 06. 2019 19:05

#	Program:	/corina/corina34_cracker 3.40 0067  02.08.2006

@<TRIPOS>MOLECULE
ASD01151045
  58   60    0    0    0
SMALL
NO_CHARGES


@<TRIPOS>ATOM
   1 O1             0.5710    -0.0140    -0.1040 O.2     
   2 C2             0.8292     0.8615     0.6991 C.2     
   3 C3             1.8907     1.8448     0.4037 C.ar    
   4 C4             2.1897     2.8519     1.3245 C.ar    
   5 C5             3.1811     3.7692     1.0459 C.ar    
   6 C6             3.8834     3.6977    -0.1436 C.ar    
   7 C7             3.5964     2.7016    -1.0670 C.ar    
   8 C8             2.6039     1.7682    -0.7954 C.ar    
   9 F9             2.3221     0.7971    -1.6914 F       
  10 N10            4.3103     2.6347    -2.2695 N.am    
  11 C11            5.4418     1.9060    -2.3417 C.2     
  12 O12            5.8902     1.3789    -1.3422 O.2     
  13 C13            6.1374     1.7476    -3.6363 C.ar    
  14 C14            6.3056     2.8462    -4.4808 C.ar    
  15 C15            6.9562     2.6916    -5.6874 C.ar    
  16 C16            7.4411     1.4509    -6.0614 C.ar    
  17 C17            7.2778     0.3578    -5.2290 C.ar    
  18 C18            6.6342     0.4999    -4.0171 C.ar    
  19 C19            3.8275     3.3567    -3.4492 C.3     
  20 N20            0.1430     0.9379     1.8565 N.am    
  21 C21           -0.9353     0.0780     2.0882 C.ar    
  22 C22           -2.1773     0.5961     2.4321 C.ar    
  23 C23           -2.3650     2.0862     2.5555 C.3     
  24 C24           -3.2400    -0.2558     2.6603 C.ar    
  25 C25           -3.0687    -1.6233     2.5467 C.ar    
  26 C26           -1.8334    -2.1424     2.2050 C.ar    
  27 C27           -0.7680    -1.2957     1.9695 C.ar    
  28 C28            0.5779    -1.8622     1.5971 C.3     
  29 C29           -4.2306    -2.5499     2.7964 C.3     
  30 C30           -5.1815    -2.5098     1.5985 C.3     
  31 F31           -4.5073    -2.9465     0.4531 F       
  32 F32           -6.2755    -3.3469     1.8432 F       
  33 F33           -5.6313    -1.1995     1.4037 F       
  34 C34           -3.7129    -3.9767     2.9891 C.3     
  35 F35           -2.7479    -3.9899     4.0020 F       
  36 F36           -4.7752    -4.8141     3.3461 F       
  37 F37           -3.1420    -4.4308     1.7953 F       
  38 F38           -4.9133    -2.1422     3.9475 F       
  39 H39            1.6441     2.9123     2.2546 H       
  40 H40            3.4099     4.5469     1.7595 H       
  41 H41            4.6579     4.4201    -0.3551 H       
  42 H42            5.9269     3.8151    -4.1903 H       
  43 H43            7.0870     3.5408    -6.3417 H       
  44 H44            7.9491     1.3351    -7.0074 H       
  45 H45            7.6584    -0.6080    -5.5270 H       
  46 H46            6.5077    -0.3541    -3.3681 H       
  47 H47            4.3237     4.3253    -3.5106 H       
  48 H48            4.0489     2.7775    -4.3455 H       
  49 H49            2.7505     3.5047    -3.3690 H       
  50 H50            0.3970     1.5893     2.5289 H       
  51 H51           -2.6646     2.4959     1.5909 H       
  52 H52           -3.1383     2.2950     3.2949 H       
  53 H53           -1.4280     2.5457     2.8702 H       
  54 H54           -4.2059     0.1464     2.9280 H       
  55 H55           -1.7028    -3.2109     2.1175 H       
  56 H56            0.6276    -2.0007     0.5171 H       
  57 H57            1.3617    -1.1732     1.9116 H       
  58 H58            0.7177    -2.8226     2.0934 H       
@<TRIPOS>BOND
   1    1    2 2
   2    2    3 1
   3    2   20 am
   4    3    4 ar
   5    3    8 ar
   6    4    5 ar
   7    4   39 1
   8    5    6 ar
   9    5   40 1
  10    6    7 ar
  11    6   41 1
  12    7    8 ar
  13    7   10 1
  14    8    9 1
  15   10   11 am
  16   10   19 1
  17   11   12 2
  18   11   13 1
  19   13   14 ar
  20   13   18 ar
  21   14   15 ar
  22   14   42 1
  23   15   16 ar
  24   15   43 1
  25   16   17 ar
  26   16   44 1
  27   17   18 ar
  28   17   45 1
  29   18   46 1
  30   19   47 1
  31   19   48 1
  32   19   49 1
  33   20   21 1
  34   20   50 1
  35   21   22 ar
  36   21   27 ar
  37   22   23 1
  38   22   24 ar
  39   23   51 1
  40   23   52 1
  41   23   53 1
  42   24   25 ar
  43   24   54 1
  44   25   26 ar
  45   25   29 1
  46   26   27 ar
  47   26   55 1
  48   27   28 1
  49   28   56 1
  50   28   57 1
  51   28   58 1
  52   29   30 1
  53   29   34 1
  54   29   38 1
  55   30   31 1
  56   30   32 1
  57   30   33 1
  58   34   35 1
  59   34   36 1
  60   34   37 1

#	End of record

