#	Name: ASD00840553
#	Creating user name:	WinNT
#	Creation time:	15. 06. 2019 18:39

#	Modifying user name:	WinNT
#	Modification time:	15. 06. 2019 18:39

#	Program:	/corina/corina34_cracker 3.40 0067  02.08.2006

@<TRIPOS>MOLECULE
ASD00840553
  90   95    0    0    0
SMALL
NO_CHARGES


@<TRIPOS>ATOM
   1 N1             0.9746     1.4196    -0.8147 N.ar    
   2 C2             1.2511     0.1293    -0.9025 C.ar    
   3 C3             1.1947    -0.6847     0.2218 C.ar    
   4 C4             0.8445    -0.1279     1.4392 C.ar    
   5 C5             0.5616     1.2303     1.4892 C.ar    
   6 C6             0.6377     1.9791     0.3320 C.ar    
   7 C7             1.5101    -2.1546     0.1169 C.3     
   8 C8             1.2534    -2.8478     1.4380 C.2     
   9 C9             0.6836    -2.8007    -0.9969 C.3     
  10 C10           -0.7782    -2.5154    -0.7676 C.2     
  11 N11           -1.7056    -3.0494    -1.5869 N.am    
  12 O12           -1.1202    -1.8052     0.1542 O.2     
  13 C13           -3.1232    -2.6885    -1.4490 C.3     
  14 C14           -3.9476    -3.9722    -1.3111 C.3     
  15 C15           -3.6465    -4.8966    -2.4930 C.3     
  16 C16           -2.1629    -5.2721    -2.4841 C.3     
  17 C17           -1.3174    -3.9988    -2.6389 C.3     
  18 N18           -4.4602    -6.1146    -2.3815 N.3     
  19 C19           -4.2862    -6.9740    -3.5608 C.3     
  20 C20           -5.0860    -8.2649    -3.3703 C.3     
  21 N21           -6.5035    -7.9345    -3.1676 N.3     
  22 C22           -6.6775    -7.0751    -1.9883 C.3     
  23 C23           -5.8777    -5.7841    -2.1787 C.3     
  24 C24           -7.3172    -9.1524    -3.0561 C.3     
  25 O25            0.1898    -2.9264     2.0155 O.2     
  26 N26            2.4254    -3.3590     1.8510 N.am    
  27 C27            2.9872    -2.3631    -0.1269 C.ar    
  28 C28            3.4628    -3.0926     0.9559 C.ar    
  29 C29            3.8303    -1.9808    -1.1458 C.ar    
  30 C30            5.1712    -2.3237    -1.0986 C.ar    
  31 C31            5.6582    -3.0511    -0.0242 C.ar    
  32 C32            4.8123    -3.4350     0.9988 C.ar    
  33 Cl33           6.2383    -1.8444    -2.3812 Cl      
  34 F34            6.9661    -3.3863     0.0233 F       
  35 C35            2.3411    -5.9075     2.8866 C.ar    
  36 C36            1.0873    -6.3326     2.4728 C.ar    
  37 C37            3.3749    -6.8170     3.0003 C.ar    
  38 C38            3.1607    -8.1497     2.7016 C.ar    
  39 C39            1.9116    -8.5761     2.2889 C.ar    
  40 C40            0.8747    -7.6708     2.1740 C.ar    
  41 H41            1.7467    -9.6177     2.0561 H       
  42 O42            0.0687    -5.4400     2.3606 O.3     
  43 C43           -1.1951    -5.9487     1.9290 C.3     
  44 C44           -2.2095    -4.8052     1.8633 C.3     
  45 O45            1.5927    -0.4046    -2.1021 O.3     
  46 C46            2.0543    -0.2786    -4.4710 C.3     
  47 C47            1.5242     0.4581    -3.2393 C.3     
  48 S48            2.6171    -4.2078     3.2600 S.o2    
  49 O49            3.9882    -4.0923     3.6146 O.2     
  50 O50            1.5563    -3.8078     4.1168 O.2     
  51 H51            0.7920    -0.7362     2.3301 H       
  52 H52            0.2848     1.6961     2.4235 H       
  53 H53            0.4190     3.0362     0.3655 H       
  54 H54            0.9874    -2.3898    -1.9597 H       
  55 H55            0.8485    -3.8781    -0.9933 H       
  56 H56           -3.2582    -2.0703    -0.5615 H       
  57 H57           -3.4479    -2.1388    -2.3325 H       
  58 H58           -3.6853    -4.4748    -0.3801 H       
  59 H59           -5.0090    -3.7240    -1.3046 H       
  60 H60           -3.8858    -4.3843    -3.4249 H       
  61 H61           -1.9174    -5.7624    -1.5420 H       
  62 H62           -1.9539    -5.9491    -3.3124 H       
  63 H63           -1.4962    -3.5585    -3.6199 H       
  64 H64           -0.2612    -4.2465    -2.5342 H       
  65 H65           -4.6448    -6.4515    -4.4476 H       
  66 H66           -3.2302    -7.2151    -3.6824 H       
  67 H67           -4.9817    -8.8913    -4.2563 H       
  68 H68           -4.7093    -8.8009    -2.4992 H       
  69 H69           -7.7335    -6.8340    -1.8667 H       
  70 H70           -6.3189    -7.5975    -1.1015 H       
  71 H71           -5.9820    -5.1577    -1.2928 H       
  72 H72           -6.2544    -5.2481    -3.0499 H       
  73 H73           -6.9716    -9.7440    -2.2083 H       
  74 H74           -8.3618    -8.8791    -2.9066 H       
  75 H75           -7.2222    -9.7379    -3.9706 H       
  76 H76            3.4463    -1.4143    -1.9813 H       
  77 H77            5.1983    -4.0015     1.8333 H       
  78 H78            4.3514    -6.4865     3.3225 H       
  79 H79            3.9702    -8.8590     2.7904 H       
  80 H80           -0.1008    -8.0044     1.8523 H       
  81 H81           -1.0882    -6.3968     0.9412 H       
  82 H82           -1.5432    -6.7031     2.6345 H       
  83 H83           -3.1735    -5.1932     1.5341 H       
  84 H84           -2.3164    -4.3571     2.8512 H       
  85 H85           -1.8614    -4.0508     1.1579 H       
  86 H86            3.0590    -0.6496    -4.2681 H       
  87 H87            1.3976    -1.1169    -4.7036 H       
  88 H88            2.0841     0.4058    -5.3188 H       
  89 H89            0.4888     0.7529    -3.4099 H       
  90 H90            2.1297     1.3463    -3.0586 H       
@<TRIPOS>BOND
   1    1    2 ar
   2    1    6 ar
   3    2    3 ar
   4    2   45 1
   5    3    4 ar
   6    3    7 1
   7    4    5 ar
   8    4   51 1
   9    5    6 ar
  10    5   52 1
  11    6   53 1
  12    7    8 1
  13    7    9 1
  14    7   27 1
  15    8   25 2
  16    8   26 am
  17    9   10 1
  18    9   54 1
  19    9   55 1
  20   10   11 am
  21   10   12 2
  22   11   13 1
  23   11   17 1
  24   13   14 1
  25   13   56 1
  26   13   57 1
  27   14   15 1
  28   14   58 1
  29   14   59 1
  30   15   16 1
  31   15   18 1
  32   15   60 1
  33   16   17 1
  34   16   61 1
  35   16   62 1
  36   17   63 1
  37   17   64 1
  38   18   19 1
  39   18   23 1
  40   19   20 1
  41   19   65 1
  42   19   66 1
  43   20   21 1
  44   20   67 1
  45   20   68 1
  46   21   22 1
  47   21   24 1
  48   22   23 1
  49   22   69 1
  50   22   70 1
  51   23   71 1
  52   23   72 1
  53   24   73 1
  54   24   74 1
  55   24   75 1
  56   26   48 am
  57   26   28 1
  58   27   28 ar
  59   27   29 ar
  60   28   32 ar
  61   29   30 ar
  62   29   76 1
  63   30   31 ar
  64   30   33 1
  65   31   32 ar
  66   31   34 1
  67   32   77 1
  68   35   36 ar
  69   35   37 ar
  70   35   48 1
  71   36   42 1
  72   36   40 ar
  73   37   38 ar
  74   37   78 1
  75   38   39 ar
  76   38   79 1
  77   39   40 ar
  78   39   41 1
  79   40   80 1
  80   42   43 1
  81   43   44 1
  82   43   81 1
  83   43   82 1
  84   44   83 1
  85   44   84 1
  86   44   85 1
  87   45   47 1
  88   46   47 1
  89   46   86 1
  90   46   87 1
  91   46   88 1
  92   47   89 1
  93   47   90 1
  94   48   49 2
  95   48   50 2

#	End of record

