#	Name: ASD01881770
#	Creating user name:	WinNT
#	Creation time:	15. 06. 2019 19:43

#	Modifying user name:	WinNT
#	Modification time:	15. 06. 2019 19:43

#	Program:	/corina/corina34_cracker 3.40 0067  02.08.2006

@<TRIPOS>MOLECULE
ASD01881770
  37   40    0    0    0
SMALL
NO_CHARGES


@<TRIPOS>ATOM
   1 C1            -0.0097     1.5011    -0.0008 C.2     
   2 C2             0.0032    -0.0134    -0.0013 C.3     
   3 C3             1.4834    -0.4479    -0.0264 C.3     
   4 C4             2.2167     0.7768    -0.6298 C.3     
   5 C5             1.4359     1.9654    -0.0161 C.3     
   6 O6            -0.9885     2.2083     0.0053 O.2     
   7 O7            -0.6309    -0.5076     1.1801 O.3     
   8 N8            -6.0560    -1.2605     1.2543 N.pl3   
   9 N9            -6.1123    -1.8537     2.5242 N.2     
  10 N10           -4.9261    -1.9239     3.0169 N.2     
  11 C11           -4.0289    -1.4071     2.1538 C.ar    
  12 C12           -4.7310    -0.9750     1.0153 C.ar    
  13 C13           -2.6375    -1.2445     2.2024 C.ar    
  14 C14           -1.9808    -0.6662     1.1359 C.ar    
  15 C15           -2.6902    -0.2433     0.0145 C.ar    
  16 C16           -4.0470    -0.3940    -0.0465 C.ar    
  17 C17           -7.1844    -1.0019     0.3566 C.3     
  18 C18           -7.7556     0.3883     0.6428 C.3     
  19 C19           -8.8715     0.8959    -0.2727 C.3     
  20 C20           -9.1930     0.4686     1.1608 C.3     
  21 Br21          -1.6660    -1.8156     3.7210 Br      
  22 H22           -0.5106    -0.3900    -0.8857 H       
  23 H23            1.8407    -0.6489     0.9836 H       
  24 H24            1.6145    -1.3240    -0.6615 H       
  25 H25            3.2608     0.7962    -0.3174 H       
  26 H26            2.1361     0.7800    -1.7169 H       
  27 H27            1.5438     2.8538    -0.6385 H       
  28 H28            1.7822     2.1655     0.9979 H       
  29 H29           -2.1638     0.2083    -0.8134 H       
  30 H30           -4.5881    -0.0625    -0.9204 H       
  31 H31           -6.8440    -1.0489    -0.6778 H       
  32 H32           -7.9576    -1.7529     0.5191 H       
  33 H33           -7.0425     1.1209     1.0208 H       
  34 H34           -8.8927     1.9624    -0.4967 H       
  35 H35           -9.1987     0.2394    -1.0789 H       
  36 H36           -9.7318    -0.4691     1.2976 H       
  37 H37           -9.4258     1.2540     1.8799 H       
@<TRIPOS>BOND
   1    1    2 1
   2    1    5 1
   3    1    6 2
   4    2    3 1
   5    2    7 1
   6    2   22 1
   7    3    4 1
   8    3   23 1
   9    3   24 1
  10    4    5 1
  11    4   25 1
  12    4   26 1
  13    5   27 1
  14    5   28 1
  15    7   14 1
  16    8    9 1
  17    8   12 1
  18    8   17 1
  19    9   10 2
  20   10   11 1
  21   11   12 ar
  22   11   13 ar
  23   12   16 ar
  24   13   14 ar
  25   13   21 1
  26   14   15 ar
  27   15   16 ar
  28   15   29 1
  29   16   30 1
  30   17   18 1
  31   17   31 1
  32   17   32 1
  33   18   19 1
  34   18   20 1
  35   18   33 1
  36   19   20 1
  37   19   34 1
  38   19   35 1
  39   20   36 1
  40   20   37 1

#	End of record

