#	Name: ASD01560030
#	Creating user name:	WinNT
#	Creation time:	15. 06. 2019 19:22

#	Modifying user name:	WinNT
#	Modification time:	15. 06. 2019 19:22

#	Program:	/corina/corina34_cracker 3.40 0067  02.08.2006

@<TRIPOS>MOLECULE
ASD01560030
  38   41    0    0    0
SMALL
NO_CHARGES


@<TRIPOS>ATOM
   1 Br1            0.0021    -0.0041     0.0020 Br      
   2 C2            -0.0236     1.8867     0.0124 C.ar    
   3 C3             1.1669     2.5927     0.0048 C.ar    
   4 C4             1.1535     3.9727     0.0119 C.ar    
   5 C5            -0.0611     4.6551     0.0267 C.ar    
   6 C6            -1.2568     3.9399     0.0343 C.ar    
   7 C7            -1.2328     2.5601     0.0218 C.ar    
   8 C8            -0.0813     6.1392     0.0349 C.2     
   9 C9            -1.2328     6.9435     0.0498 C.2     
  10 C10           -0.8213     8.2581     0.0530 C.2     
  11 N11            0.5513     8.2552     0.0404 N.am    
  12 N12            0.9778     6.9225     0.0351 N.2     
  13 C13            1.2194     9.4258     0.0406 C.2     
  14 O14            2.4350     9.4358     0.0291 O.2     
  15 N15            0.5319    10.5857     0.0531 N.am    
  16 C16           -0.8417    10.5735     0.0661 C.2     
  17 N17           -1.4972     9.4338     0.0652 N.2     
  18 S18           -1.7307    12.0947     0.0836 S.3     
  19 C19           -3.4282    11.4666     0.0960 C.3     
  20 C20           -4.3922    12.6248     0.1121 C.2     
  21 N21           -4.5861    13.3430     1.2619 N.am    
  22 C22           -5.4445    14.3786     1.2864 C.2     
  23 O23           -5.6016    15.0024     2.3182 O.2     
  24 N24           -6.1314    14.7344     0.1850 N.am    
  25 C25           -5.9692    14.0531    -0.9672 C.2     
  26 O26           -6.5909    14.3744    -1.9639 O.2     
  27 C27           -5.0652    12.9633    -1.0089 C.2     
  28 Cl28          -4.8345    12.0673    -2.4778 Cl      
  29 H29            2.1079     2.0628    -0.0063 H       
  30 H30            2.0829     4.5227     0.0064 H       
  31 H31           -2.2008     4.4644     0.0461 H       
  32 H32           -2.1591     2.0047     0.0277 H       
  33 H33           -2.2549     6.5946     0.0569 H       
  34 H34            1.0083    11.4307     0.0533 H       
  35 H35           -3.5991    10.8639    -0.7960 H       
  36 H36           -3.5822    10.8534     0.9839 H       
  37 H37           -4.1002    13.1025     2.0662 H       
  38 H38           -6.7461    15.4840     0.2204 H       
@<TRIPOS>BOND
   1    1    2 1
   2    2    3 ar
   3    2    7 ar
   4    3    4 ar
   5    3   29 1
   6    4    5 ar
   7    4   30 1
   8    5    6 ar
   9    5    8 1
  10    6    7 ar
  11    6   31 1
  12    7   32 1
  13    8    9 1
  14    8   12 2
  15    9   10 2
  16    9   33 1
  17   10   11 1
  18   10   17 1
  19   11   12 1
  20   11   13 am
  21   13   14 2
  22   13   15 am
  23   15   16 1
  24   15   34 1
  25   16   17 2
  26   16   18 1
  27   18   19 1
  28   19   20 1
  29   19   35 1
  30   19   36 1
  31   20   21 1
  32   20   27 2
  33   21   22 am
  34   21   37 1
  35   22   23 2
  36   22   24 am
  37   24   25 am
  38   24   38 1
  39   25   26 2
  40   25   27 1
  41   27   28 1

#	End of record

