#	Name: ASD01913596
#	Creating user name:	WinNT
#	Creation time:	15. 06. 2019 20:01

#	Modifying user name:	WinNT
#	Modification time:	15. 06. 2019 20:01

#	Program:	/corina/corina34_cracker 3.40 0067  02.08.2006

@<TRIPOS>MOLECULE
ASD01913596
  37   39    0    0    0
SMALL
NO_CHARGES


@<TRIPOS>ATOM
   1 C1            -2.8086     0.2909    -1.2466 C.ar    
   2 C2            -2.3020    -0.1541    -0.0298 C.ar    
   3 C3            -3.0951    -0.0155     1.1047 C.ar    
   4 N4            -4.2942     0.5305     0.9870 N.ar    
   5 C5            -4.7389     0.9400    -0.1841 C.ar    
   6 N6            -4.0178     0.8261    -1.2814 N.ar    
   7 C7            -0.9774    -2.0622     0.1329 C.ar    
   8 C8             0.2608    -2.6938     0.2074 C.ar    
   9 C9             0.3124    -4.0734     0.2982 C.ar    
  10 N10           -0.7893    -4.7927     0.3145 N.ar    
  11 C11           -1.9918    -4.2324     0.2457 C.ar    
  12 C12           -2.1252    -2.8511     0.1530 C.ar    
  13 C13           -3.2018    -5.0867     0.2673 C.2     
  14 N14           -3.0797    -6.4260     0.3565 N.am    
  15 O15           -1.0644    -0.7102     0.0486 O.3     
  16 O16           -4.3045    -4.5800     0.2046 O.2     
  17 C17           -4.2160    -7.2223     0.4829 C.ar    
  18 C18           -4.0785    -8.5875     0.6911 C.ar    
  19 C19           -5.2210    -9.3694     0.8159 C.ar    
  20 C20           -6.4643    -8.7452     0.7260 C.ar    
  21 C21           -6.5207    -7.3832     0.5180 C.ar    
  22 N22           -5.4170    -6.6677     0.4087 N.ar    
  23 O23           -5.1284   -10.7083     1.0197 O.3     
  24 C24           -6.3544   -11.4331     1.1362 C.3     
  25 H25           -2.2215     0.2046    -2.1489 H       
  26 H26           -2.7371    -0.3492     2.0675 H       
  27 H27           -5.7225     1.3816    -0.2464 H       
  28 H28            1.1714    -2.1132     0.1941 H       
  29 H29            1.2712    -4.5672     0.3561 H       
  30 H30           -3.1036    -2.3972     0.0974 H       
  31 H31           -2.2007    -6.8355     0.3327 H       
  32 H32           -3.0981    -9.0360     0.7549 H       
  33 H33           -7.3729    -9.3218     0.8180 H       
  34 H34           -7.4813    -6.8945     0.4476 H       
  35 H35           -6.9259   -11.0472     1.9803 H       
  36 H36           -6.9343   -11.3157     0.2207 H       
  37 H37           -6.1382   -12.4894     1.2963 H       
@<TRIPOS>BOND
   1    1    2 ar
   2    1    6 ar
   3    1   25 1
   4    2    3 ar
   5    2   15 1
   6    3    4 ar
   7    3   26 1
   8    4    5 ar
   9    5    6 ar
  10    5   27 1
  11    7    8 ar
  12    7   12 ar
  13    7   15 1
  14    8    9 ar
  15    8   28 1
  16    9   10 ar
  17    9   29 1
  18   10   11 ar
  19   11   12 ar
  20   11   13 1
  21   12   30 1
  22   13   14 am
  23   13   16 2
  24   14   17 1
  25   14   31 1
  26   17   18 ar
  27   17   22 ar
  28   18   19 ar
  29   18   32 1
  30   19   20 ar
  31   19   23 1
  32   20   21 ar
  33   20   33 1
  34   21   22 ar
  35   21   34 1
  36   23   24 1
  37   24   35 1
  38   24   36 1
  39   24   37 1

#	End of record

