#	Name: ASD01148210
#	Creating user name:	WinNT
#	Creation time:	15. 06. 2019 19:02

#	Modifying user name:	WinNT
#	Modification time:	15. 06. 2019 19:02

#	Program:	/corina/corina34_cracker 3.40 0067  02.08.2006

@<TRIPOS>MOLECULE
ASD01148210
  52   55    0    0    0
SMALL
NO_CHARGES


@<TRIPOS>ATOM
   1 C1            -0.0167     1.3791     0.0096 C.ar    
   2 C2             0.0021    -0.0041     0.0020 C.ar    
   3 C3             1.2100    -0.6790    -0.0131 C.ar    
   4 C4             2.3967     0.0290    -0.0207 C.ar    
   5 C5             2.3773     1.4115    -0.0131 C.ar    
   6 C6             1.1711     2.0862     0.0021 C.ar    
   7 C7             3.6719     2.1830    -0.0208 C.3     
   8 O8             4.6968     1.4643    -0.7367 O.3     
   9 C9             3.5429     3.4728    -0.8657 C.3     
  10 C10            4.0465     3.0278    -2.2256 C.2     
  11 N11            4.6717     1.9080    -2.0789 N.2     
  12 C12            3.8544     3.7508    -3.4981 C.ar    
  13 C13            4.3730     3.2265    -4.6848 C.ar    
  14 C14            3.1489     4.9567    -3.5169 C.ar    
  15 C15            2.9698     5.6308    -4.7036 C.ar    
  16 C16            3.4934     5.1094    -5.8891 C.ar    
  17 C17            4.1938     3.9009    -5.8714 C.ar    
  18 C18            3.3006     5.8331    -7.1632 C.2     
  19 O19            2.6864     6.8820    -7.1796 O.2     
  20 N20            3.8057     5.3301    -8.3071 N.am    
  21 C21            4.1230     2.5044     1.4054 C.3     
  22 F22            4.2976     1.3138     2.1189 F       
  23 F23            5.3330     3.2055     1.3649 F       
  24 F24            3.1509     3.2880     2.0366 F       
  25 Cl25          -1.4892    -0.8928     0.0121 Cl      
  26 C26            3.6146     6.0475    -9.5700 C.3     
  27 C27            4.2710     5.2795   -10.6882 C.ar    
  28 N28            5.5562     5.4495   -10.9288 N.ar    
  29 C29            6.1726     4.7990   -11.8965 C.ar    
  30 C30            5.4853     3.9088   -12.6993 C.ar    
  31 C31            4.1321     3.7036   -12.4764 C.ar    
  32 C32            3.5200     4.4007   -11.4462 C.ar    
  33 C33            1.2313    -2.1858    -0.0209 C.3     
  34 F34            2.5567    -2.6334    -0.0361 F       
  35 F35            0.5896    -2.6672     1.1252 F       
  36 F36            0.5673    -2.6557    -1.1592 F       
  37 H37           -0.9592     1.9064     0.0169 H       
  38 H38            3.3395    -0.4977    -0.0321 H       
  39 H39            1.1566     3.1661     0.0077 H       
  40 H40            2.5031     3.7945    -0.9245 H       
  41 H41            4.1719     4.2654    -0.4605 H       
  42 H42            4.9149     2.2924    -4.6711 H       
  43 H43            2.7437     5.3596    -2.6004 H       
  44 H44            2.4241     6.5627    -4.7182 H       
  45 H45            4.5986     3.4979    -6.7880 H       
  46 H46            4.2958     4.4931    -8.2940 H       
  47 H47            2.5485     6.1463    -9.7741 H       
  48 H48            4.0639     7.0379    -9.4969 H       
  49 H49            7.2267     4.9644   -12.0636 H       
  50 H50            5.9955     3.3797   -13.4906 H       
  51 H51            3.5693     3.0142   -13.0882 H       
  52 H52            2.4678     4.2653   -11.2439 H       
@<TRIPOS>BOND
   1    1    2 ar
   2    1    6 ar
   3    1   37 1
   4    2    3 ar
   5    2   25 1
   6    3    4 ar
   7    3   33 1
   8    4    5 ar
   9    4   38 1
  10    5    6 ar
  11    5    7 1
  12    6   39 1
  13    7    8 1
  14    7    9 1
  15    7   21 1
  16    8   11 1
  17    9   10 1
  18    9   40 1
  19    9   41 1
  20   10   11 2
  21   10   12 1
  22   12   13 ar
  23   12   14 ar
  24   13   17 ar
  25   13   42 1
  26   14   15 ar
  27   14   43 1
  28   15   16 ar
  29   15   44 1
  30   16   17 ar
  31   16   18 1
  32   17   45 1
  33   18   19 2
  34   18   20 am
  35   20   26 1
  36   20   46 1
  37   21   22 1
  38   21   23 1
  39   21   24 1
  40   26   27 1
  41   26   47 1
  42   26   48 1
  43   27   28 ar
  44   27   32 ar
  45   28   29 ar
  46   29   30 ar
  47   29   49 1
  48   30   31 ar
  49   30   50 1
  50   31   32 ar
  51   31   51 1
  52   32   52 1
  53   33   34 1
  54   33   35 1
  55   33   36 1

#	End of record

