#	Name: ASD08178532
#	Creating user name:	WinNT
#	Creation time:	15. 06. 2019 21:19

#	Modifying user name:	WinNT
#	Modification time:	15. 06. 2019 21:19

#	Program:	/corina/corina34_cracker 3.40 0067  02.08.2006

@<TRIPOS>MOLECULE
ASD08178532
  39   40    0    0    0
SMALL
NO_CHARGES


@<TRIPOS>ATOM
   1 C1            -0.0167     1.3783     0.0096 C.ar    
   2 C2             0.0021    -0.0041     0.0020 C.ar    
   3 C3             1.2081    -0.6776    -0.0131 C.ar    
   4 C4             2.3983     0.0295    -0.0207 C.ar    
   5 C5             2.3796     1.4100    -0.0131 C.ar    
   6 C6             1.1707     2.0845     0.0021 C.ar    
   7 O7             1.2537     5.4235    -1.6418 O.3     
   8 C8             1.2530     4.1024    -1.4041 C.2     
   9 C9             1.1499     3.5913     0.0099 C.3     
  10 O10            1.3349     3.3231    -2.3237 O.2     
  11 C11            3.8316    -0.4385    -0.0374 C.3     
  12 N12            4.6890     0.7511    -0.0395 N.am    
  13 C13            3.7996     1.9168    -0.0244 C.3     
  14 C14            6.0366     0.7694    -0.0520 C.2     
  15 O15            6.6298     1.8299    -0.0518 O.2     
  16 O16            6.7255    -0.3873    -0.0648 O.3     
  17 C17            8.1742    -0.2915    -0.0779 C.3     
  18 C18            8.6473     0.4550     1.1711 C.3     
  19 C19            8.7781    -1.6973    -0.0912 C.3     
  20 C20            8.6239     0.4685    -1.3273 C.3     
  21 H21           -0.9590     1.9059     0.0170 H       
  22 H22           -0.9256    -0.5571     0.0083 H       
  23 H23            1.2225    -1.7575    -0.0187 H       
  24 H24            1.3218     5.7034    -2.5649 H       
  25 H25            0.2178     3.9395     0.4550 H       
  26 H26            1.9923     3.9633     0.5930 H       
  27 H27            4.0346    -1.0386     0.8496 H       
  28 H28            4.0169    -1.0291    -0.9345 H       
  29 H29            3.9688     2.5221    -0.9150 H       
  30 H30            3.9864     2.5125     0.8691 H       
  31 H31            8.3270    -0.0865     2.0612 H       
  32 H32            9.7349     0.5268     1.1612 H       
  33 H33            8.2171     1.4564     1.1805 H       
  34 H34            8.4411    -2.2291    -0.9809 H       
  35 H35            9.8657    -1.6254    -0.1010 H       
  36 H36            8.4578    -2.2388     0.7989 H       
  37 H37            8.1937     1.4700    -1.3178 H       
  38 H38            9.7115     0.5404    -1.3371 H       
  39 H39            8.2868    -0.0633    -2.2170 H       
@<TRIPOS>BOND
   1    1    2 ar
   2    1    6 ar
   3    1   21 1
   4    2    3 ar
   5    2   22 1
   6    3    4 ar
   7    3   23 1
   8    4    5 ar
   9    4   11 1
  10    5    6 ar
  11    5   13 1
  12    6    9 1
  13    7    8 1
  14    7   24 1
  15    8    9 1
  16    8   10 2
  17    9   25 1
  18    9   26 1
  19   11   12 1
  20   11   27 1
  21   11   28 1
  22   12   13 1
  23   12   14 am
  24   13   29 1
  25   13   30 1
  26   14   15 2
  27   14   16 1
  28   16   17 1
  29   17   18 1
  30   17   19 1
  31   17   20 1
  32   18   31 1
  33   18   32 1
  34   18   33 1
  35   19   34 1
  36   19   35 1
  37   19   36 1
  38   20   37 1
  39   20   38 1
  40   20   39 1

#	End of record

