#	Name: ASD01870480
#	Creating user name:	WinNT
#	Creation time:	15. 06. 2019 19:39

#	Modifying user name:	WinNT
#	Modification time:	15. 06. 2019 19:39

#	Program:	/corina/corina34_cracker 3.40 0067  02.08.2006

@<TRIPOS>MOLECULE
ASD01870480
  45   48    0    0    0
SMALL
NO_CHARGES


@<TRIPOS>ATOM
   1 C1            -0.0305     1.3966    -0.2309 C.ar    
   2 C2            -0.0275     0.0162    -0.1042 C.ar    
   3 C3             1.1518    -0.6625     0.1395 C.ar    
   4 C4             2.3478     0.0278     0.2606 C.ar    
   5 C5             2.3600     1.4077     0.1363 C.ar    
   6 C6             1.1574     2.0999    -0.1122 C.ar    
   7 C7             3.4146     2.4412     0.2047 C.2     
   8 N8             2.8482     3.6454     0.0076 N.am    
   9 C9             1.5220     3.5304    -0.1864 C.2     
  10 O10            0.7531     4.4484    -0.3892 O.2     
  11 O11            4.5949     2.2373     0.4057 O.2     
  12 C12            3.5487     4.8614     0.0048 C.ar    
  13 C13            4.0776     5.3550    -1.1800 C.ar    
  14 C14            4.7663     6.5514    -1.1832 C.ar    
  15 C15            4.9308     7.2617    -0.0011 C.ar    
  16 C16            4.4021     6.7687     1.1844 C.ar    
  17 C17            3.7079     5.5741     1.1866 C.ar    
  18 Cl18           3.0409     4.9603     2.6672 Cl      
  19 N19            5.6303     8.4750    -0.0046 N.am    
  20 C20            6.4027     8.8107     1.0476 C.2     
  21 C21            7.2372    10.0646     1.0002 C.3     
  22 O22            6.4261     8.1035     2.0328 O.2     
  23 N23            8.3064    10.0102     2.0199 N.3     
  24 C24            8.4903    11.3618     2.5797 C.3     
  25 C25            7.4676    12.2867     1.8870 C.3     
  26 C26            6.3822    11.2965     1.3887 C.3     
  27 C27            9.5590     9.5045     1.4429 C.3     
  28 H28           -0.9542     1.9213    -0.4256 H       
  29 H29           -0.9530    -0.5328    -0.1961 H       
  30 H30            1.1412    -1.7381     0.2366 H       
  31 H31            3.2661    -0.5077     0.4514 H       
  32 H32            3.9506     4.8027    -2.0993 H       
  33 H33            5.1776     6.9351    -2.1052 H       
  34 H34            4.5302     7.3207     2.1037 H       
  35 H35            5.5589     9.0738    -0.7644 H       
  36 H36            7.6665    10.1965     0.0070 H       
  37 H37            8.3078    11.3461     3.6542 H       
  38 H38            9.5028    11.7119     2.3785 H       
  39 H39            7.0449    12.9956     2.5990 H       
  40 H40            7.9270    12.8092     1.0479 H       
  41 H41            5.8572    11.6967     0.5214 H       
  42 H42            5.6825    11.0499     2.1873 H       
  43 H43            9.8792    10.1632     0.6356 H       
  44 H44           10.3285     9.4747     2.2143 H       
  45 H45            9.3989     8.5002     1.0505 H       
@<TRIPOS>BOND
   1    1    2 ar
   2    1    6 ar
   3    1   28 1
   4    2    3 ar
   5    2   29 1
   6    3    4 ar
   7    3   30 1
   8    4    5 ar
   9    4   31 1
  10    5    7 1
  11    5    6 ar
  12    6    9 1
  13    7    8 am
  14    7   11 2
  15    8    9 am
  16    8   12 1
  17    9   10 2
  18   12   13 ar
  19   12   17 ar
  20   13   14 ar
  21   13   32 1
  22   14   15 ar
  23   14   33 1
  24   15   16 ar
  25   15   19 1
  26   16   17 ar
  27   16   34 1
  28   17   18 1
  29   19   20 am
  30   19   35 1
  31   20   22 2
  32   20   21 1
  33   21   23 1
  34   21   26 1
  35   21   36 1
  36   23   24 1
  37   23   27 1
  38   24   25 1
  39   24   37 1
  40   24   38 1
  41   25   26 1
  42   25   39 1
  43   25   40 1
  44   26   41 1
  45   26   42 1
  46   27   43 1
  47   27   44 1
  48   27   45 1

#	End of record

