#	Name: ASD00842246
#	Creating user name:	WinNT
#	Creation time:	15. 06. 2019 18:43

#	Modifying user name:	WinNT
#	Modification time:	15. 06. 2019 18:43

#	Program:	/corina/corina34_cracker 3.40 0067  02.08.2006

@<TRIPOS>MOLECULE
ASD00842246
  97  102    0    0    0
SMALL
NO_CHARGES


@<TRIPOS>ATOM
   1 F1             6.1295    -1.8128    -1.9269 F       
   2 C2             1.0707     1.5495    -0.5504 C.ar    
   3 C3             1.3575     0.2050    -0.7352 C.ar    
   4 C4             1.2623    -0.6756     0.3329 C.ar    
   5 C5             0.8822    -0.2116     1.5771 C.ar    
   6 C6             0.5964     1.1292     1.7587 C.ar    
   7 C7             0.6910     2.0086     0.6963 C.ar    
   8 C8             1.5727    -2.1370     0.1355 C.3     
   9 C9             1.2732    -2.9179     1.3973 C.2     
  10 C10            0.7760    -2.6982    -1.0440 C.3     
  11 C11           -0.6912    -2.4248    -0.8347 C.2     
  12 N12           -1.5983    -2.9127    -1.7039 N.am    
  13 O13           -1.0556    -1.7657     0.1160 O.2     
  14 C14           -3.0227    -2.5674    -1.5817 C.3     
  15 C15           -3.5208    -2.0675    -2.9419 C.3     
  16 N16           -3.2105    -3.0682    -3.9715 N.3     
  17 C17           -1.7603    -3.2560    -4.1121 C.3     
  18 C18           -1.1892    -3.7997    -2.8035 C.3     
  19 C19           -3.8217    -2.7074    -5.2576 C.3     
  20 C20           -3.3761    -3.7022    -6.3329 C.3     
  21 C21           -4.0635    -3.3576    -7.6561 C.3     
  22 N22           -5.5204    -3.4173    -7.4823 N.3     
  23 C23           -5.9772    -2.4375    -6.4884 C.3     
  24 C24           -5.3469    -2.7546    -5.1304 C.3     
  25 C25           -6.2118    -3.2280    -8.7645 C.3     
  26 O26            0.1923    -3.0289     1.9362 O.2     
  27 N27            2.4296    -3.4654     1.8078 N.am    
  28 C28            3.0551    -2.3391    -0.0792 C.ar    
  29 C29            3.4948    -3.1451     0.9634 C.ar    
  30 C30            3.9300    -1.8929    -1.0442 C.ar    
  31 C31            5.2678    -2.2480    -0.9819 C.ar    
  32 C32            5.7188    -3.0521     0.0539 C.ar    
  33 C33            4.8406    -3.4996     1.0221 C.ar    
  34 F34            7.0229    -3.3996     0.1166 F       
  35 C35            2.3006    -6.0784     2.6620 C.ar    
  36 C36            1.0571    -6.4645     2.1837 C.ar    
  37 C37            3.3255    -7.0014     2.7425 C.ar    
  38 C38            3.1127    -8.3087     2.3464 C.ar    
  39 C39            1.8740    -8.6961     1.8692 C.ar    
  40 C40            0.8460    -7.7773     1.7872 C.ar    
  41 H41            1.7102    -9.7179     1.5603 H       
  42 O42            0.0473    -5.5585     2.1040 O.3     
  43 C43           -1.2060    -6.0266     1.6018 C.3     
  44 C44           -2.2117    -4.8737     1.5859 C.3     
  45 C45           -7.6994    -3.5417    -8.5930 C.3     
  46 C46           -8.4195    -3.3445    -9.9285 C.3     
  47 O47            1.7308    -0.2491    -1.9605 O.3     
  48 C48            2.2471     0.0302    -4.3048 C.3     
  49 C49            1.6986     0.6893    -3.0377 C.3     
  50 S50            2.5749    -4.4106     3.1597 S.o2    
  51 O51            3.9357    -4.3302     3.5611 O.2     
  52 O52            1.4917    -4.0625     4.0110 O.2     
  53 H53            1.1485     2.2376    -1.3791 H       
  54 H54            0.8079    -0.8966     2.4088 H       
  55 H55            0.2987     1.4899     2.7322 H       
  56 H56            0.4672     3.0552     0.8406 H       
  57 H57            1.1067    -2.2202    -1.9661 H       
  58 H58            0.9389    -3.7737    -1.1136 H       
  59 H59           -3.5895    -3.4503    -1.2861 H       
  60 H60           -3.1465    -1.7826    -0.8354 H       
  61 H61           -4.5988    -1.9114    -2.8996 H       
  62 H62           -3.0263    -1.1276    -3.1874 H       
  63 H63           -1.5614    -3.9620    -4.9184 H       
  64 H64           -1.2903    -2.2996    -4.3412 H       
  65 H65           -0.1013    -3.8323    -2.8643 H       
  66 H66           -1.5788    -4.8015    -2.6222 H       
  67 H67           -3.5097    -1.7019    -5.5398 H       
  68 H68           -2.2949    -3.6426    -6.4582 H       
  69 H69           -3.6529    -4.7124    -6.0313 H       
  70 H70           -3.7754    -2.3526    -7.9641 H       
  71 H71           -3.7593    -4.0728    -8.4204 H       
  72 H72           -5.6801    -1.4367    -6.8019 H       
  73 H73           -7.0630    -2.4843    -6.4047 H       
  74 H74           -5.6547    -3.7499    -4.8099 H       
  75 H75           -5.6738    -2.0180    -4.3965 H       
  76 H76           -6.0937    -2.1951    -9.0919 H       
  77 H77           -5.7831    -3.8969    -9.5107 H       
  78 H78            3.5737    -1.2671    -1.8492 H       
  79 H79            5.1984    -4.1253     1.8264 H       
  80 H80            4.2939    -6.7014     3.1149 H       
  81 H81            3.9154    -9.0286     2.4094 H       
  82 H82           -0.1215    -8.0804     1.4150 H       
  83 H83           -1.0726    -6.4064     0.5889 H       
  84 H84           -1.5790    -6.8252     2.2431 H       
  85 H85           -2.3451    -4.4939     2.5989 H       
  86 H86           -1.8388    -4.0751     0.9446 H       
  87 H87           -3.1677    -5.2308     1.2029 H       
  88 H88           -7.8175    -4.5746    -8.2656 H       
  89 H89           -8.1282    -2.8727    -7.8469 H       
  90 H90           -8.3013    -2.3116   -10.2559 H       
  91 H91           -7.9907    -4.0134   -10.6747 H       
  92 H92           -9.4793    -3.5680    -9.8064 H       
  93 H93            2.3044     0.7699    -5.1034 H       
  94 H94            3.2422    -0.3676    -4.1059 H       
  95 H95            1.5853    -0.7811    -4.6079 H       
  96 H96            0.6710     1.0093    -3.2102 H       
  97 H97            2.3109     1.5547    -2.7840 H       
@<TRIPOS>BOND
   1    1   31 1
   2    2    3 ar
   3    2    7 ar
   4    2   53 1
   5    3    4 ar
   6    3   47 1
   7    4    5 ar
   8    4    8 1
   9    5    6 ar
  10    5   54 1
  11    6    7 ar
  12    6   55 1
  13    7   56 1
  14    8    9 1
  15    8   10 1
  16    8   28 1
  17    9   26 2
  18    9   27 am
  19   10   11 1
  20   10   57 1
  21   10   58 1
  22   11   12 am
  23   11   13 2
  24   12   14 1
  25   12   18 1
  26   14   15 1
  27   14   59 1
  28   14   60 1
  29   15   16 1
  30   15   61 1
  31   15   62 1
  32   16   17 1
  33   16   19 1
  34   17   18 1
  35   17   63 1
  36   17   64 1
  37   18   65 1
  38   18   66 1
  39   19   20 1
  40   19   24 1
  41   19   67 1
  42   20   21 1
  43   20   68 1
  44   20   69 1
  45   21   22 1
  46   21   70 1
  47   21   71 1
  48   22   23 1
  49   22   25 1
  50   23   24 1
  51   23   72 1
  52   23   73 1
  53   24   74 1
  54   24   75 1
  55   25   45 1
  56   25   76 1
  57   25   77 1
  58   27   50 am
  59   27   29 1
  60   28   29 ar
  61   28   30 ar
  62   29   33 ar
  63   30   31 ar
  64   30   78 1
  65   31   32 ar
  66   32   33 ar
  67   32   34 1
  68   33   79 1
  69   35   36 ar
  70   35   37 ar
  71   35   50 1
  72   36   42 1
  73   36   40 ar
  74   37   38 ar
  75   37   80 1
  76   38   39 ar
  77   38   81 1
  78   39   40 ar
  79   39   41 1
  80   40   82 1
  81   42   43 1
  82   43   44 1
  83   43   83 1
  84   43   84 1
  85   44   85 1
  86   44   86 1
  87   44   87 1
  88   45   46 1
  89   45   88 1
  90   45   89 1
  91   46   90 1
  92   46   91 1
  93   46   92 1
  94   47   49 1
  95   48   49 1
  96   48   93 1
  97   48   94 1
  98   48   95 1
  99   49   96 1
 100   49   97 1
 101   50   51 2
 102   50   52 2

#	End of record

