#	Name: ASD02398033
#	Creating user name:	WinNT
#	Creation time:	15. 06. 2019 20:20

#	Modifying user name:	WinNT
#	Modification time:	15. 06. 2019 20:20

#	Program:	/corina/corina34_cracker 3.40 0067  02.08.2006

@<TRIPOS>MOLECULE
ASD02398033
  83   88    0    0    0
SMALL
NO_CHARGES


@<TRIPOS>ATOM
   1 C1            -0.2269     1.4490    -0.0314 C.ar    
   2 C2             0.0233     0.0750    -0.1029 C.ar    
   3 C3            -1.0386    -0.8239    -0.0402 C.ar    
   4 C4            -2.3305    -0.3557     0.0919 C.ar    
   5 C5            -2.5750     1.0042     0.1623 C.ar    
   6 C6            -1.5279     1.9049     0.1064 C.ar    
   7 C7            -3.4787    -1.3294     0.1591 C.3     
   8 C8            -3.6628    -1.7916     1.5816 C.2     
   9 O9            -2.8802    -1.4465     2.4350 O.2     
  10 O10           -4.6963    -2.5866     1.9006 O.3     
  11 C11            1.4133    -0.4227    -0.2453 C.ar    
  12 C12            2.3197    -0.2761     0.8034 C.ar    
  13 C13            1.8162    -1.0437    -1.4258 C.ar    
  14 C14            3.1108    -1.5054    -1.5526 C.ar    
  15 C15            4.0074    -1.3525    -0.5107 C.ar    
  16 C16            3.6114    -0.7414     0.6656 C.ar    
  17 C17            1.8899     0.3898     2.0852 C.3     
  18 N18            2.9656     0.2855     3.0742 N.am    
  19 C19            4.0140     1.1140     3.1756 C.2     
  20 O20            4.8569     0.8012     4.1661 O.3     
  21 C21            4.3707    -0.3830     4.8620 C.3     
  22 C22            3.0677    -0.7418     4.1219 C.3     
  23 O23            4.1837     2.0623     2.4352 O.2     
  24 C24            3.1724    -2.1326     3.4928 C.3     
  25 C25            5.3702    -1.5058     4.7559 C.ar    
  26 C26            5.4871    -2.4263     5.7805 C.ar    
  27 C27            6.1662    -1.6185     3.6313 C.ar    
  28 C28            7.0831    -2.6485     3.5339 C.ar    
  29 C29            7.2042    -3.5654     4.5613 C.ar    
  30 C30            6.4040    -3.4562     5.6831 C.ar    
  31 O31            0.8025     2.3333    -0.0912 O.3     
  32 C32            0.4710     3.7211    -0.0121 C.3     
  33 C33            1.7308     4.5440    -0.0946 C.ar    
  34 C34            2.2027     4.9641    -1.3241 C.ar    
  35 C35            2.4115     4.8834     1.0597 C.ar    
  36 C36            3.5671     5.6383     0.9840 C.ar    
  37 C37            4.0423     6.0532    -0.2460 C.ar    
  38 C38            3.3583     5.7188    -1.3998 C.ar    
  39 C39           -4.8776    -2.8996     3.3068 C.3     
  40 C40           -6.0039    -3.8892     3.4599 C.ar    
  41 C41           -5.7301    -5.2422     3.5322 C.ar    
  42 C42           -6.7631    -6.1499     3.6726 C.ar    
  43 C43           -8.0700    -5.7045     3.7412 C.ar    
  44 C44           -8.3437    -4.3514     3.6698 C.ar    
  45 C45           -7.3103    -3.4434     3.5338 C.ar    
  46 C46            5.4194    -1.8591    -0.6550 C.3     
  47 F47            5.5801    -2.4387    -1.9181 F       
  48 F48            6.3141    -0.7929    -0.5139 F       
  49 F49            5.6748    -2.8160     0.3331 F       
  50 H50           -0.8515    -1.8861    -0.0952 H       
  51 H51           -3.5882     1.3635     0.2656 H       
  52 H52           -1.7249     2.9653     0.1619 H       
  53 H53           -4.3902    -0.8406    -0.1850 H       
  54 H54           -3.2646    -2.1881    -0.4771 H       
  55 H55            1.1168    -1.1640    -2.2399 H       
  56 H56            3.4241    -1.9872    -2.4670 H       
  57 H57            4.3157    -0.6247     1.4760 H       
  58 H58            1.6730     1.4407     1.8937 H       
  59 H59            0.9955    -0.1018     2.4679 H       
  60 H60            4.1620    -0.1534     5.9070 H       
  61 H61            2.2157    -0.6904     4.7999 H       
  62 H62            3.3871    -2.8672     4.2689 H       
  63 H63            2.2299    -2.3831     3.0061 H       
  64 H64            3.9750    -2.1382     2.7553 H       
  65 H65            4.8623    -2.3406     6.6573 H       
  66 H66            6.0716    -0.9021     2.8287 H       
  67 H67            7.7045    -2.7370     2.6551 H       
  68 H68            7.9203    -4.3703     4.4850 H       
  69 H69            6.4986    -4.1727     6.4857 H       
  70 H70           -0.1897     3.9845    -0.8380 H       
  71 H71           -0.0323     3.9210     0.9339 H       
  72 H72            1.6687     4.7023    -2.2256 H       
  73 H73            2.0402     4.5593     2.0207 H       
  74 H74            4.0984     5.9041     1.8859 H       
  75 H75            4.9449     6.6432    -0.3050 H       
  76 H76            3.7296     6.0430    -2.3608 H       
  77 H77           -3.9588    -3.3305     3.7045 H       
  78 H78           -5.1180    -1.9880     3.8539 H       
  79 H79           -4.7091    -5.5902     3.4786 H       
  80 H80           -6.5493    -7.2070     3.7284 H       
  81 H81           -8.8772    -6.4137     3.8502 H       
  82 H82           -9.3647    -4.0035     3.7231 H       
  83 H83           -7.5241    -2.3863     3.4780 H       
@<TRIPOS>BOND
   1    1    2 ar
   2    1   31 1
   3    1    6 ar
   4    2    3 ar
   5    2   11 1
   6    3    4 ar
   7    3   50 1
   8    4    5 ar
   9    4    7 1
  10    5    6 ar
  11    5   51 1
  12    6   52 1
  13    7    8 1
  14    7   53 1
  15    7   54 1
  16    8    9 2
  17    8   10 1
  18   10   39 1
  19   11   12 ar
  20   11   13 ar
  21   12   17 1
  22   12   16 ar
  23   13   14 ar
  24   13   55 1
  25   14   15 ar
  26   14   56 1
  27   15   16 ar
  28   15   46 1
  29   16   57 1
  30   17   18 1
  31   17   58 1
  32   17   59 1
  33   18   19 am
  34   18   22 1
  35   19   20 1
  36   19   23 2
  37   20   21 1
  38   21   22 1
  39   21   25 1
  40   21   60 1
  41   22   24 1
  42   22   61 1
  43   24   62 1
  44   24   63 1
  45   24   64 1
  46   25   26 ar
  47   25   27 ar
  48   26   30 ar
  49   26   65 1
  50   27   28 ar
  51   27   66 1
  52   28   29 ar
  53   28   67 1
  54   29   30 ar
  55   29   68 1
  56   30   69 1
  57   31   32 1
  58   32   33 1
  59   32   70 1
  60   32   71 1
  61   33   34 ar
  62   33   35 ar
  63   34   38 ar
  64   34   72 1
  65   35   36 ar
  66   35   73 1
  67   36   37 ar
  68   36   74 1
  69   37   38 ar
  70   37   75 1
  71   38   76 1
  72   39   40 1
  73   39   77 1
  74   39   78 1
  75   40   41 ar
  76   40   45 ar
  77   41   42 ar
  78   41   79 1
  79   42   43 ar
  80   42   80 1
  81   43   44 ar
  82   43   81 1
  83   44   45 ar
  84   44   82 1
  85   45   83 1
  86   46   47 1
  87   46   48 1
  88   46   49 1

#	End of record

