#	Name: ASD02198665
#	Creating user name:	WinNT
#	Creation time:	15. 06. 2019 20:19

#	Modifying user name:	WinNT
#	Modification time:	15. 06. 2019 20:19

#	Program:	/corina/corina34_cracker 3.40 0067  02.08.2006

@<TRIPOS>MOLECULE
ASD02198665
  41   43    0    0    0
SMALL
NO_CHARGES


@<TRIPOS>ATOM
   1 C1            -0.0163     1.3542     0.0095 C.2     
   2 C2             0.0021    -0.0041     0.0020 C.2     
   3 N3            -1.1536    -0.7145     0.0087 N.pl3   
   4 N4            -2.3144    -0.1713     0.0223 N.2     
   5 C5            -2.4770     1.1397     0.0312 C.2     
   6 C6            -1.2847     2.0007     0.0311 C.2     
   7 C7            -1.0744    -2.1104     0.0000 C.ar    
   8 C8            -1.6552    -4.2235    -0.9922 C.ar    
   9 C9            -0.9176    -4.8786    -0.0159 C.ar    
  10 C10           -0.2640    -4.1490     0.9698 C.ar    
  11 C11           -0.3420    -2.7714     0.9779 C.ar    
  12 C12           -3.8230     1.7263     0.0461 C.2     
  13 O13           -1.3786     3.2182     0.0391 O.2     
  14 C14           -1.7354    -2.8410    -0.9870 C.ar    
  15 O15           -3.9592     2.9316     0.0543 O.2     
  16 N16           -0.8366    -6.2776    -0.0208 N.pl3   
  17 N17           -1.4456    -7.1355    -0.9458 N.2     
  18 C18           -1.1408    -8.3670    -0.6241 C.2     
  19 C19           -0.3288    -8.3340     0.5150 C.2     
  20 C20           -0.1520    -7.0383     0.8632 C.2     
  21 C21           -5.0351     0.8309     0.0513 C.3     
  22 O22           -2.4573    -2.1974    -1.9416 O.3     
  23 C23           -3.1078    -3.0098    -2.9209 C.3     
  24 O24            1.1380     2.0723     0.0023 O.3     
  25 C25            2.3613     1.3339    -0.0133 C.3     
  26 H26            0.9482    -0.5247    -0.0098 H       
  27 H27           -2.1628    -4.7913    -1.7580 H       
  28 H28            0.3093    -4.6609     1.7284 H       
  29 H29            0.1672    -2.2066     1.7448 H       
  30 H30           -1.4612    -9.2557    -1.1474 H       
  31 H31            0.0867    -9.1910     1.0240 H       
  32 H32            0.4263    -6.6770     1.7006 H       
  33 H33           -5.0145     0.1966     0.9375 H       
  34 H34           -5.9379     1.4416     0.0626 H       
  35 H35           -5.0297     0.2069    -0.8423 H       
  36 H36           -2.3629    -3.5941    -3.4611 H       
  37 H37           -3.8091    -3.6825    -2.4272 H       
  38 H38           -3.6476    -2.3724    -3.6212 H       
  39 H39            2.4153     0.7014     0.8728 H       
  40 H40            2.3983     0.7110    -0.9071 H       
  41 H41            3.2034     2.0259    -0.0176 H       
@<TRIPOS>BOND
   1    1    2 2
   2    1   24 1
   3    1    6 1
   4    2    3 1
   5    2   26 1
   6    3    4 1
   7    3    7 1
   8    4    5 2
   9    5    6 1
  10    5   12 1
  11    6   13 2
  12    7   14 ar
  13    7   11 ar
  14    8    9 ar
  15    8   14 ar
  16    8   27 1
  17    9   10 ar
  18    9   16 1
  19   10   11 ar
  20   10   28 1
  21   11   29 1
  22   12   15 2
  23   12   21 1
  24   14   22 1
  25   16   17 1
  26   16   20 1
  27   17   18 2
  28   18   19 1
  29   18   30 1
  30   19   20 2
  31   19   31 1
  32   20   32 1
  33   21   33 1
  34   21   34 1
  35   21   35 1
  36   22   23 1
  37   23   36 1
  38   23   37 1
  39   23   38 1
  40   24   25 1
  41   25   39 1
  42   25   40 1
  43   25   41 1

#	End of record

