#	Name: ASD06140013
#	Creating user name:	WinNT
#	Creation time:	15. 06. 2019 21:05

#	Modifying user name:	WinNT
#	Modification time:	15. 06. 2019 21:05

#	Program:	/corina/corina34_cracker 3.40 0067  02.08.2006

@<TRIPOS>MOLECULE
ASD06140013
  34   35    0    0    0
SMALL
NO_CHARGES


@<TRIPOS>ATOM
   1 C1             0.5367     1.4949    -0.0844 C.ar    
   2 C2             0.4381     0.1164    -0.0621 C.ar    
   3 C3             1.5816    -0.6601    -0.0963 C.ar    
   4 C4             2.8244    -0.0588    -0.1529 C.ar    
   5 C5             2.9243     1.3222    -0.1758 C.ar    
   6 C6             1.7787     2.0987    -0.1414 C.ar    
   7 F7             4.1389     1.9113    -0.2307 F       
   8 C8             1.4725    -2.1630    -0.0715 C.3     
   9 S9             1.3619    -2.7880    -1.7665 S.3     
  10 C10            1.3924    -4.5221    -1.4558 C.2     
  11 N11            1.5910    -4.9857    -0.1843 N.pl3   
  12 C12            1.2138    -5.4236    -2.5081 C.2     
  13 C13            2.8783    -5.3282     0.2421 C.ar    
  14 C14            3.9702    -5.0922    -0.5823 C.ar    
  15 C15            3.0681    -5.9006     1.4948 C.ar    
  16 C16            4.3414    -6.2377     1.9124 C.ar    
  17 C17            5.4258    -6.0056     1.0858 C.ar    
  18 C18            5.2405    -5.4316    -0.1583 C.ar    
  19 Cl19           1.7074    -6.1911     2.5330 Cl      
  20 C20            1.2386    -6.8329    -2.2555 C.1     
  21 N21            1.2583    -7.9509    -2.0552 N.1     
  22 C22            1.0059    -4.9382    -3.8392 C.1     
  23 N23            0.8410    -4.5532    -4.8951 N.1     
  24 H24           -0.3573     2.1004    -0.0617 H       
  25 H25           -0.5328    -0.3545    -0.0175 H       
  26 H26            3.7174    -0.6655    -0.1790 H       
  27 H27            1.8554     3.1758    -0.1595 H       
  28 H28            2.3534    -2.5832     0.4140 H       
  29 H29            0.5794    -2.4533     0.4819 H       
  30 H30            0.8391    -5.0770     0.4216 H       
  31 H31            3.8267    -4.6439    -1.5543 H       
  32 H32            4.4901    -6.6824     2.8853 H       
  33 H33            6.4201    -6.2692     1.4148 H       
  34 H34            6.0895    -5.2522    -0.8012 H       
@<TRIPOS>BOND
   1    1    2 ar
   2    1    6 ar
   3    1   24 1
   4    2    3 ar
   5    2   25 1
   6    3    4 ar
   7    3    8 1
   8    4    5 ar
   9    4   26 1
  10    5    6 ar
  11    5    7 1
  12    6   27 1
  13    8    9 1
  14    8   28 1
  15    8   29 1
  16    9   10 1
  17   10   11 1
  18   10   12 2
  19   11   13 1
  20   11   30 1
  21   12   20 1
  22   12   22 1
  23   13   14 ar
  24   13   15 ar
  25   14   18 ar
  26   14   31 1
  27   15   16 ar
  28   15   19 1
  29   16   17 ar
  30   16   32 1
  31   17   18 ar
  32   17   33 1
  33   18   34 1
  34   20   21 3
  35   22   23 3

#	End of record

