#	Name: ASD01882695
#	Creating user name:	WinNT
#	Creation time:	15. 06. 2019 19:45

#	Modifying user name:	WinNT
#	Modification time:	15. 06. 2019 19:45

#	Program:	/corina/corina34_cracker 3.40 0067  02.08.2006

@<TRIPOS>MOLECULE
ASD01882695
  37   39    0    0    0
SMALL
NO_CHARGES


@<TRIPOS>ATOM
   1 O1            -0.0173     1.4248     0.0099 O.3     
   2 C2             0.0021    -0.0041     0.0020 C.3     
   3 C3             1.2831     0.8325    -0.0057 C.3     
   4 C4            -0.3680    -0.7292     1.2974 C.3     
   5 O5            -1.5561    -1.4961     1.0913 O.3     
   6 C6            -2.0238    -2.2062     2.1515 C.ar    
   7 C7            -3.1727    -2.9728     2.0218 C.ar    
   8 C8            -3.6462    -3.6936     3.1010 C.ar    
   9 C9            -2.9759    -3.6515     4.3096 C.ar    
  10 C10           -1.8308    -2.8879     4.4415 C.ar    
  11 C11           -1.3499    -2.1701     3.3636 C.ar    
  12 C12           -3.4945    -4.4389     5.4852 C.3     
  13 C13           -2.4309    -5.4419     5.9365 C.3     
  14 C14           -2.9575    -6.2412     7.1301 C.3     
  15 C15           -3.2792    -5.2863     8.2814 C.3     
  16 C16           -4.3428    -4.2834     7.8302 C.3     
  17 C17           -3.8162    -3.4840     6.6366 C.3     
  18 H18           -0.2792    -0.5108    -0.9211 H       
  19 H19            1.8523     0.8812    -0.9340 H       
  20 H20            1.8699     0.8713     0.9120 H       
  21 H21            0.4467    -1.3924     1.5881 H       
  22 H22           -0.5402     0.0024     2.0869 H       
  23 H23           -3.6969    -3.0057     1.0781 H       
  24 H24           -4.5408    -4.2903     3.0007 H       
  25 H25           -1.3094    -2.8561     5.3868 H       
  26 H26           -0.4527    -1.5777     3.4657 H       
  27 H27           -4.3983    -4.9741     5.1938 H       
  28 H28           -2.2017    -6.1221     5.1163 H       
  29 H29           -1.5272    -4.9066     6.2279 H       
  30 H30           -3.8612    -6.7765     6.8387 H       
  31 H31           -2.1997    -6.9558     7.4516 H       
  32 H32           -3.6543    -5.8558     9.1318 H       
  33 H33           -2.3755    -4.7511     8.5728 H       
  34 H34           -5.2465    -4.8186     7.5387 H       
  35 H35           -4.5720    -3.6031     8.6504 H       
  36 H36           -2.9125    -2.9488     6.9280 H       
  37 H37           -4.5740    -2.7695     6.3151 H       
@<TRIPOS>BOND
   1    1    2 1
   2    1    3 1
   3    2    3 1
   4    2    4 1
   5    2   18 1
   6    3   19 1
   7    3   20 1
   8    4    5 1
   9    4   21 1
  10    4   22 1
  11    5    6 1
  12    6    7 ar
  13    6   11 ar
  14    7    8 ar
  15    7   23 1
  16    8    9 ar
  17    8   24 1
  18    9   10 ar
  19    9   12 1
  20   10   11 ar
  21   10   25 1
  22   11   26 1
  23   12   13 1
  24   12   17 1
  25   12   27 1
  26   13   14 1
  27   13   28 1
  28   13   29 1
  29   14   15 1
  30   14   30 1
  31   14   31 1
  32   15   16 1
  33   15   32 1
  34   15   33 1
  35   16   17 1
  36   16   34 1
  37   16   35 1
  38   17   36 1
  39   17   37 1

#	End of record

