#	Name: ASD08150219
#	Creating user name:	WinNT
#	Creation time:	15. 06. 2019 21:15

#	Modifying user name:	WinNT
#	Modification time:	15. 06. 2019 21:15

#	Program:	/corina/corina34_cracker 3.40 0067  02.08.2006

@<TRIPOS>MOLECULE
ASD08150219
  52   56    0    0    0
SMALL
NO_CHARGES


@<TRIPOS>ATOM
   1 N1            -0.2035     1.4445     0.0474 N.2     
   2 C2            -0.3137     0.1565    -0.0740 C.2     
   3 N3             0.7545    -0.6769    -0.1983 N.am    
   4 C4             2.0152    -0.1846    -0.2007 C.2     
   5 C5             2.1740     1.2705    -0.0648 C.ar    
   6 C6             3.4286     1.8771    -0.0553 C.ar    
   7 C7             3.5199     3.2454     0.0753 C.ar    
   8 C8             2.3745     4.0215     0.1969 C.ar    
   9 C9             1.1258     3.4419     0.1899 C.ar    
  10 C10            1.0069     2.0567     0.0588 C.ar    
  11 O11            2.9803    -0.9184    -0.3106 O.2     
  12 C12            0.5477    -2.0564    -0.3244 C.ar    
  13 C13            0.5795    -2.8705     0.8003 C.ar    
  14 C14            0.1394    -4.7816    -0.5736 C.ar    
  15 C15            0.3049    -2.6121    -1.5734 C.ar    
  16 C16            0.3753    -4.2302     0.6727 C.ar    
  17 C17            0.1014    -3.9730    -1.6945 C.ar    
  18 C18            0.8371    -2.2706     2.1586 C.3     
  19 C19           -1.6951    -0.4460    -0.0771 C.3     
  20 C20           -2.6996     0.5787     0.4538 C.3     
  21 N21           -2.0598    -0.8243    -1.4446 N.pl3   
  22 N22           -2.9919    -1.7980    -4.2075 N.2     
  23 C23           -3.6452    -2.4910    -5.0944 C.2     
  24 N24           -4.4694    -3.3824    -4.4743 N.pl3   
  25 C25           -4.3065    -3.2209    -3.1216 C.ar    
  26 N26           -4.8262    -3.7904    -2.0392 N.ar    
  27 C27           -4.4566    -3.4058    -0.8356 C.ar    
  28 N28           -3.5664    -2.4506    -0.6389 N.ar    
  29 C29           -2.9923    -1.8237    -1.6607 C.ar    
  30 C30           -3.3542    -2.1995    -2.9654 C.ar    
  31 C31            4.6763     1.0422    -0.1863 C.3     
  32 H32            4.4906     3.7188     0.0834 H       
  33 H33            2.4646     5.0929     0.2987 H       
  34 H34            0.2423     4.0557     0.2856 H       
  35 H35           -0.0197    -5.8453    -0.6709 H       
  36 H36            0.2748    -1.9810    -2.4493 H       
  37 H37            0.4003    -4.8639     1.5469 H       
  38 H38           -0.0827    -4.4065    -2.6664 H       
  39 H39           -0.1133    -2.0668     2.6519 H       
  40 H40            1.4164    -2.9704     2.7609 H       
  41 H41            1.3944    -1.3408     2.0454 H       
  42 H42           -1.7071    -1.3304     0.5600 H       
  43 H43           -2.7526     1.4244    -0.2318 H       
  44 H44           -3.6827     0.1151     0.5355 H       
  45 H45           -2.3791     0.9266     1.4358 H       
  46 H46           -1.6478    -0.3741    -2.1986 H       
  47 H47           -3.5491    -2.3764    -6.1640 H       
  48 H48           -5.0624    -4.0147    -4.9095 H       
  49 H49           -4.8984    -3.8894     0.0231 H       
  50 H50            4.8701     0.8414    -1.2400 H       
  51 H51            5.5210     1.5815     0.2422 H       
  52 H52            4.5402     0.0997     0.3441 H       
@<TRIPOS>BOND
   1    1    2 2
   2    1   10 1
   3    2    3 1
   4    2   19 1
   5    3    4 am
   6    3   12 1
   7    4    5 1
   8    4   11 2
   9    5    6 ar
  10    5   10 ar
  11    6    7 ar
  12    6   31 1
  13    7    8 ar
  14    7   32 1
  15    8    9 ar
  16    8   33 1
  17    9   10 ar
  18    9   34 1
  19   12   13 ar
  20   12   15 ar
  21   13   16 ar
  22   13   18 1
  23   14   16 ar
  24   14   17 ar
  25   14   35 1
  26   15   17 ar
  27   15   36 1
  28   16   37 1
  29   17   38 1
  30   18   39 1
  31   18   40 1
  32   18   41 1
  33   19   20 1
  34   19   21 1
  35   19   42 1
  36   20   43 1
  37   20   44 1
  38   20   45 1
  39   21   29 1
  40   21   46 1
  41   22   23 2
  42   22   30 1
  43   23   24 1
  44   23   47 1
  45   24   25 1
  46   24   48 1
  47   25   26 ar
  48   25   30 ar
  49   26   27 ar
  50   27   28 ar
  51   27   49 1
  52   28   29 ar
  53   29   30 ar
  54   31   50 1
  55   31   51 1
  56   31   52 1

#	End of record

