#	Name: ASD01900295
#	Creating user name:	WinNT
#	Creation time:	15. 06. 2019 19:51

#	Modifying user name:	WinNT
#	Modification time:	15. 06. 2019 19:51

#	Program:	/corina/corina34_cracker 3.40 0067  02.08.2006

@<TRIPOS>MOLECULE
ASD01900295
  42   44    0    0    0
SMALL
NO_CHARGES


@<TRIPOS>ATOM
   1 C1            -0.0168     1.3891     0.0097 C.ar    
   2 C2             0.0021    -0.0041     0.0020 C.ar    
   3 C3             1.2224    -0.6606    -0.0132 C.ar    
   4 C4             2.3820     0.0992    -0.0202 C.ar    
   5 C5             2.2884     1.4815    -0.0119 C.ar    
   6 N6             1.1169     2.0792     0.0026 N.ar    
   7 C7            -1.3131     2.1060     0.0197 C.2     
   8 O8            -2.3544     1.4790     0.0212 O.2     
   9 N9            -1.3378     3.4535     0.0271 N.am    
  10 C10            3.7312    -0.5720    -0.0363 C.3     
  11 N11           -4.0866     5.7298     0.0525 N.am    
  12 C12           -2.7427     5.4762     0.0448 C.2     
  13 C13           -2.5683     4.1341     0.0367 C.2     
  14 C14           -3.8517     3.5436     0.0395 C.2     
  15 C15           -4.7569     4.5428     0.0492 C.2     
  16 S16           -4.7846     7.2314     0.0702 S.o2    
  17 O17           -6.0517     7.0218     0.6783 O.2     
  18 O18           -3.8082     8.0645     0.6800 O.2     
  19 C19           -4.9821     7.6594    -1.6815 C.3     
  20 C20           -5.6154     9.0219    -1.7974 C.ar    
  21 C21           -4.8199    10.1514    -1.8497 C.ar    
  22 C22           -5.4001    11.4013    -1.9560 C.ar    
  23 C23           -6.7773    11.5221    -2.0100 C.ar    
  24 C24           -7.5729    10.3914    -1.9576 C.ar    
  25 C25           -6.9913     9.1416    -1.8570 C.ar    
  26 Cl26          -7.5068    13.0917    -2.1429 Cl      
  27 H27           -0.9212    -0.5644     0.0082 H       
  28 H28            1.2690    -1.7395    -0.0191 H       
  29 H29            3.1898     2.0763    -0.0170 H       
  30 H30           -0.5068     3.9539     0.0259 H       
  31 H31            4.0468    -0.7286    -1.0678 H       
  32 H32            4.4577     0.0604     0.4740 H       
  33 H33            3.6649    -1.5332     0.4733 H       
  34 H34           -1.9574     6.2177     0.0448 H       
  35 H35           -4.0681     2.4856     0.0351 H       
  36 H36           -5.8302     4.4231     0.0537 H       
  37 H37           -4.0054     7.6703    -2.1652 H       
  38 H38           -5.6196     6.9200    -2.1665 H       
  39 H39           -3.7449    10.0570    -1.8071 H       
  40 H40           -4.7786    12.2836    -1.9965 H       
  41 H41           -8.6480    10.4850    -1.9998 H       
  42 H42           -7.6121     8.2586    -1.8206 H       
@<TRIPOS>BOND
   1    1    2 ar
   2    1    6 ar
   3    1    7 1
   4    2    3 ar
   5    2   27 1
   6    3    4 ar
   7    3   28 1
   8    4    5 ar
   9    4   10 1
  10    5    6 ar
  11    5   29 1
  12    7    8 2
  13    7    9 am
  14    9   13 1
  15    9   30 1
  16   10   31 1
  17   10   32 1
  18   10   33 1
  19   11   12 1
  20   11   15 1
  21   11   16 am
  22   12   13 2
  23   12   34 1
  24   13   14 1
  25   14   15 2
  26   14   35 1
  27   15   36 1
  28   16   17 2
  29   16   18 2
  30   16   19 1
  31   19   20 1
  32   19   37 1
  33   19   38 1
  34   20   21 ar
  35   20   25 ar
  36   21   22 ar
  37   21   39 1
  38   22   23 ar
  39   22   40 1
  40   23   24 ar
  41   23   26 1
  42   24   25 ar
  43   24   41 1
  44   25   42 1

#	End of record

