#	Name: ASD08150249
#	Creating user name:	WinNT
#	Creation time:	15. 06. 2019 21:15

#	Modifying user name:	WinNT
#	Modification time:	15. 06. 2019 21:15

#	Program:	/corina/corina34_cracker 3.40 0067  02.08.2006

@<TRIPOS>MOLECULE
ASD08150249
  52   56    0    0    0
SMALL
NO_CHARGES


@<TRIPOS>ATOM
   1 N1            -0.0157     1.2952    -0.0517 N.2     
   2 C2             0.0018    -0.0026    -0.0878 C.2     
   3 N3             1.1485    -0.7346    -0.1052 N.am    
   4 C4             2.3559    -0.1234    -0.0850 C.2     
   5 C5             2.3702     1.3460    -0.0441 C.ar    
   6 C6             3.5601     2.0709    -0.0203 C.ar    
   7 C7             3.5158     3.4472     0.0183 C.ar    
   8 C8             2.2979     4.1146     0.0337 C.ar    
   9 C9             1.1111     3.4173     0.0107 C.ar    
  10 C10            1.1296     2.0215    -0.0285 C.ar    
  11 O11            3.3900    -0.7656    -0.0998 O.2     
  12 C12            1.0789    -2.1329    -0.1439 C.ar    
  13 C13            1.0414    -2.8608     1.0384 C.ar    
  14 C14            0.9415    -4.8953    -0.2203 C.ar    
  15 C15            1.0415    -2.7941    -1.3642 C.ar    
  16 C16            0.9729    -4.2393     0.9969 C.ar    
  17 C17            0.9729    -4.1733    -1.3990 C.ar    
  18 C18            1.0761    -2.1468     2.3651 C.3     
  19 C19           -1.3149    -0.7353    -0.1111 C.3     
  20 N20           -3.9983     1.5255     0.6771 N.2     
  21 C21           -3.0837     0.6652     1.0192 C.2     
  22 N22           -2.4134     0.2336    -0.0866 N.pl3   
  23 C23           -2.9560     0.8734    -1.1722 C.ar    
  24 N24           -2.7254     0.8607    -2.4809 N.ar    
  25 C25           -3.4379     1.6108    -3.2951 C.ar    
  26 N26           -4.4031     2.4034    -2.8663 N.ar    
  27 C27           -4.7059     2.4826    -1.5746 C.ar    
  28 C28           -3.9732     1.7003    -0.6660 C.ar    
  29 N29           -5.7188     3.3166    -1.1346 N.pl3   
  30 C30           -6.4716     4.1252    -2.0967 C.3     
  31 C31            4.8858     1.3543    -0.0362 C.3     
  32 H32            4.4361     4.0122     0.0372 H       
  33 H33            2.2816     5.1940     0.0644 H       
  34 H34            0.1701     3.9473     0.0234 H       
  35 H35            0.8882    -5.9736    -0.2501 H       
  36 H36            1.0656    -2.2306    -2.2852 H       
  37 H37            0.9440    -4.8059     1.9159 H       
  38 H38            0.9487    -4.6884    -2.3479 H       
  39 H39            0.0580    -1.9233     2.6841 H       
  40 H40            1.5580    -2.7829     3.1075 H       
  41 H41            1.6372    -1.2179     2.2633 H       
  42 H42           -1.3804    -1.3360    -1.0183 H       
  43 H43           -1.3844    -1.3855     0.7610 H       
  44 H44           -2.8849     0.3412     2.0301 H       
  45 H45           -3.2248     1.5768    -4.3533 H       
  46 H46           -5.9304     3.3657    -0.1893 H       
  47 H47           -5.7894     4.7938    -2.6218 H       
  48 H48           -6.9635     3.4701    -2.8158 H       
  49 H49           -7.2220     4.7134    -1.5685 H       
  50 H50            5.1535     1.1083    -1.0638 H       
  51 H51            5.6522     1.9986     0.3945 H       
  52 H52            4.8105     0.4379     0.5490 H       
@<TRIPOS>BOND
   1    1    2 2
   2    1   10 1
   3    2    3 1
   4    2   19 1
   5    3    4 am
   6    3   12 1
   7    4    5 1
   8    4   11 2
   9    5    6 ar
  10    5   10 ar
  11    6    7 ar
  12    6   31 1
  13    7    8 ar
  14    7   32 1
  15    8    9 ar
  16    8   33 1
  17    9   10 ar
  18    9   34 1
  19   12   13 ar
  20   12   15 ar
  21   13   16 ar
  22   13   18 1
  23   14   16 ar
  24   14   17 ar
  25   14   35 1
  26   15   17 ar
  27   15   36 1
  28   16   37 1
  29   17   38 1
  30   18   39 1
  31   18   40 1
  32   18   41 1
  33   19   22 1
  34   19   42 1
  35   19   43 1
  36   20   21 2
  37   20   28 1
  38   21   22 1
  39   21   44 1
  40   22   23 1
  41   23   24 ar
  42   23   28 ar
  43   24   25 ar
  44   25   26 ar
  45   25   45 1
  46   26   27 ar
  47   27   28 ar
  48   27   29 1
  49   29   30 1
  50   29   46 1
  51   30   47 1
  52   30   48 1
  53   30   49 1
  54   31   50 1
  55   31   51 1
  56   31   52 1

#	End of record

