#	Name: ASD05153005
#	Creating user name:	WinNT
#	Creation time:	15. 06. 2019 20:57

#	Modifying user name:	WinNT
#	Modification time:	15. 06. 2019 20:57

#	Program:	/corina/corina34_cracker 3.40 0067  02.08.2006

@<TRIPOS>MOLECULE
ASD05153005
  84   87    0    0    0
SMALL
NO_CHARGES


@<TRIPOS>ATOM
   1 C1            -0.0144     1.2086     0.0087 C.2     
   2 O2             0.0021    -0.0041     0.0020 O.2     
   3 N3            -2.4323     1.0474    -0.4004 N.3     
   4 C4            -1.3294     1.9442     0.0315 C.3     
   5 C5            -1.6971     2.3451     1.4762 C.3     
   6 C6            -3.2269     2.1671     1.5646 C.3     
   7 C7            -3.6548     1.6736     0.1658 C.3     
   8 C8             2.5018     0.3246    -1.2506 C.2     
   9 O9             1.4887     0.0188    -1.8431 O.2     
  10 N10            1.1435     1.8983     0.0013 N.am    
  11 C11            2.4220     1.1832    -0.0147 C.3     
  12 C12            2.5269     0.2980     1.2288 C.3     
  13 C13            2.5707     1.1653     2.4605 C.ar    
  14 C14            1.3964     1.5219     3.0968 C.ar    
  15 C15            1.4365     2.3175     4.2266 C.ar    
  16 C16            2.6509     2.7561     4.7203 C.ar    
  17 C17            3.8252     2.3987     4.0845 C.ar    
  18 C18            3.7854     1.5996     2.9572 C.ar    
  19 C19            5.0352    -1.7661    -2.8551 C.2     
  20 O20            5.7927    -1.6685    -1.9130 O.2     
  21 N21            3.6991    -0.1036    -1.6976 N.am    
  22 C22            3.7767    -0.9382    -2.8990 C.3     
  23 C23            3.7973    -0.0443    -4.1406 C.3     
  24 C24            2.4673     0.7037    -4.2526 C.3     
  25 C25            2.4880     1.5976    -5.4941 C.3     
  26 N26            1.2145     2.3138    -5.6014 N.pl3   
  27 C27            0.9999     3.1819    -6.6457 C.2     
  28 N28            1.9295     3.3677    -7.5403 N.2     
  29 N29           -0.1952     3.8541    -6.7463 N.pl3   
  30 C30            7.6926    -2.6144    -4.3671 C.2     
  31 O31            7.5094    -1.4842    -4.7530 O.2     
  32 N32            5.3189    -2.6149    -3.8628 N.am    
  33 C33            6.5423    -3.4197    -3.8202 C.3     
  34 C34            6.3536    -4.6799    -4.6671 C.3     
  35 C35            5.2855    -5.5451    -4.0494 C.2     
  36 C36            5.4781    -6.5712    -3.2057 C.2     
  37 N37            4.2743    -7.1187    -2.8544 N.pl3   
  38 C38            3.2515    -6.4409    -3.4793 C.ar    
  39 C39            1.8675    -6.5777    -3.4724 C.ar    
  40 C40            1.0914    -5.7210    -4.2223 C.ar    
  41 C41            1.6768    -4.7209    -4.9861 C.ar    
  42 C42            3.0347    -4.5688    -5.0078 C.ar    
  43 C43            3.8397    -5.4217    -4.2507 C.ar    
  44 O44            8.9209    -3.1528    -4.4256 O.3     
  45 H45           -2.4846     0.9974    -1.4068 H       
  46 H46           -1.2826     2.8249    -0.6091 H       
  47 H47           -1.1979     1.6896     2.1897 H       
  48 H48           -1.4256     3.3844     1.6615 H       
  49 H49           -3.4785     1.4242     2.3215 H       
  50 H50           -3.7062     3.1189     1.7932 H       
  51 H51           -3.9732     2.5129    -0.4525 H       
  52 H52           -4.4544     0.9377     0.2505 H       
  53 H53            1.1304     2.8682     0.0067 H       
  54 H54            3.2408     1.9027    -0.0187 H       
  55 H55            1.6606    -0.3615     1.2795 H       
  56 H56            3.4363    -0.3003     1.1733 H       
  57 H57            0.4476     1.1792     2.7111 H       
  58 H58            0.5191     2.5966     4.7233 H       
  59 H59            2.6823     3.3782     5.6025 H       
  60 H60            4.7740     2.7417     4.4700 H       
  61 H61            4.7031     1.3174     2.4626 H       
  62 H62            4.5094     0.1410    -1.2238 H       
  63 H63            2.9095    -1.5973    -2.9402 H       
  64 H64            4.6125     0.6744    -4.0573 H       
  65 H65            3.9443    -0.6592    -5.0286 H       
  66 H66            1.6521    -0.0151    -4.3359 H       
  67 H67            2.3204     1.3185    -3.3646 H       
  68 H68            3.3032     2.3163    -5.4109 H       
  69 H69            2.6349     0.9828    -6.3821 H       
  70 H70            0.5227     2.1756    -4.9356 H       
  71 H71            1.7781     3.9802    -8.2771 H       
  72 H72           -0.8869     3.7158    -6.0806 H       
  73 H73           -0.3466     4.4666    -7.4831 H       
  74 H74            4.7130    -2.6930    -4.6163 H       
  75 H75            6.7549    -3.7033    -2.7894 H       
  76 H76            6.0539    -4.3977    -5.6765 H       
  77 H77            7.2913    -5.2339    -4.7081 H       
  78 H78            6.4407    -6.9142    -2.8563 H       
  79 H79            4.1586    -7.8721    -2.2544 H       
  80 H80            1.4026    -7.3531    -2.8816 H       
  81 H81            0.0169    -5.8291    -4.2160 H       
  82 H82            1.0541    -4.0577    -5.5683 H       
  83 H83            3.4832    -3.7885    -5.6048 H       
  84 H84            9.6268    -2.5977    -4.7842 H       
@<TRIPOS>BOND
   1    1    2 2
   2    1   10 am
   3    1    4 1
   4    3    4 1
   5    3    7 1
   6    3   45 1
   7    4    5 1
   8    4   46 1
   9    5    6 1
  10    5   47 1
  11    5   48 1
  12    6    7 1
  13    6   49 1
  14    6   50 1
  15    7   51 1
  16    7   52 1
  17    8    9 2
  18    8   11 1
  19    8   21 am
  20   10   11 1
  21   10   53 1
  22   11   12 1
  23   11   54 1
  24   12   13 1
  25   12   55 1
  26   12   56 1
  27   13   14 ar
  28   13   18 ar
  29   14   15 ar
  30   14   57 1
  31   15   16 ar
  32   15   58 1
  33   16   17 ar
  34   16   59 1
  35   17   18 ar
  36   17   60 1
  37   18   61 1
  38   19   20 2
  39   19   22 1
  40   19   32 am
  41   21   22 1
  42   21   62 1
  43   22   23 1
  44   22   63 1
  45   23   24 1
  46   23   64 1
  47   23   65 1
  48   24   25 1
  49   24   66 1
  50   24   67 1
  51   25   26 1
  52   25   68 1
  53   25   69 1
  54   26   27 1
  55   26   70 1
  56   27   28 2
  57   27   29 1
  58   28   71 1
  59   29   72 1
  60   29   73 1
  61   30   31 2
  62   30   33 1
  63   30   44 1
  64   32   33 1
  65   32   74 1
  66   33   34 1
  67   33   75 1
  68   34   35 1
  69   34   76 1
  70   34   77 1
  71   35   36 2
  72   35   43 1
  73   36   37 1
  74   36   78 1
  75   37   38 1
  76   37   79 1
  77   38   39 ar
  78   38   43 ar
  79   39   40 ar
  80   39   80 1
  81   40   41 ar
  82   40   81 1
  83   41   42 ar
  84   41   82 1
  85   42   43 ar
  86   42   83 1
  87   44   84 1

#	End of record

