#	Name: ASD00311321
#	Creating user name:	WinNT
#	Creation time:	15. 06. 2019 18:34

#	Modifying user name:	WinNT
#	Modification time:	15. 06. 2019 18:34

#	Program:	/corina/corina34_cracker 3.40 0067  02.08.2006

@<TRIPOS>MOLECULE
ASD00311321
  36   39    0    0    0
SMALL
NO_CHARGES


@<TRIPOS>ATOM
   1 C1            -0.0167     1.3780     0.0096 C.2     
   2 C2             0.0021    -0.0041     0.0020 C.2     
   3 C3             1.2589    -0.6766    -0.0131 C.2     
   4 C4             2.4315     0.0675    -0.0199 C.2     
   5 C5             2.3574     1.4754    -0.0117 C.2     
   6 N6             1.1649     2.0906     0.0022 N.am    
   7 C7            -1.3431    -0.5749     0.0118 C.2     
   8 C8            -2.3221     0.3255     0.0260 C.2     
   9 S9            -1.6795     1.9560     0.0358 S.3     
  10 O10            3.3823     2.1375    -0.0171 O.2     
  11 C11            3.7477    -0.6117    -0.0352 C.ar    
  12 C12            4.5939    -0.4743    -1.1354 C.ar    
  13 C13            5.8189    -1.1091    -1.1435 C.ar    
  14 C14            6.2083    -1.8810    -0.0635 C.ar    
  15 C15            5.3734    -2.0212     1.0307 C.ar    
  16 C16            4.1484    -1.3867     1.0531 C.ar    
  17 O17            1.3089    -2.0290    -0.0204 O.3     
  18 C18           -1.5955    -2.0356     0.0063 C.ar    
  19 C19           -1.2014    -2.8188     1.0932 C.ar    
  20 C20           -1.4394    -4.1797     1.0824 C.ar    
  21 C21           -2.0672    -4.7662    -0.0045 C.ar    
  22 C22           -2.4596    -3.9925    -1.0844 C.ar    
  23 C23           -2.2321    -2.6311    -1.0809 C.ar    
  24 F24           -2.2971    -6.0975    -0.0113 F       
  25 F25           -0.5884    -2.2471     2.1528 F       
  26 H26            1.1327     3.0601     0.0077 H       
  27 H27           -3.3747     0.0836     0.0344 H       
  28 H28            4.2906     0.1275    -1.9794 H       
  29 H29            6.4750    -1.0034    -1.9948 H       
  30 H30            7.1679    -2.3766    -0.0747 H       
  31 H31            5.6828    -2.6254     1.8707 H       
  32 H32            3.4994    -1.4931     1.9097 H       
  33 H33            2.2062    -2.3894    -0.0307 H       
  34 H34           -1.1353    -4.7871     1.9220 H       
  35 H35           -2.9483    -4.4549    -1.9293 H       
  36 H36           -2.5431    -2.0288    -1.9217 H       
@<TRIPOS>BOND
   1    1    2 2
   2    1    6 1
   3    1    9 1
   4    2    3 1
   5    2    7 1
   6    3    4 2
   7    3   17 1
   8    4    5 1
   9    4   11 1
  10    5    6 am
  11    5   10 2
  12    6   26 1
  13    7    8 2
  14    7   18 1
  15    8    9 1
  16    8   27 1
  17   11   12 ar
  18   11   16 ar
  19   12   13 ar
  20   12   28 1
  21   13   14 ar
  22   13   29 1
  23   14   15 ar
  24   14   30 1
  25   15   16 ar
  26   15   31 1
  27   16   32 1
  28   17   33 1
  29   18   19 ar
  30   18   23 ar
  31   19   20 ar
  32   19   25 1
  33   20   21 ar
  34   20   34 1
  35   21   22 ar
  36   21   24 1
  37   22   23 ar
  38   22   35 1
  39   23   36 1

#	End of record

