#	Name: ASD01870102
#	Creating user name:	WinNT
#	Creation time:	15. 06. 2019 19:38

#	Modifying user name:	WinNT
#	Modification time:	15. 06. 2019 19:38

#	Program:	/corina/corina34_cracker 3.40 0067  02.08.2006

@<TRIPOS>MOLECULE
ASD01870102
  28   29    0    0    0
SMALL
NO_CHARGES


@<TRIPOS>ATOM
   1 C1            -0.0181     1.4706     0.0140 C.2     
   2 C2             0.0016    -0.0044     0.0106 C.ar    
   3 C3             1.2225    -0.6930    -0.0008 C.ar    
   4 C4             1.2298    -2.0795    -0.0033 C.ar    
   5 C5             0.0387    -2.7784     0.0053 C.ar    
   6 C6            -1.1709    -2.1019     0.0165 C.ar    
   7 C7            -1.1963    -0.7228     0.0246 C.ar    
   8 O8             1.0268     2.0925     0.0069 O.2     
   9 N9            -1.1941     2.1288     0.0193 N.am    
  10 O10            2.3922    -0.0056    -0.0097 O.3     
  11 C11           -1.2149     3.5229     0.1325 C.ar    
  12 C12           -0.2685     4.1691     0.9128 C.ar    
  13 C13           -0.2935     5.5596     1.0225 C.ar    
  14 C14           -1.2720     6.2911     0.3453 C.ar    
  15 C15           -2.2092     5.6381    -0.4286 C.ar    
  16 C16           -2.1807     4.2605    -0.5416 C.ar    
  17 C17            0.6802     6.2346     1.8268 C.1     
  18 N18            1.4526     6.7701     2.4648 N.1     
  19 Cl19          -2.6602    -2.9939     0.0267 Cl      
  20 H20            2.1684    -2.6137    -0.0124 H       
  21 H21            0.0499    -3.8583     0.0029 H       
  22 H22           -2.1408    -0.1993     0.0375 H       
  23 H23           -2.0262     1.6359    -0.0554 H       
  24 H24            2.7388     0.1924     0.8711 H       
  25 H25            0.4854     3.5979     1.4343 H       
  26 H26           -1.2951     7.3677     0.4278 H       
  27 H27           -2.9651     6.2054    -0.9511 H       
  28 H28           -2.9143     3.7554    -1.1525 H       
@<TRIPOS>BOND
   1    1    2 1
   2    1    8 2
   3    1    9 am
   4    2    3 ar
   5    2    7 ar
   6    3    4 ar
   7    3   10 1
   8    4    5 ar
   9    4   20 1
  10    5    6 ar
  11    5   21 1
  12    6    7 ar
  13    6   19 1
  14    7   22 1
  15    9   11 1
  16    9   23 1
  17   10   24 1
  18   11   12 ar
  19   11   16 ar
  20   12   13 ar
  21   12   25 1
  22   13   14 ar
  23   13   17 1
  24   14   15 ar
  25   14   26 1
  26   15   16 ar
  27   15   27 1
  28   16   28 1
  29   17   18 3

#	End of record

