#	Name: ASD07300834
#	Creating user name:	WinNT
#	Creation time:	15. 06. 2019 21:10

#	Modifying user name:	WinNT
#	Modification time:	15. 06. 2019 21:10

#	Program:	/corina/corina34_cracker 3.40 0067  02.08.2006

@<TRIPOS>MOLECULE
ASD07300834
  50   54    0    0    0
SMALL
NO_CHARGES


@<TRIPOS>ATOM
   1 N1            -0.3332     1.4203     0.5595 N.am    
   2 C2            -0.1418     0.0778     0.5119 C.2     
   3 N3             1.0247    -0.4662     0.3236 N.2     
   4 C4             2.1335     0.2727     0.1610 C.2     
   5 C5             2.0342     1.6725     0.1946 C.2     
   6 C6             0.7138     2.2648     0.4079 C.2     
   7 N7             3.4440    -0.0183    -0.0464 N.pl3   
   8 N8             4.1526     1.1861    -0.1407 N.2     
   9 C9             3.3292     2.1880     0.0002 C.2     
  10 O10            0.5619     3.4730     0.4469 O.2     
  11 C11            4.0180    -1.3620    -0.1526 C.3     
  12 C12            4.7512    -1.5017    -1.4902 C.3     
  13 C13            5.4138    -2.8801    -1.5585 C.3     
  14 O14            6.3045    -3.0344    -0.4518 O.3     
  15 C15            5.6670    -2.9604     0.8250 C.3     
  16 C16            5.0145    -1.5852     0.9891 C.3     
  17 C17           -1.3359    -0.8249     0.6856 C.3     
  18 C18           -2.1190    -1.0677    -0.6154 C.3     
  19 C19           -2.2686    -2.5289    -0.1600 C.3     
  20 C20           -0.9852    -2.3219     0.6614 C.3     
  21 C21           -1.2858    -0.9058    -1.8607 C.2     
  22 O22           -1.4502     0.0436    -2.7915 O.3     
  23 C23           -0.5150    -0.1472    -3.7427 C.2     
  24 C24            0.2101    -1.2167    -3.3753 C.2     
  25 N25           -0.2836    -1.6625    -2.2066 N.2     
  26 C26           -0.3196     0.6829    -4.9852 C.3     
  27 C27            1.3714    -1.8066    -4.1331 C.3     
  28 H28           -1.2247     1.7764     0.6989 H       
  29 H29            3.5957     3.2343    -0.0276 H       
  30 H30            3.2220    -2.1043    -0.0938 H       
  31 H31            4.0386    -1.3991    -2.3086 H       
  32 H32            5.5135    -0.7268    -1.5704 H       
  33 H33            4.6474    -3.6542    -1.5190 H       
  34 H34            5.9727    -2.9690    -2.4901 H       
  35 H35            4.9039    -3.7355     0.8957 H       
  36 H36            6.4083    -3.1071     1.6105 H       
  37 H37            5.7822    -0.8120     0.9590 H       
  38 H38            4.4903    -1.5423     1.9438 H       
  39 H39           -1.9659    -0.5362     1.5270 H       
  40 H40           -3.0639    -0.5265    -0.6638 H       
  41 H41           -3.1538    -2.7075     0.4505 H       
  42 H42           -2.1579    -3.2517    -0.9684 H       
  43 H43           -0.0726    -2.5477     0.1098 H       
  44 H44           -1.0148    -2.7933     1.6438 H       
  45 H45           -1.0042     1.5308    -4.9671 H       
  46 H46            0.7075     1.0459    -5.0219 H       
  47 H47           -0.5208     0.0722    -5.8654 H       
  48 H48            2.2964    -1.3289    -3.8101 H       
  49 H49            1.4274    -2.8773    -3.9363 H       
  50 H50            1.2304    -1.6405    -5.2011 H       
@<TRIPOS>BOND
   1    1    2 1
   2    1    6 am
   3    1   28 1
   4    2    3 2
   5    2   17 1
   6    3    4 1
   7    4    5 2
   8    4    7 1
   9    5    6 1
  10    5    9 1
  11    6   10 2
  12    7    8 1
  13    7   11 1
  14    8    9 2
  15    9   29 1
  16   11   12 1
  17   11   16 1
  18   11   30 1
  19   12   13 1
  20   12   31 1
  21   12   32 1
  22   13   14 1
  23   13   33 1
  24   13   34 1
  25   14   15 1
  26   15   16 1
  27   15   35 1
  28   15   36 1
  29   16   37 1
  30   16   38 1
  31   17   18 1
  32   17   20 1
  33   17   39 1
  34   18   19 1
  35   18   21 1
  36   18   40 1
  37   19   20 1
  38   19   41 1
  39   19   42 1
  40   20   43 1
  41   20   44 1
  42   21   22 1
  43   21   25 2
  44   22   23 1
  45   23   24 2
  46   23   26 1
  47   24   25 1
  48   24   27 1
  49   26   45 1
  50   26   46 1
  51   26   47 1
  52   27   48 1
  53   27   49 1
  54   27   50 1

#	End of record

