#	Name: ASD01940669
#	Creating user name:	WinNT
#	Creation time:	15. 06. 2019 20:12

#	Modifying user name:	WinNT
#	Modification time:	15. 06. 2019 20:12

#	Program:	/corina/corina34_cracker 3.40 0067  02.08.2006

@<TRIPOS>MOLECULE
ASD01940669
  39   41    0    0    0
SMALL
NO_CHARGES


@<TRIPOS>ATOM
   1 C1             0.6155     0.4213    -1.4286 C.ar    
   2 C2            -0.0617    -0.1014    -0.3423 C.ar    
   3 C3             0.4731     0.0087     0.9300 C.ar    
   4 C4             1.6898     0.6439     1.1205 C.ar    
   5 C5             2.3743     1.1706     0.0333 C.ar    
   6 C6             1.8340     1.0581    -1.2467 C.ar    
   7 N7             2.5207     1.5874    -2.3476 N.am    
   8 S8             1.6823     2.0773    -3.6890 S.o2    
   9 C9             0.7553     3.5352    -3.1359 C.3     
  10 O10            2.6921     2.4508    -4.6164 O.2     
  11 O11            0.7985     0.9989    -3.9630 O.2     
  12 F12           -0.1928    -0.5038     1.9879 F       
  13 F13            2.2094     0.7509     2.3629 F       
  14 N14            3.6052     1.8142     0.2225 N.pl3   
  15 C15            4.7974     1.1088     0.0416 C.ar    
  16 C16            6.0128     1.7026     0.3596 C.ar    
  17 C17            4.7698    -0.1897    -0.4512 C.ar    
  18 C18            5.9502    -0.8846    -0.6290 C.ar    
  19 C19            7.1590    -0.2888    -0.3164 C.ar    
  20 C20            7.1894     1.0028     0.1796 C.ar    
  21 C21            6.0467     3.1090     0.8998 C.3     
  22 Br22           8.7727    -1.2439    -0.5608 Br      
  23 C23           -0.2251     4.1666    -4.1264 C.3     
  24 C24           -0.7520     3.3765    -2.9268 C.3     
  25 H25            0.1974     0.3296    -2.4202 H       
  26 H26           -1.0106    -0.5966    -0.4866 H       
  27 H27            3.4872     1.6669    -2.3239 H       
  28 H28            1.2897     4.2040    -2.4611 H       
  29 H29            3.6291     2.7494     0.4790 H       
  30 H30            3.8264    -0.6556    -0.6947 H       
  31 H31            5.9294    -1.8941    -1.0121 H       
  32 H32            8.1346     1.4652     0.4227 H       
  33 H33            5.9832     3.0820     1.9876 H       
  34 H34            6.9783     3.5902     0.6021 H       
  35 H35            5.2032     3.6720     0.5005 H       
  36 H36           -0.3360     5.2507    -4.1030 H       
  37 H37           -0.3131     3.7060    -5.1104 H       
  38 H38           -1.1867     2.3961    -3.1216 H       
  39 H39           -1.2096     3.9408    -2.1142 H       
@<TRIPOS>BOND
   1    1    2 ar
   2    1    6 ar
   3    1   25 1
   4    2    3 ar
   5    2   26 1
   6    3    4 ar
   7    3   12 1
   8    4    5 ar
   9    4   13 1
  10    5    6 ar
  11    5   14 1
  12    6    7 1
  13    7    8 am
  14    7   27 1
  15    8    9 1
  16    8   10 2
  17    8   11 2
  18    9   23 1
  19    9   24 1
  20    9   28 1
  21   14   15 1
  22   14   29 1
  23   15   16 ar
  24   15   17 ar
  25   16   21 1
  26   16   20 ar
  27   17   18 ar
  28   17   30 1
  29   18   19 ar
  30   18   31 1
  31   19   20 ar
  32   19   22 1
  33   20   32 1
  34   21   33 1
  35   21   34 1
  36   21   35 1
  37   23   24 1
  38   23   36 1
  39   23   37 1
  40   24   38 1
  41   24   39 1

#	End of record

