#	Name: ASD01914001
#	Creating user name:	WinNT
#	Creation time:	15. 06. 2019 20:02

#	Modifying user name:	WinNT
#	Modification time:	15. 06. 2019 20:02

#	Program:	/corina/corina34_cracker 3.40 0067  02.08.2006

@<TRIPOS>MOLECULE
ASD01914001
  51   53    0    0    0
SMALL
NO_CHARGES


@<TRIPOS>ATOM
   1 C1            -0.0167     1.3780     0.0096 C.ar    
   2 C2             0.0021    -0.0041     0.0020 C.ar    
   3 C3             1.2075    -0.6818    -0.0132 C.ar    
   4 C4             2.3801     1.4120    -0.0131 C.ar    
   5 C5             1.1697     2.0873     0.0021 C.ar    
   6 O6             3.5481     2.1078    -0.0201 O.3     
   7 C7             3.4540     3.5336    -0.0110 C.3     
   8 C8             4.8385     4.1286    -0.0206 C.ar    
   9 N9             4.9812     5.4401    -0.0144 N.ar    
  10 C10            6.1681     6.0106    -0.0223 C.ar    
  11 C11            7.3280     5.2353    -0.0381 C.ar    
  12 C12            7.2088     3.8402    -0.0450 C.ar    
  13 C13            5.9392     3.2904    -0.0301 C.ar    
  14 C14            8.6603     5.8760    -0.0479 C.2     
  15 N15            8.7619     7.2199    -0.0416 N.am    
  16 O16            9.6641     5.1907    -0.0616 O.2     
  17 C17           10.0821     7.8547    -0.0513 C.3     
  18 C18            9.9692     9.2573    -0.6522 C.3     
  19 C19           10.6105     7.9546     1.3811 C.3     
  20 C20            2.3975     0.0226    -0.0208 C.ar    
  21 F21            3.5753    -0.6391    -0.0352 F       
  22 C22           11.3480     9.9203    -0.6623 C.3     
  23 C23           11.2351    11.3228    -1.2632 C.3     
  24 C24           10.7067    11.2229    -2.6956 C.3     
  25 C25            9.3278    10.5599    -2.6854 C.3     
  26 C26            9.4408     9.1574    -2.0845 C.3     
  27 H27           -0.9596     1.9044     0.0169 H       
  28 H28           -0.9264    -0.5557     0.0083 H       
  29 H29            1.2195    -1.7618    -0.0187 H       
  30 H30            1.1535     3.1672     0.0084 H       
  31 H31            2.9090     3.8674    -0.8940 H       
  32 H32            2.9257     3.8572     0.8858 H       
  33 H33            6.2443     7.0879    -0.0168 H       
  34 H34            8.0854     3.2094    -0.0572 H       
  35 H35            5.8087     2.2183    -0.0348 H       
  36 H36            7.9608     7.7668    -0.0306 H       
  37 H37           10.7684     7.2568    -0.6509 H       
  38 H38            9.2829     9.8553    -0.0526 H       
  39 H39            9.9242     8.5526     1.9807 H       
  40 H40           10.6910     6.9554     1.8092 H       
  41 H41           11.5928     8.4270     1.3739 H       
  42 H42           11.7245     9.9915     0.3581 H       
  43 H43           12.0343     9.3223    -1.2619 H       
  44 H44           10.5488    11.9208    -0.6636 H       
  45 H45           12.2174    11.7952    -1.2704 H       
  46 H46           10.6262    12.2221    -3.1237 H       
  47 H47           11.3930    10.6250    -3.2952 H       
  48 H48            8.6415    11.1579    -2.0859 H       
  49 H49            8.9514    10.4888    -3.7059 H       
  50 H50           10.1271     8.5594    -2.6841 H       
  51 H51            8.4585     8.6850    -2.0773 H       
@<TRIPOS>BOND
   1    1    2 ar
   2    1    5 ar
   3    1   27 1
   4    2    3 ar
   5    2   28 1
   6    3   20 ar
   7    3   29 1
   8    4    5 ar
   9    4    6 1
  10    4   20 ar
  11    5   30 1
  12    6    7 1
  13    7    8 1
  14    7   31 1
  15    7   32 1
  16    8    9 ar
  17    8   13 ar
  18    9   10 ar
  19   10   11 ar
  20   10   33 1
  21   11   12 ar
  22   11   14 1
  23   12   13 ar
  24   12   34 1
  25   13   35 1
  26   14   15 am
  27   14   16 2
  28   15   17 1
  29   15   36 1
  30   17   18 1
  31   17   19 1
  32   17   37 1
  33   18   22 1
  34   18   26 1
  35   18   38 1
  36   19   39 1
  37   19   40 1
  38   19   41 1
  39   20   21 1
  40   22   23 1
  41   22   42 1
  42   22   43 1
  43   23   24 1
  44   23   44 1
  45   23   45 1
  46   24   25 1
  47   24   46 1
  48   24   47 1
  49   25   26 1
  50   25   48 1
  51   25   49 1
  52   26   50 1
  53   26   51 1

#	End of record

