#	Name: ASD01816248
#	Creating user name:	WinNT
#	Creation time:	15. 06. 2019 19:34

#	Modifying user name:	WinNT
#	Modification time:	15. 06. 2019 19:34

#	Program:	/corina/corina34_cracker 3.40 0067  02.08.2006

@<TRIPOS>MOLECULE
ASD01816248
  54   59    0    0    0
SMALL
NO_CHARGES


@<TRIPOS>ATOM
   1 C1            -0.1437     1.3798    -0.0582 C.ar    
   2 C2            -0.0883    -0.0045    -0.0463 C.ar    
   3 C3             1.1257    -0.6596    -0.0567 C.ar    
   4 C4             2.3099     0.0686    -0.0789 C.ar    
   5 C5             2.2503     1.4722    -0.0909 C.ar    
   6 C6             1.0200     2.1210    -0.0807 C.ar    
   7 N7             3.5313    -0.5826    -0.0885 N.pl3   
   8 C8             4.7062     0.0671    -0.1098 C.2     
   9 C9             4.7729     1.4382    -0.1236 C.2     
  10 C10            3.5187     2.2253    -0.1144 C.2     
  11 C11            5.8441     2.4293    -0.1472 C.2     
  12 N12            5.2394     3.6369    -0.1510 N.am    
  13 N13            3.8508     3.4842    -0.1310 N.2     
  14 C14            5.9089     4.8670    -0.1715 C.ar    
  15 C15            5.6487     5.8188     0.8086 C.ar    
  16 C16            6.8382     5.1370    -1.1672 C.ar    
  17 C17            7.4969     6.3510    -1.1849 C.ar    
  18 C18            7.2328     7.2980    -0.2123 C.ar    
  19 C19            6.3121     7.0321     0.7844 C.ar    
  20 F20            4.7491     5.5587     1.7824 F       
  21 O21            7.0446     2.2108    -0.1601 O.2     
  22 C22            3.5427    -2.0475    -0.0743 C.3     
  23 C23            3.5280    -2.5637    -1.4900 C.ar    
  24 C24            4.7210    -2.7905    -2.1529 C.ar    
  25 C25            4.7144    -3.2634    -3.4490 C.ar    
  26 C26            3.5010    -3.5131    -4.0911 C.ar    
  27 C27            2.3013    -3.2823    -3.4171 C.ar    
  28 C28            2.3217    -2.8142    -2.1193 C.ar    
  29 C29            3.4866    -4.0198    -5.4807 C.2     
  30 C30            2.8401    -4.9431    -7.3666 C.2     
  31 C31            4.1125    -4.5138    -7.4912 C.2     
  32 N32            4.4856    -3.9580    -6.3328 N.2     
  33 N33            2.4362    -4.6363    -6.0952 N.pl3   
  34 C34            1.1247    -4.9173    -5.5059 C.3     
  35 H35           -1.1008     1.8803    -0.0543 H       
  36 H36           -1.0044    -0.5763    -0.0284 H       
  37 H37            1.1563    -1.7391    -0.0473 H       
  38 H38            0.9758     3.2001    -0.0896 H       
  39 H39            5.6229    -0.5040    -0.1159 H       
  40 H40            7.0462     4.3982    -1.9270 H       
  41 H41            8.2197     6.5608    -1.9595 H       
  42 H42            7.7502     8.2459    -0.2288 H       
  43 H43            6.1079     7.7740     1.5423 H       
  44 H44            4.4422    -2.3990     0.4313 H       
  45 H45            2.6624    -2.4126     0.4547 H       
  46 H46            5.6595    -2.5965    -1.6549 H       
  47 H47            5.6464    -3.4397    -3.9655 H       
  48 H48            1.3589    -3.4733    -3.9088 H       
  49 H49            1.3938    -2.6355    -1.5963 H       
  50 H50            2.2513    -5.4359    -8.1261 H       
  51 H51            4.7258    -4.6031    -8.3756 H       
  52 H52            0.4898    -4.0358    -5.5954 H       
  53 H53            0.6621    -5.7531    -6.0307 H       
  54 H54            1.2465    -5.1719    -4.4530 H       
@<TRIPOS>BOND
   1    1    2 ar
   2    1    6 ar
   3    1   35 1
   4    2    3 ar
   5    2   36 1
   6    3    4 ar
   7    3   37 1
   8    4    5 ar
   9    4    7 1
  10    5    6 ar
  11    5   10 1
  12    6   38 1
  13    7    8 1
  14    7   22 1
  15    8    9 2
  16    8   39 1
  17    9   10 1
  18    9   11 1
  19   10   13 2
  20   11   12 am
  21   11   21 2
  22   12   13 1
  23   12   14 1
  24   14   15 ar
  25   14   16 ar
  26   15   20 1
  27   15   19 ar
  28   16   17 ar
  29   16   40 1
  30   17   18 ar
  31   17   41 1
  32   18   19 ar
  33   18   42 1
  34   19   43 1
  35   22   23 1
  36   22   44 1
  37   22   45 1
  38   23   24 ar
  39   23   28 ar
  40   24   25 ar
  41   24   46 1
  42   25   26 ar
  43   25   47 1
  44   26   27 ar
  45   26   29 1
  46   27   28 ar
  47   27   48 1
  48   28   49 1
  49   29   33 1
  50   29   32 2
  51   30   31 2
  52   30   33 1
  53   30   50 1
  54   31   32 1
  55   31   51 1
  56   33   34 1
  57   34   52 1
  58   34   53 1
  59   34   54 1

#	End of record

