#	Name: ASD01231344
#	Creating user name:	WinNT
#	Creation time:	15. 06. 2019 19:15

#	Modifying user name:	WinNT
#	Modification time:	15. 06. 2019 19:15

#	Program:	/corina/corina34_cracker 3.40 0067  02.08.2006

@<TRIPOS>MOLECULE
ASD01231344
  51   53    0    0    0
SMALL
NO_CHARGES


@<TRIPOS>ATOM
   1 C1            -3.4813     1.0825     1.4456 C.3     
   2 C2            -2.9993    -0.3694     1.4687 C.3     
   3 C3            -4.1980    -1.3073     1.3126 C.3     
   4 S4            -1.8364    -0.6423     0.1035 S.o2    
   5 O5            -2.5046    -0.5485    -1.1470 O.2     
   6 O6            -0.6199     0.0537     0.3381 O.2     
   7 N7            -1.4225    -2.2410     0.2265 N.am    
   8 C8            -0.6933    -2.7204     1.4033 C.3     
   9 C9            -1.1771    -4.1329     1.7943 C.3     
  10 C10           -0.1903    -5.0436     1.0334 C.3     
  11 C11            1.0661    -4.2156     0.8683 C.ar    
  12 C12            2.3585    -4.6009     0.5566 C.ar    
  13 C13            3.3635    -3.6517     0.4569 C.ar    
  14 C14            3.0710    -2.3123     0.6706 C.ar    
  15 C15            1.7816    -1.9312     0.9814 C.ar    
  16 C16            0.7772    -2.8804     1.0809 C.ar    
  17 O17            4.6319    -4.0318     0.1511 O.3     
  18 C18            5.6158    -2.9990     0.0653 C.3     
  19 C19            6.9515    -3.6052    -0.2802 C.ar    
  20 C20            8.0678    -2.7928    -0.4186 C.ar    
  21 C21            9.2959    -3.3539    -0.7367 C.ar    
  22 C22            9.4047    -4.7196    -0.9150 C.ar    
  23 C23            8.2909    -5.5268    -0.7771 C.ar    
  24 C24            7.0668    -4.9707    -0.4539 C.ar    
  25 O25            7.9581    -1.4497    -0.2431 O.3     
  26 C26            9.1487    -0.6754    -0.4011 C.3     
  27 F27           10.1068    -1.0986     0.5264 F       
  28 F28            9.6471    -0.8457    -1.6971 F       
  29 H29           -4.1801     1.2464     2.2659 H       
  30 H30           -2.6273     1.7506     1.5568 H       
  31 H31           -3.9799     1.2847     0.4976 H       
  32 H32           -2.5007    -0.5717     2.4166 H       
  33 H33           -3.8472    -2.3370     1.2433 H       
  34 H34           -4.8546    -1.2046     2.1766 H       
  35 H35           -4.7463    -1.0485     0.4068 H       
  36 H36           -1.6628    -2.8600    -0.4805 H       
  37 H37           -0.8264    -2.0308     2.2368 H       
  38 H38           -1.0952    -4.2865     2.8703 H       
  39 H39           -2.1993    -4.3002     1.4547 H       
  40 H40            0.0216    -5.9408     1.6150 H       
  41 H41           -0.5976    -5.3114     0.0585 H       
  42 H42            2.5844    -5.6439     0.3909 H       
  43 H43            3.8510    -1.5693     0.5936 H       
  44 H44            1.5544    -0.8886     1.1477 H       
  45 H45            5.3288    -2.2872    -0.7086 H       
  46 H46            5.6872    -2.4847     1.0237 H       
  47 H47           10.1662    -2.7236    -0.8452 H       
  48 H48           10.3607    -5.1569    -1.1627 H       
  49 H49            8.3779    -6.5941    -0.9176 H       
  50 H50            6.1991    -5.6039    -0.3420 H       
  51 H51            8.9220     0.3777    -0.2344 H       
@<TRIPOS>BOND
   1    1    2 1
   2    1   29 1
   3    1   30 1
   4    1   31 1
   5    2    3 1
   6    2    4 1
   7    2   32 1
   8    3   33 1
   9    3   34 1
  10    3   35 1
  11    4    5 2
  12    4    6 2
  13    4    7 am
  14    7    8 1
  15    7   36 1
  16    8    9 1
  17    8   16 1
  18    8   37 1
  19    9   10 1
  20    9   38 1
  21    9   39 1
  22   10   11 1
  23   10   40 1
  24   10   41 1
  25   11   12 ar
  26   11   16 ar
  27   12   13 ar
  28   12   42 1
  29   13   14 ar
  30   13   17 1
  31   14   15 ar
  32   14   43 1
  33   15   16 ar
  34   15   44 1
  35   17   18 1
  36   18   19 1
  37   18   45 1
  38   18   46 1
  39   19   20 ar
  40   19   24 ar
  41   20   21 ar
  42   20   25 1
  43   21   22 ar
  44   21   47 1
  45   22   23 ar
  46   22   48 1
  47   23   24 ar
  48   23   49 1
  49   24   50 1
  50   25   26 1
  51   26   27 1
  52   26   28 1
  53   26   51 1

#	End of record

