#	Name: ASD00431336
#	Creating user name:	WinNT
#	Creation time:	15. 06. 2019 18:35

#	Modifying user name:	WinNT
#	Modification time:	15. 06. 2019 18:35

#	Program:	/corina/corina34_cracker 3.40 0067  02.08.2006

@<TRIPOS>MOLECULE
ASD00431336
  30   31    0    0    0
SMALL
NO_CHARGES


@<TRIPOS>ATOM
   1 S1            -1.9283     1.4584     1.1857 S.3     
   2 C2            -1.6240    -0.2150     1.0151 C.2     
   3 N3            -1.9456    -0.8465     2.1050 N.2     
   4 C4            -2.4221    -0.1305     3.0938 C.2     
   5 C5            -2.5116     1.1966     2.8275 C.2     
   6 C6            -2.9939     2.2055     3.7221 C.1     
   7 N7            -3.3765     3.0058     4.4317 N.1     
   8 O8            -1.1207    -0.7995    -0.0966 O.3     
   9 C9            -0.8373    -2.1283    -0.0466 C.ar    
  10 C10           -1.8620    -3.0508     0.1068 C.ar    
  11 C11           -1.5741    -4.4007     0.1571 C.ar    
  12 C12           -0.2604    -4.8340     0.0546 C.ar    
  13 C13            0.7642    -3.9116    -0.0988 C.ar    
  14 C14            0.4760    -2.5621    -0.1548 C.ar    
  15 O15            0.0231    -6.1628     0.1050 O.3     
  16 C16           -1.0602    -7.0465     0.4012 C.3     
  17 C17           -1.6789    -7.5504    -0.9042 C.3     
  18 C18           -0.5413    -8.2356     1.2121 C.3     
  19 H19           -2.7181    -0.5601     4.0394 H       
  20 H20           -2.8848    -2.7134     0.1873 H       
  21 H21           -2.3718    -5.1189     0.2765 H       
  22 H22            1.7871    -4.2491    -0.1782 H       
  23 H23            1.2733    -1.8442    -0.2788 H       
  24 H24           -1.8155    -6.5143     0.9795 H       
  25 H25           -0.9236    -8.0826    -1.4825 H       
  26 H26           -2.5052    -8.2244    -0.6783 H       
  27 H27           -2.0486    -6.7032    -1.4819 H       
  28 H28           -0.1006    -7.8766     2.1421 H       
  29 H29           -1.3676    -8.9096     1.4380 H       
  30 H30            0.2140    -8.7678     0.6338 H       
@<TRIPOS>BOND
   1    1    2 1
   2    1    5 1
   3    2    3 2
   4    2    8 1
   5    3    4 1
   6    4    5 2
   7    4   19 1
   8    5    6 1
   9    6    7 3
  10    8    9 1
  11    9   10 ar
  12    9   14 ar
  13   10   11 ar
  14   10   20 1
  15   11   12 ar
  16   11   21 1
  17   12   13 ar
  18   12   15 1
  19   13   14 ar
  20   13   22 1
  21   14   23 1
  22   15   16 1
  23   16   17 1
  24   16   18 1
  25   16   24 1
  26   17   25 1
  27   17   26 1
  28   17   27 1
  29   18   28 1
  30   18   29 1
  31   18   30 1

#	End of record

