#	Name: ASD03331000
#	Creating user name:	WinNT
#	Creation time:	15. 06. 2019 20:38

#	Modifying user name:	WinNT
#	Modification time:	15. 06. 2019 20:38

#	Program:	/corina/corina34_cracker 3.40 0067  02.08.2006

@<TRIPOS>MOLECULE
ASD03331000
  63   65    0    0    0
SMALL
NO_CHARGES


@<TRIPOS>ATOM
   1 N1            -0.2110     1.4836    -0.2729 N.pl3   
   2 C2            -0.1205     0.1316    -0.1622 C.2     
   3 C3             1.1587    -0.6564    -0.0527 C.3     
   4 N4             2.0276    -0.0276     0.9543 N.3     
   5 C5             2.8827     0.9967     0.3515 C.3     
   6 C6             2.1641     1.7021    -0.7950 C.3     
   7 C7             0.9186     2.4174    -0.2643 C.3     
   8 C8            -1.5347     1.7972    -0.3792 C.2     
   9 N9            -2.2341     0.6884    -0.3186 N.2     
  10 C10           -1.3909    -0.3584    -0.1818 C.2     
  11 C11           -1.7768    -1.7763    -0.0732 C.2     
  12 O12           -0.9210    -2.6320     0.0470 O.2     
  13 N13           -3.0783    -2.1250    -0.1071 N.am    
  14 C14            2.8306    -1.0353     1.6598 C.3     
  15 C15           -4.8046    -3.7413    -0.6516 C.2     
  16 C16           -3.4620    -3.5347     0.0008 C.3     
  17 C17           -3.5462    -3.9288     1.4768 C.3     
  18 C18           -4.5751    -3.0436     2.1831 C.3     
  19 O19           -5.5194    -2.7891    -0.8827 O.2     
  20 C20           -3.9709    -5.3943     1.5900 C.3     
  21 C21           -2.1768    -3.7425     2.1333 C.3     
  22 N22           -5.2111    -4.9841    -0.9783 N.am    
  23 C23           -6.5482    -5.1937    -1.5391 C.3     
  24 C24           -6.7558    -6.6835    -1.8193 C.3     
  25 C25           -2.0890     3.1597    -0.5358 C.ar    
  26 C26           -3.3864     3.3363    -1.0185 C.ar    
  27 C27           -3.8990     4.6105    -1.1622 C.ar    
  28 C28           -3.1253     5.7133    -0.8272 C.ar    
  29 C29           -1.8372     5.5413    -0.3484 C.ar    
  30 C30           -1.3185     4.2719    -0.1959 C.ar    
  31 F31           -3.6302     6.9583    -0.9692 F       
  32 F32           -5.1546     4.7840    -1.6297 F       
  33 H33            0.9320    -1.6790     0.2492 H       
  34 H34            1.6656    -0.6642    -1.0176 H       
  35 H35            3.1521     1.7307     1.1110 H       
  36 H36            3.7898     0.5273    -0.0292 H       
  37 H37            2.8349     2.4314    -1.2491 H       
  38 H38            1.8685     0.9675    -1.5441 H       
  39 H39            0.6900     3.2719    -0.9012 H       
  40 H40            1.1011     2.7593     0.7544 H       
  41 H41           -3.7609    -1.4425    -0.2030 H       
  42 H42            3.4026    -1.6158     0.9361 H       
  43 H43            3.5139    -0.5383     2.3485 H       
  44 H44            2.1710    -1.6994     2.2185 H       
  45 H45           -2.7164    -4.1535    -0.4985 H       
  46 H46           -5.5506    -3.1763     1.7154 H       
  47 H47           -4.6350    -3.3243     3.2346 H       
  48 H48           -4.2725    -1.9995     2.1024 H       
  49 H49           -3.2178    -6.0280     1.1218 H       
  50 H50           -4.0698    -5.6637     2.6415 H       
  51 H51           -4.9278    -5.5351     1.0873 H       
  52 H52           -1.8742    -2.6984     2.0527 H       
  53 H53           -2.2368    -4.0232     3.1849 H       
  54 H54           -1.4439    -4.3731     1.6302 H       
  55 H55           -4.6183    -5.7397    -0.8422 H       
  56 H56           -7.2987    -4.8498    -0.8274 H       
  57 H57           -6.6445    -4.6324    -2.4684 H       
  58 H58           -6.0053    -7.0274    -2.5310 H       
  59 H59           -6.6594    -7.2448    -0.8899 H       
  60 H60           -7.7506    -6.8395    -2.2365 H       
  61 H61           -3.9882     2.4783    -1.2794 H       
  62 H62           -1.2390     6.4024    -0.0895 H       
  63 H63           -0.3154     4.1395     0.1818 H       
@<TRIPOS>BOND
   1    1    2 1
   2    1    7 1
   3    1    8 1
   4    2    3 1
   5    2   10 2
   6    3    4 1
   7    3   33 1
   8    3   34 1
   9    4    5 1
  10    4   14 1
  11    5    6 1
  12    5   35 1
  13    5   36 1
  14    6    7 1
  15    6   37 1
  16    6   38 1
  17    7   39 1
  18    7   40 1
  19    8    9 2
  20    8   25 1
  21    9   10 1
  22   10   11 1
  23   11   12 2
  24   11   13 am
  25   13   16 1
  26   13   41 1
  27   14   42 1
  28   14   43 1
  29   14   44 1
  30   15   19 2
  31   15   22 am
  32   15   16 1
  33   16   17 1
  34   16   45 1
  35   17   18 1
  36   17   20 1
  37   17   21 1
  38   18   46 1
  39   18   47 1
  40   18   48 1
  41   20   49 1
  42   20   50 1
  43   20   51 1
  44   21   52 1
  45   21   53 1
  46   21   54 1
  47   22   23 1
  48   22   55 1
  49   23   24 1
  50   23   56 1
  51   23   57 1
  52   24   58 1
  53   24   59 1
  54   24   60 1
  55   25   26 ar
  56   25   30 ar
  57   26   27 ar
  58   26   61 1
  59   27   28 ar
  60   27   32 1
  61   28   29 ar
  62   28   31 1
  63   29   30 ar
  64   29   62 1
  65   30   63 1

#	End of record

