#	Name: ASD01812883
#	Creating user name:	WinNT
#	Creation time:	15. 06. 2019 19:29

#	Modifying user name:	WinNT
#	Modification time:	15. 06. 2019 19:29

#	Program:	/corina/corina34_cracker 3.40 0067  02.08.2006

@<TRIPOS>MOLECULE
ASD01812883
  57   61    0    0    0
SMALL
NO_CHARGES


@<TRIPOS>ATOM
   1 N1            -0.0174     1.3157     0.0444 N.ar    
   2 C2            -0.0006    -0.0030     0.0526 C.ar    
   3 C3             1.1955    -0.7035     0.0341 C.ar    
   4 C4             2.3799    -0.0029     0.0063 C.ar    
   5 C5             2.3432     1.3963    -0.0025 C.ar    
   6 C6             1.0945     2.0331     0.0179 C.ar    
   7 C7             3.8338    -0.3921    -0.0194 C.3     
   8 N8             4.5930     0.8644    -0.0427 N.am    
   9 C9             3.7266     1.8931    -0.0329 C.2     
  10 C10            6.0533     0.9788    -0.0712 C.3     
  11 C11            6.5271     1.0079    -1.5015 C.ar    
  12 O12            1.0258     3.3856     0.0104 O.3     
  13 O13            4.0426     3.0671    -0.0470 O.2     
  14 C14            6.6499     2.2169    -2.1622 C.ar    
  15 C15            7.0834     2.2494    -3.4721 C.ar    
  16 C16            7.3979     1.0613    -4.1289 C.ar    
  17 C17            7.2728    -0.1538    -3.4582 C.ar    
  18 C18            6.8430    -0.1741    -2.1469 C.ar    
  19 C19           -0.2018     3.9616    -0.0793 C.ar    
  20 C20           -0.7833     4.1679    -1.3218 C.ar    
  21 C21           -2.0315     4.7537    -1.4103 C.ar    
  22 C22           -2.7008     5.1342    -0.2621 C.ar    
  23 C23           -2.1233     4.9296     0.9777 C.ar    
  24 C24           -0.8783     4.3392     1.0720 C.ar    
  25 C25           -0.0541     3.7539    -2.5739 C.3     
  26 C26            7.8640     1.0899    -5.5372 C.ar    
  27 C27            7.9966     2.2958    -6.2298 C.ar    
  28 N28            8.4136     2.2876    -7.4803 N.ar    
  29 N29            8.7074     1.2023    -8.0980 N.ar    
  30 C30            8.6142     0.0149    -7.5286 C.ar    
  31 C31            8.1913    -0.0906    -6.2156 C.ar    
  32 C32            8.9738    -1.2246    -8.3067 C.3     
  33 C33           -4.0619     5.7734    -0.3617 C.3     
  34 F34           -5.0470     4.7806    -0.3267 F       
  35 F35           -4.2451     6.6501     0.7130 F       
  36 F36           -4.1572     6.4827    -1.5637 F       
  37 H37           -0.9340    -0.5460     0.0745 H       
  38 H38            1.1979    -1.7835     0.0418 H       
  39 H39            4.0844    -0.9649     0.8735 H       
  40 H40            4.0496    -0.9771    -0.9134 H       
  41 H41            6.3556     1.8981     0.4304 H       
  42 H42            6.4948     0.1236     0.4405 H       
  43 H43            6.4059     3.1370    -1.6522 H       
  44 H44            7.1782     3.1938    -3.9873 H       
  45 H45            7.5149    -1.0775    -3.9626 H       
  46 H46            6.7492    -1.1150    -1.6249 H       
  47 H47           -2.4845     4.9148    -2.3774 H       
  48 H48           -2.6483     5.2277     1.8732 H       
  49 H49           -0.4296     4.1756     2.0407 H       
  50 H50           -0.3170     2.7262    -2.8245 H       
  51 H51           -0.3387     4.4122    -3.3947 H       
  52 H52            1.0210     3.8238    -2.4082 H       
  53 H53            7.7585     3.2301    -5.7432 H       
  54 H54            8.1129    -1.0524    -5.7307 H       
  55 H55           10.0327    -1.4445    -8.1706 H       
  56 H56            8.3792    -2.0645    -7.9473 H       
  57 H57            8.7697    -1.0613    -9.3649 H       
@<TRIPOS>BOND
   1    1    2 ar
   2    1    6 ar
   3    2    3 ar
   4    2   37 1
   5    3    4 ar
   6    3   38 1
   7    4    7 1
   8    4    5 ar
   9    5    6 ar
  10    5    9 1
  11    6   12 1
  12    7    8 1
  13    7   39 1
  14    7   40 1
  15    8    9 am
  16    8   10 1
  17    9   13 2
  18   10   11 1
  19   10   41 1
  20   10   42 1
  21   11   14 ar
  22   11   18 ar
  23   12   19 1
  24   14   15 ar
  25   14   43 1
  26   15   16 ar
  27   15   44 1
  28   16   17 ar
  29   16   26 1
  30   17   18 ar
  31   17   45 1
  32   18   46 1
  33   19   20 ar
  34   19   24 ar
  35   20   21 ar
  36   20   25 1
  37   21   22 ar
  38   21   47 1
  39   22   23 ar
  40   22   33 1
  41   23   24 ar
  42   23   48 1
  43   24   49 1
  44   25   50 1
  45   25   51 1
  46   25   52 1
  47   26   27 ar
  48   26   31 ar
  49   27   28 ar
  50   27   53 1
  51   28   29 ar
  52   29   30 ar
  53   30   31 ar
  54   30   32 1
  55   31   54 1
  56   32   55 1
  57   32   56 1
  58   32   57 1
  59   33   34 1
  60   33   35 1
  61   33   36 1

#	End of record

