#	Name: ASD05720013
#	Creating user name:	WinNT
#	Creation time:	15. 06. 2019 21:01

#	Modifying user name:	WinNT
#	Modification time:	15. 06. 2019 21:01

#	Program:	/corina/corina34_cracker 3.40 0067  02.08.2006

@<TRIPOS>MOLECULE
ASD05720013
  40   41    0    0    0
SMALL
NO_CHARGES


@<TRIPOS>ATOM
   1 N1            -0.0126     1.3919    -0.1405 N.pl3   
   2 N2             0.0102    -0.0106    -0.0735 N.2     
   3 C3             1.2586    -0.3652     0.0885 C.2     
   4 N4             2.0214     0.7237     0.1276 N.2     
   5 C5             1.2710     1.7982    -0.0093 C.2     
   6 C6            -1.1902     2.2442    -0.3224 C.3     
   7 O7            -1.8078     2.4801     0.9445 O.3     
   8 C8            -2.9726     3.3054     0.8786 C.3     
   9 C9            -3.5473     3.4896     2.2845 C.3     
  10 Si10          -5.0657     4.5655     2.1987 Si      
  11 C11           -6.3403     3.7550     1.1081 C.3     
  12 C12           -5.7655     4.7898     3.9106 C.3     
  13 C13           -4.6098     6.2277     1.4914 C.3     
  14 C14            1.7473     3.1988    -0.0187 C.ar    
  15 C15            2.8382     3.5630    -0.8109 C.ar    
  16 C16            3.2778     4.8718    -0.8150 C.ar    
  17 C17            2.6395     5.8213    -0.0356 C.ar    
  18 C18            1.5577     5.4654     0.7515 C.ar    
  19 C19            1.1052     4.1621     0.7594 C.ar    
  20 Cl20           3.6400     2.3728    -1.7877 Cl      
  21 Br21           3.2482     7.6116    -0.0457 Br      
  22 H22            1.6139    -1.3813     0.1769 H       
  23 H23           -0.8865     3.1947    -0.7611 H       
  24 H24           -1.8989     1.7480    -0.9854 H       
  25 H25           -2.7058     4.2779     0.4648 H       
  26 H26           -3.7183     2.8312     0.2405 H       
  27 H27           -3.8140     2.5171     2.6983 H       
  28 H28           -2.8015     3.9638     2.9226 H       
  29 H29           -6.6070     2.7825     1.5219 H       
  30 H30           -7.2287     4.3845     1.0579 H       
  31 H31           -5.9308     3.6238     0.1065 H       
  32 H32           -5.0198     5.2641     4.5487 H       
  33 H33           -6.6539     5.4194     3.8604 H       
  34 H34           -6.0322     3.8173     4.3244 H       
  35 H35           -4.2004     6.0965     0.4898 H       
  36 H36           -5.4983     6.8572     1.4412 H       
  37 H37           -3.8641     6.7019     2.1295 H       
  38 H38            4.1212     5.1553    -1.4270 H       
  39 H39            1.0639     6.2108     1.3574 H       
  40 H40            0.2583     3.8872     1.3706 H       
@<TRIPOS>BOND
   1    1    2 1
   2    1    5 1
   3    1    6 1
   4    2    3 2
   5    3    4 1
   6    3   22 1
   7    4    5 2
   8    5   14 1
   9    6    7 1
  10    6   23 1
  11    6   24 1
  12    7    8 1
  13    8    9 1
  14    8   25 1
  15    8   26 1
  16    9   10 1
  17    9   27 1
  18    9   28 1
  19   10   11 1
  20   10   12 1
  21   10   13 1
  22   11   29 1
  23   11   30 1
  24   11   31 1
  25   12   32 1
  26   12   33 1
  27   12   34 1
  28   13   35 1
  29   13   36 1
  30   13   37 1
  31   14   15 ar
  32   14   19 ar
  33   15   16 ar
  34   15   20 1
  35   16   17 ar
  36   16   38 1
  37   17   18 ar
  38   17   21 1
  39   18   19 ar
  40   18   39 1
  41   19   40 1

#	End of record

