#	Name: ASD03240109
#	Creating user name:	WinNT
#	Creation time:	15. 06. 2019 20:34

#	Modifying user name:	WinNT
#	Modification time:	15. 06. 2019 20:34

#	Program:	/corina/corina34_cracker 3.40 0067  02.08.2006

@<TRIPOS>MOLECULE
ASD03240109
  70   75    0    0    0
SMALL
NO_CHARGES


@<TRIPOS>ATOM
   1 C1            -0.0779     1.3953    -0.0397 C.ar    
   2 C2            -0.0508    -0.0248    -0.0420 C.ar    
   3 C3             1.1298     2.1097    -0.0480 C.ar    
   4 C4             2.3135     1.3866    -0.0583 C.ar    
   5 C5             2.2640    -0.0251    -0.0600 C.ar    
   6 N6             1.1139    -0.6730    -0.0520 N.ar    
   7 C7             3.5295    -0.7947    -0.0715 C.ar    
   8 C8             3.6188     2.0891    -0.0679 C.ar    
   9 C9             3.8603     3.1043    -0.9923 C.ar    
  10 C10            5.0772     3.7551    -0.9962 C.ar    
  11 C11            6.0564     3.4019    -0.0851 C.ar    
  12 C12            5.8226     2.3950     0.8342 C.ar    
  13 C13            4.6075     1.7411     0.8513 C.ar    
  14 C14            3.6199    -2.0038     0.6178 C.ar    
  15 C15            4.8015    -2.7162     0.6034 C.ar    
  16 C16            5.8953    -2.2332    -0.0926 C.ar    
  17 C17            5.8118    -1.0345    -0.7782 C.ar    
  18 C18            4.6337    -0.3161    -0.7764 C.ar    
  19 C19            7.1831    -3.0157    -0.1034 C.3     
  20 N20           -1.2167    -0.6839    -0.0334 N.ar    
  21 C21           -2.3580    -0.0208    -0.0231 C.ar    
  22 N22           -2.4175     1.3101    -0.0207 N.ar    
  23 C23           -1.3254     2.0458    -0.0232 C.ar    
  24 S24           -3.8650    -0.9337    -0.0126 S.3     
  25 C25           -5.0573     0.4281    -0.0007 C.3     
  26 N26            7.1804    -3.9475    -1.2391 N.3     
  27 C27            8.5042    -4.5553    -1.4243 C.3     
  28 C28            8.5036    -5.4043    -2.6976 C.3     
  29 C29            7.4336    -6.4931    -2.5787 C.3     
  30 C30            6.0719    -5.8354    -2.3380 C.3     
  31 C31            6.1431    -4.9739    -1.0751 C.3     
  32 C32            7.3872    -7.2951    -3.8537 C.2     
  33 O33            8.1358    -7.0235    -4.7685 O.2     
  34 N34            6.5138    -8.3140    -3.9776 N.am    
  35 C35            6.3915    -8.9841    -5.1955 C.ar    
  36 C36            6.1247   -10.3517    -5.2355 C.ar    
  37 C37            6.0107   -10.9769    -6.4599 C.ar    
  38 N38            6.1509   -10.2970    -7.5823 N.ar    
  39 C39            6.4039    -9.0018    -7.5860 C.ar    
  40 C40            6.5272    -8.3020    -6.4036 C.ar    
  41 H41            1.1375     3.1896    -0.0468 H       
  42 H42            3.0967     3.3807    -1.7043 H       
  43 H43            5.2656     4.5415    -1.7121 H       
  44 H44            7.0073     3.9139    -0.0918 H       
  45 H45            6.5909     2.1232     1.5429 H       
  46 H46            4.4260     0.9554     1.5698 H       
  47 H47            2.7670    -2.3815     1.1621 H       
  48 H48            4.8728    -3.6526     1.1368 H       
  49 H49            6.6691    -0.6624    -1.3195 H       
  50 H50            4.5696     0.6194    -1.3123 H       
  51 H51            8.0245    -2.3294    -0.1986 H       
  52 H52            7.2753    -3.5767     0.8266 H       
  53 H53           -1.3859     3.1241    -0.0213 H       
  54 H54           -4.9029     1.0384     0.8891 H       
  55 H55           -4.9172     1.0415    -0.8908 H       
  56 H56           -6.0698     0.0245     0.0067 H       
  57 H57            9.2553    -3.7702    -1.5117 H       
  58 H58            8.7372    -5.1868    -0.5669 H       
  59 H59            8.2843    -4.7710    -3.5572 H       
  60 H60            9.4817    -5.8679    -2.8264 H       
  61 H61            7.6737    -7.1500    -1.7427 H       
  62 H62            5.8144    -5.2089    -3.1919 H       
  63 H63            5.3127    -6.6070    -2.2099 H       
  64 H64            6.3871    -5.6034    -0.2194 H       
  65 H65            5.1792    -4.4929    -0.9089 H       
  66 H66            5.9702    -8.5816    -3.2201 H       
  67 H67            6.0091   -10.9140    -4.3208 H       
  68 H68            5.8044   -12.0362    -6.5005 H       
  69 H69            6.5119    -8.4824    -8.5267 H       
  70 H70            6.7343    -7.2421    -6.4137 H       
@<TRIPOS>BOND
   1    1    2 ar
   2    1    3 ar
   3    1   23 ar
   4    2   20 ar
   5    2    6 ar
   6    3    4 ar
   7    3   41 1
   8    4    5 ar
   9    4    8 1
  10    5    6 ar
  11    5    7 1
  12    7   14 ar
  13    7   18 ar
  14    8    9 ar
  15    8   13 ar
  16    9   10 ar
  17    9   42 1
  18   10   11 ar
  19   10   43 1
  20   11   12 ar
  21   11   44 1
  22   12   13 ar
  23   12   45 1
  24   13   46 1
  25   14   15 ar
  26   14   47 1
  27   15   16 ar
  28   15   48 1
  29   16   17 ar
  30   16   19 1
  31   17   18 ar
  32   17   49 1
  33   18   50 1
  34   19   26 1
  35   19   51 1
  36   19   52 1
  37   20   21 ar
  38   21   22 ar
  39   21   24 1
  40   22   23 ar
  41   23   53 1
  42   24   25 1
  43   25   54 1
  44   25   55 1
  45   25   56 1
  46   26   27 1
  47   26   31 1
  48   27   28 1
  49   27   57 1
  50   27   58 1
  51   28   29 1
  52   28   59 1
  53   28   60 1
  54   29   30 1
  55   29   32 1
  56   29   61 1
  57   30   31 1
  58   30   62 1
  59   30   63 1
  60   31   64 1
  61   31   65 1
  62   32   33 2
  63   32   34 am
  64   34   35 1
  65   34   66 1
  66   35   36 ar
  67   35   40 ar
  68   36   37 ar
  69   36   67 1
  70   37   38 ar
  71   37   68 1
  72   38   39 ar
  73   39   40 ar
  74   39   69 1
  75   40   70 1

#	End of record

