#	Name: ASD03330247
#	Creating user name:	WinNT
#	Creation time:	15. 06. 2019 20:36

#	Modifying user name:	WinNT
#	Modification time:	15. 06. 2019 20:36

#	Program:	/corina/corina34_cracker 3.40 0067  02.08.2006

@<TRIPOS>MOLECULE
ASD03330247
  62   65    0    0    0
SMALL
NO_CHARGES


@<TRIPOS>ATOM
   1 C1            -0.1749     1.6156    -0.2735 C.3     
   2 N2            -0.2170     0.1455    -0.2903 N.am    
   3 C3             0.4182    -0.5528    -1.4242 C.3     
   4 C4             1.7332     0.1396    -1.6859 C.2     
   5 N5             2.0980     1.3180    -1.1210 N.pl3   
   6 C6             1.2825     2.0792    -0.1718 C.3     
   7 C7             2.7504    -0.2573    -2.4924 C.2     
   8 N8             3.7210     0.6812    -2.4187 N.2     
   9 C9             3.3352     1.6314    -1.5984 C.2     
  10 C10            4.1135     2.8408    -1.2511 C.ar    
  11 C11            5.2134     3.2120    -2.0249 C.ar    
  12 C12            2.7900    -1.4885    -3.3011 C.2     
  13 O13            1.8491    -2.2589    -3.2824 O.2     
  14 N14            3.9506    -2.9489    -4.7307 N.3     
  15 N15            3.8689    -1.7608    -4.0615 N.am    
  16 C16            5.9349     4.3412    -1.6961 C.ar    
  17 C17            5.5697     5.1047    -0.6017 C.ar    
  18 C18            4.4801     4.7418     0.1697 C.ar    
  19 C19            3.7472     3.6179    -0.1518 C.ar    
  20 C20           -0.8175    -0.5431     0.7005 C.2     
  21 O21           -1.3906     0.1147     1.7260 O.3     
  22 O22           -0.8417    -1.7575     0.6684 O.2     
  23 C23           -2.0188    -0.6914     2.7574 C.3     
  24 C24           -0.9745    -1.6121     3.3919 C.3     
  25 C25           -2.6106     0.2245     3.8307 C.3     
  26 C26           -3.1334    -1.5359     2.1366 C.3     
  27 C27            5.1848    -3.6648    -4.3834 C.3     
  28 C28            5.1737    -5.0493    -5.0353 C.3     
  29 C29            5.0631    -4.8919    -6.5544 C.3     
  30 C30            3.7946    -4.1013    -6.8867 C.3     
  31 C31            3.8457    -2.7443    -6.1811 C.3     
  32 H32           -0.6167     2.0028    -1.1917 H       
  33 H33           -0.7353     1.9859     0.5849 H       
  34 H34            0.5926    -1.5977    -1.1672 H       
  35 H35           -0.2190    -0.4868    -2.3060 H       
  36 H36            1.3441     3.1414    -0.4088 H       
  37 H37            1.6487     1.9095     0.8407 H       
  38 H38            5.4997     2.6167    -2.8793 H       
  39 H39            4.5874    -1.1132    -4.1336 H       
  40 H40            6.7868     4.6295    -2.2941 H       
  41 H41            6.1379     5.9875    -0.3482 H       
  42 H42            4.2000     5.3419     1.0228 H       
  43 H43            2.8968     3.3356     0.4511 H       
  44 H44           -0.1805    -1.0104     3.8343 H       
  45 H45           -1.4461    -2.2172     4.1662 H       
  46 H46           -0.5529    -2.2646     2.6273 H       
  47 H47           -3.3546     0.8805     3.3787 H       
  48 H48           -3.0822    -0.3806     4.6050 H       
  49 H49           -1.8166     0.8262     4.2730 H       
  50 H50           -2.7118    -2.1884     1.3719 H       
  51 H51           -3.6050    -2.1410     2.9108 H       
  52 H52           -3.8774    -0.8799     1.6845 H       
  53 H53            6.0453    -3.1008    -4.7432 H       
  54 H54            5.2490    -3.7737    -3.3007 H       
  55 H55            6.0968    -5.5744    -4.7901 H       
  56 H56            4.3211    -5.6189    -4.6654 H       
  57 H57            5.9350    -4.3561    -6.9295 H       
  58 H58            5.0112    -5.8762    -7.0197 H       
  59 H59            3.7325    -3.9491    -7.9642 H       
  60 H60            2.9204    -4.6560    -6.5460 H       
  61 H61            2.9374    -2.1845    -6.4041 H       
  62 H62            4.7125    -2.1846    -6.5325 H       
@<TRIPOS>BOND
   1    1    2 1
   2    1    6 1
   3    1   32 1
   4    1   33 1
   5    2    3 1
   6    2   20 am
   7    3    4 1
   8    3   34 1
   9    3   35 1
  10    4    5 1
  11    4    7 2
  12    5    6 1
  13    5    9 1
  14    6   36 1
  15    6   37 1
  16    7    8 1
  17    7   12 1
  18    8    9 2
  19    9   10 1
  20   10   11 ar
  21   10   19 ar
  22   11   16 ar
  23   11   38 1
  24   12   13 2
  25   12   15 am
  26   14   15 1
  27   14   27 1
  28   14   31 1
  29   15   39 1
  30   16   17 ar
  31   16   40 1
  32   17   18 ar
  33   17   41 1
  34   18   19 ar
  35   18   42 1
  36   19   43 1
  37   20   21 1
  38   20   22 2
  39   21   23 1
  40   23   24 1
  41   23   25 1
  42   23   26 1
  43   24   44 1
  44   24   45 1
  45   24   46 1
  46   25   47 1
  47   25   48 1
  48   25   49 1
  49   26   50 1
  50   26   51 1
  51   26   52 1
  52   27   28 1
  53   27   53 1
  54   27   54 1
  55   28   29 1
  56   28   55 1
  57   28   56 1
  58   29   30 1
  59   29   57 1
  60   29   58 1
  61   30   31 1
  62   30   59 1
  63   30   60 1
  64   31   61 1
  65   31   62 1

#	End of record

