#	Name: ASD03082110
#	Creating user name:	WinNT
#	Creation time:	15. 06. 2019 20:27

#	Modifying user name:	WinNT
#	Modification time:	15. 06. 2019 20:27

#	Program:	/corina/corina34_cracker 3.40 0067  02.08.2006

@<TRIPOS>MOLECULE
ASD03082110
  53   56    0    0    0
SMALL
NO_CHARGES


@<TRIPOS>ATOM
   1 C1             0.0059     1.0202    -0.4244 C.3     
   2 C2             0.1319    -0.4895    -0.4865 C.2     
   3 C3             1.0844    -1.0281    -1.4634 C.2     
   4 C4             2.0638    -0.2574    -1.9354 C.2     
   5 C5             2.2742     1.1642    -1.5136 C.3     
   6 C6             1.4199     1.5932    -0.3342 C.3     
   7 C7             2.9963    -0.8539    -2.9738 C.3     
   8 C8             4.4415    -0.5658    -2.5613 C.3     
   9 C9             4.6181     0.9425    -2.3639 C.3     
  10 C10            3.7529     1.3969    -1.1794 C.3     
  11 C11            6.0643     1.2493    -2.0208 C.3     
  12 C12            6.1893     2.7916    -1.8956 C.3     
  13 C13            5.4507     3.1991    -0.6352 C.3     
  14 C14            3.9652     2.8727    -0.8554 C.3     
  15 O15           -0.5216    -1.2144     0.2342 O.2     
  16 C16            7.0884     0.9436    -3.1197 C.3     
  17 C17            8.2839     1.8617    -2.7458 C.3     
  18 C18            7.6967     3.0230    -1.9055 C.3     
  19 C19            5.5496     3.4643    -3.1118 C.3     
  20 C20            8.0175     4.3474    -2.5490 C.2     
  21 O21            8.2122     4.4089    -3.7392 O.2     
  22 C22            8.0953     5.5949    -1.7073 C.3     
  23 C23            1.9292     2.0661    -2.7004 C.3     
  24 H24           -0.4863     1.3882    -1.3246 H       
  25 H25           -0.5676     1.3082     0.4566 H       
  26 H26            0.9922    -2.0502    -1.8002 H       
  27 H27            1.3623     2.6815    -0.3139 H       
  28 H28            1.8861     1.2457     0.5878 H       
  29 H29            2.8400    -1.9312    -3.0293 H       
  30 H30            2.7969    -0.4031    -3.9459 H       
  31 H31            4.6639    -1.0836    -1.6283 H       
  32 H32            5.1189    -0.9127    -3.3416 H       
  33 H33            4.3200     1.4735    -3.2680 H       
  34 H34            4.0153     0.8074    -0.3009 H       
  35 H35            6.3417     0.7672    -1.0834 H       
  36 H36            5.8321     2.6368     0.2171 H       
  37 H37            5.5743     4.2681    -0.4614 H       
  38 H38            3.5875     3.4757    -1.6811 H       
  39 H39            3.4089     3.1218     0.0482 H       
  40 H40            7.3837    -0.1052    -3.0907 H       
  41 H41            6.6919     1.2068    -4.1004 H       
  42 H42            9.0131     1.3052    -2.1570 H       
  43 H43            8.7520     2.2530    -3.6491 H       
  44 H44            8.0905     2.9907    -0.8896 H       
  45 H45            4.4961     3.1900    -3.1665 H       
  46 H46            5.6388     4.5465    -3.0171 H       
  47 H47            6.0581     3.1357    -4.0181 H       
  48 H48            7.8921     5.3441    -0.6662 H       
  49 H49            9.0928     6.0267    -1.7890 H       
  50 H50            7.3572     6.3164    -2.0579 H       
  51 H51            0.8892     1.9084    -2.9863 H       
  52 H52            2.0745     3.1089    -2.4186 H       
  53 H53            2.5781     1.8233    -3.5419 H       
@<TRIPOS>BOND
   1    1    2 1
   2    1    6 1
   3    1   24 1
   4    1   25 1
   5    2    3 1
   6    2   15 2
   7    3    4 2
   8    3   26 1
   9    4    5 1
  10    4    7 1
  11    5    6 1
  12    5   23 1
  13    5   10 1
  14    6   27 1
  15    6   28 1
  16    7    8 1
  17    7   29 1
  18    7   30 1
  19    8    9 1
  20    8   31 1
  21    8   32 1
  22    9   10 1
  23    9   11 1
  24    9   33 1
  25   10   14 1
  26   10   34 1
  27   11   12 1
  28   11   16 1
  29   11   35 1
  30   12   13 1
  31   12   19 1
  32   12   18 1
  33   13   14 1
  34   13   36 1
  35   13   37 1
  36   14   38 1
  37   14   39 1
  38   16   17 1
  39   16   40 1
  40   16   41 1
  41   17   18 1
  42   17   42 1
  43   17   43 1
  44   18   20 1
  45   18   44 1
  46   19   45 1
  47   19   46 1
  48   19   47 1
  49   20   21 2
  50   20   22 1
  51   22   48 1
  52   22   49 1
  53   22   50 1
  54   23   51 1
  55   23   52 1
  56   23   53 1

#	End of record

