#	Name: ASD03082301
#	Creating user name:	WinNT
#	Creation time:	15. 06. 2019 20:27

#	Modifying user name:	WinNT
#	Modification time:	15. 06. 2019 20:27

#	Program:	/corina/corina34_cracker 3.40 0067  02.08.2006

@<TRIPOS>MOLECULE
ASD03082301
  49   51    0    0    0
SMALL
NO_CHARGES


@<TRIPOS>ATOM
   1 N1            -0.0133     1.4275     0.0787 N.pl3   
   2 N2            -0.0358     0.0277    -0.0320 N.2     
   3 C3             1.1985    -0.3892     0.1359 C.2     
   4 N4             1.9889     0.6645     0.3443 N.2     
   5 C5             1.2730     1.7705     0.3130 C.2     
   6 N6             1.6156    -1.7213     0.1022 N.pl3   
   7 C7             2.9724    -2.0328     0.2371 C.ar    
   8 C8             3.8012    -1.2156     0.9954 C.ar    
   9 C9             5.1417    -1.5229     1.1288 C.ar    
  10 C10            5.6616    -2.6446     0.5080 C.ar    
  11 C11            4.8365    -3.4649    -0.2514 C.ar    
  12 C12            3.4907    -3.1620    -0.3820 C.ar    
  13 C13            1.7868     3.1457     0.5013 C.ar    
  14 C14           -1.1560     2.3361    -0.0423 C.3     
  15 C15            0.9260     4.1942     0.8426 C.ar    
  16 C16            1.4476     5.4610     1.0084 C.ar    
  17 N17            2.7370     5.6888     0.8494 N.ar    
  18 C18            3.5829     4.7288     0.5278 C.ar    
  19 C19            3.1479     3.4319     0.3485 C.ar    
  20 C20           -1.8009     2.5147     1.3081 C.2     
  21 N21           -2.8784     3.3135     1.4399 N.am    
  22 C22           -3.5053     3.4871     2.7526 C.3     
  23 O23           -1.3503     1.9396     2.2761 O.2     
  24 C24           -3.4227     4.0082     0.2706 C.3     
  25 C25            5.0452     5.0522     0.3597 C.3     
  26 F26            6.9728    -2.9424     0.6399 F       
  27 O27            5.3482    -4.5668    -0.8615 O.3     
  28 C28            4.4421    -5.3645    -1.6262 C.3     
  29 H29            0.9644    -2.4306    -0.0146 H       
  30 H30            3.3976    -0.3392     1.4806 H       
  31 H31            5.7847    -0.8862     1.7184 H       
  32 H32            2.8469    -3.8010    -0.9683 H       
  33 H33           -0.8141     3.3027    -0.4123 H       
  34 H34           -1.8818     1.9165    -0.7388 H       
  35 H35           -0.1309     4.0150     0.9740 H       
  36 H36            0.7910     6.2772     1.2716 H       
  37 H37            3.8460     2.6510     0.0854 H       
  38 H38           -3.0443     4.3305     3.2667 H       
  39 H39           -4.5706     3.6782     2.6240 H       
  40 H40           -3.3672     2.5818     3.3437 H       
  41 H41           -4.1741     3.3802    -0.2079 H       
  42 H42           -3.8801     4.9461     0.5856 H       
  43 H43           -2.6188     4.2153    -0.4358 H       
  44 H44            5.5554     4.9352     1.3158 H       
  45 H45            5.4853     4.3749    -0.3722 H       
  46 H46            5.1525     6.0803     0.0140 H       
  47 H47            3.6457    -5.7314    -0.9788 H       
  48 H48            4.0117    -4.7606    -2.4251 H       
  49 H49            4.9778    -6.2099    -2.0581 H       
@<TRIPOS>BOND
   1    1    2 1
   2    1    5 1
   3    1   14 1
   4    2    3 2
   5    3    4 1
   6    3    6 1
   7    4    5 2
   8    5   13 1
   9    6    7 1
  10    6   29 1
  11    7    8 ar
  12    7   12 ar
  13    8    9 ar
  14    8   30 1
  15    9   10 ar
  16    9   31 1
  17   10   11 ar
  18   10   26 1
  19   11   12 ar
  20   11   27 1
  21   12   32 1
  22   13   15 ar
  23   13   19 ar
  24   14   20 1
  25   14   33 1
  26   14   34 1
  27   15   16 ar
  28   15   35 1
  29   16   17 ar
  30   16   36 1
  31   17   18 ar
  32   18   19 ar
  33   18   25 1
  34   19   37 1
  35   20   21 am
  36   20   23 2
  37   21   22 1
  38   21   24 1
  39   22   38 1
  40   22   39 1
  41   22   40 1
  42   24   41 1
  43   24   42 1
  44   24   43 1
  45   25   44 1
  46   25   45 1
  47   25   46 1
  48   27   28 1
  49   28   47 1
  50   28   48 1
  51   28   49 1

#	End of record

