#	Name: ASD01885993
#	Creating user name:	WinNT
#	Creation time:	15. 06. 2019 19:50

#	Modifying user name:	WinNT
#	Modification time:	15. 06. 2019 19:50

#	Program:	/corina/corina34_cracker 3.40 0067  02.08.2006

@<TRIPOS>MOLECULE
ASD01885993
  52   55    0    0    0
SMALL
NO_CHARGES


@<TRIPOS>ATOM
   1 C1             0.1303     2.3123    -0.2422 C.ar    
   2 C2            -0.0359     0.9049    -0.2908 C.ar    
   3 C3            -1.3473     0.3666    -0.3103 C.ar    
   4 C4            -2.4140     1.2538    -0.2805 C.ar    
   5 C5            -2.1646     2.6307    -0.2328 C.ar    
   6 N6            -0.9362     3.1112    -0.2099 N.ar    
   7 C7             1.4339     2.8454    -0.2229 C.ar    
   8 C8             2.5057     2.0084    -0.2510 C.ar    
   9 C9             2.3371     0.6257    -0.2988 C.ar    
  10 C10            1.0916     0.0737    -0.3182 C.ar    
  11 C11           -3.3097     3.5721    -0.2016 C.2     
  12 N12           -3.0887     4.9008    -0.1556 N.am    
  13 C13           -1.5718    -1.0965    -0.3615 C.ar    
  14 C14           -2.4777    -1.6875     0.5181 C.ar    
  15 C15           -2.6780    -3.0556     0.4590 C.ar    
  16 C16           -1.9643    -3.7901    -0.4800 C.ar    
  17 C17           -1.0794    -3.1362    -1.3236 C.ar    
  18 N18           -0.9127    -1.8325    -1.2482 N.ar    
  19 C19            3.8978     2.5854    -0.2307 C.3     
  20 F20           -2.1306    -5.1278    -0.5699 F       
  21 O21           -4.4473     3.1457    -0.2176 O.2     
  22 N22            4.3482     2.7252     1.1563 N.pl3   
  23 N23            3.7314     3.3629     2.0889 N.2     
  24 N24            4.3949     3.2918     3.1887 N.2     
  25 C25            5.5042     2.5741     2.9796 C.2     
  26 C26            5.4812     2.2013     1.6786 C.2     
  27 C27            6.5676     2.2414     3.9942 C.3     
  28 O28            6.7517     0.8252     4.0444 O.3     
  29 C29            6.1350     2.7486     5.3714 C.3     
  30 C30            4.8555     2.0283     5.8014 C.3     
  31 C31            7.8828     2.9128     3.5935 C.3     
  32 F32            7.6756     4.2874     3.4360 F       
  33 F33            8.8396     2.6966     4.5910 F       
  34 F34            8.3357     2.3682     2.3871 F       
  35 H35           -3.4290     0.8849    -0.2943 H       
  36 H36            1.5819     3.9146    -0.1864 H       
  37 H37            3.2051    -0.0166    -0.3203 H       
  38 H38            0.9741    -0.9993    -0.3549 H       
  39 H39           -2.1805     5.2413    -0.1429 H       
  40 H40           -3.8379     5.5167    -0.1352 H       
  41 H41           -3.0154    -1.0860     1.2360 H       
  42 H42           -3.3731    -3.5414     1.1278 H       
  43 H43           -0.5223    -3.7032    -2.0547 H       
  44 H44            4.5746     1.9204    -0.7672 H       
  45 H45            3.8927     3.5636    -0.7114 H       
  46 H46            6.2212     1.6097     1.1602 H       
  47 H47            5.9567     0.3338     4.2927 H       
  48 H48            6.9247     2.5504     6.0961 H       
  49 H49            5.9487     3.8214     5.3214 H       
  50 H50            5.0631     0.9663     5.9328 H       
  51 H51            4.5009     2.4484     6.7426 H       
  52 H52            4.0911     2.1570     5.0351 H       
@<TRIPOS>BOND
   1    1    2 ar
   2    1    7 ar
   3    1    6 ar
   4    2    3 ar
   5    2   10 ar
   6    3    4 ar
   7    3   13 1
   8    4    5 ar
   9    4   35 1
  10    5    6 ar
  11    5   11 1
  12    7    8 ar
  13    7   36 1
  14    8    9 ar
  15    8   19 1
  16    9   10 ar
  17    9   37 1
  18   10   38 1
  19   11   12 am
  20   11   21 2
  21   12   39 1
  22   12   40 1
  23   13   14 ar
  24   13   18 ar
  25   14   15 ar
  26   14   41 1
  27   15   16 ar
  28   15   42 1
  29   16   17 ar
  30   16   20 1
  31   17   18 ar
  32   17   43 1
  33   19   22 1
  34   19   44 1
  35   19   45 1
  36   22   23 1
  37   22   26 1
  38   23   24 2
  39   24   25 1
  40   25   26 2
  41   25   27 1
  42   26   46 1
  43   27   31 1
  44   27   28 1
  45   27   29 1
  46   28   47 1
  47   29   30 1
  48   29   48 1
  49   29   49 1
  50   30   50 1
  51   30   51 1
  52   30   52 1
  53   31   32 1
  54   31   33 1
  55   31   34 1

#	End of record

