#	Name: ASD03091638
#	Creating user name:	WinNT
#	Creation time:	15. 06. 2019 20:31

#	Modifying user name:	WinNT
#	Modification time:	15. 06. 2019 20:31

#	Program:	/corina/corina34_cracker 3.40 0067  02.08.2006

@<TRIPOS>MOLECULE
ASD03091638
  64   67    0    0    0
SMALL
NO_CHARGES


@<TRIPOS>ATOM
   1 C1            -0.0803     1.3930    -0.2061 C.2     
   2 C2             0.0453     0.0711     0.0341 C.2     
   3 N3            -1.0940    -0.5517     0.2447 N.2     
   4 C4            -2.1768     0.1647     0.1971 C.2     
   5 S5            -1.7937     1.7971    -0.1354 S.3     
   6 N6            -3.4561    -0.3227     0.3935 N.3     
   7 C7            -4.4533     0.7506     0.2713 C.3     
   8 C8            -3.7521    -1.4177    -0.5418 C.3     
   9 C9            -5.1516    -1.9659    -0.2508 C.3     
  10 O10           -6.1034    -0.9025    -0.3436 O.3     
  11 C11           -5.8458     0.1807     0.5541 C.3     
  12 C12           -6.8964     1.2741     0.3502 C.3     
  13 C13           -5.4975    -3.0516    -1.2718 C.3     
  14 C14            1.0235     2.3354    -0.4744 C.ar    
  15 C15            0.9594     3.2329    -1.5487 C.ar    
  16 C16            2.1625     2.3617     0.3415 C.ar    
  17 C17            3.1689     3.2582     0.0545 C.ar    
  18 N18            3.0697     4.0837    -0.9711 N.ar    
  19 C19            2.0127     4.0954    -1.7619 C.ar    
  20 C20            1.3779    -0.6322     0.0589 C.3     
  21 C21            4.3994     3.2973     0.9236 C.3     
  22 N22            1.8600    -0.7164     1.4397 N.am    
  23 C23            3.0407    -1.3091     1.7063 C.2     
  24 C24            3.5366    -1.3957     3.1267 C.3     
  25 O25            3.7041    -1.7727     0.8031 O.2     
  26 C26            1.9596     5.0618    -2.9171 C.3     
  27 C27            2.8389    -2.5589     3.8559 C.3     
  28 N28            4.9871    -1.6847     3.1373 N.3     
  29 C29            5.2165    -2.5627     4.3131 C.3     
  30 C30            3.9820    -3.4989     4.3027 C.3     
  31 C31            5.7698    -0.4462     3.2443 C.3     
  32 H32           -4.2297     1.5387     0.9902 H       
  33 H33           -4.4257     1.1598    -0.7386 H       
  34 H34           -3.7133    -1.0432    -1.5647 H       
  35 H35           -3.0166    -2.2123    -0.4163 H       
  36 H36           -5.1753    -2.3890     0.7534 H       
  37 H37           -5.8896    -0.1800     1.5818 H       
  38 H38           -7.8879     0.8667     0.5480 H       
  39 H39           -6.6996     2.0993     1.0346 H       
  40 H40           -6.8503     1.6352    -0.6772 H       
  41 H41           -4.7695    -3.8600    -1.2033 H       
  42 H42           -6.4940    -3.4415    -1.0641 H       
  43 H43           -5.4754    -2.6269    -2.2754 H       
  44 H44            0.0978     3.2481    -2.1997 H       
  45 H45            2.2501     1.6898     1.1825 H       
  46 H46            1.2662    -1.6368    -0.3489 H       
  47 H47            2.0948    -0.0735    -0.5428 H       
  48 H48            5.1457     2.6083     0.5279 H       
  49 H49            4.8065     4.3084     0.9317 H       
  50 H50            4.1361     3.0034     1.9396 H       
  51 H51            1.3294    -0.3455     2.1621 H       
  52 H52            3.3379    -0.4587     3.6470 H       
  53 H53            2.3925     4.5947    -3.8017 H       
  54 H54            0.9227     5.3305    -3.1187 H       
  55 H55            2.5253     5.9592    -2.6664 H       
  56 H56            2.2929    -2.1883     4.7235 H       
  57 H57            2.1637    -3.0802     3.1774 H       
  58 H58            6.1353    -3.1363     4.1915 H       
  59 H59            5.2466    -1.9761     5.2313 H       
  60 H60            3.7890    -3.8939     5.3001 H       
  61 H61            4.1180    -4.3086     3.5857 H       
  62 H62            5.5095     0.0694     4.1687 H       
  63 H63            6.8328    -0.6876     3.2499 H       
  64 H64            5.5481     0.1984     2.3938 H       
@<TRIPOS>BOND
   1    1    2 2
   2    1   14 1
   3    1    5 1
   4    2    3 1
   5    2   20 1
   6    3    4 2
   7    4    5 1
   8    4    6 1
   9    6    7 1
  10    6    8 1
  11    7   11 1
  12    7   32 1
  13    7   33 1
  14    8    9 1
  15    8   34 1
  16    8   35 1
  17    9   10 1
  18    9   13 1
  19    9   36 1
  20   10   11 1
  21   11   12 1
  22   11   37 1
  23   12   38 1
  24   12   39 1
  25   12   40 1
  26   13   41 1
  27   13   42 1
  28   13   43 1
  29   14   15 ar
  30   14   16 ar
  31   15   19 ar
  32   15   44 1
  33   16   17 ar
  34   16   45 1
  35   17   18 ar
  36   17   21 1
  37   18   19 ar
  38   19   26 1
  39   20   22 1
  40   20   46 1
  41   20   47 1
  42   21   48 1
  43   21   49 1
  44   21   50 1
  45   22   23 am
  46   22   51 1
  47   23   24 1
  48   23   25 2
  49   24   27 1
  50   24   28 1
  51   24   52 1
  52   26   53 1
  53   26   54 1
  54   26   55 1
  55   27   30 1
  56   27   56 1
  57   27   57 1
  58   28   29 1
  59   28   31 1
  60   29   30 1
  61   29   58 1
  62   29   59 1
  63   30   60 1
  64   30   61 1
  65   31   62 1
  66   31   63 1
  67   31   64 1

#	End of record

