#	Name: ASD09116519
#	Creating user name:	WinNT
#	Creation time:	15. 06. 2019 21:21

#	Modifying user name:	WinNT
#	Modification time:	15. 06. 2019 21:21

#	Program:	/corina/corina34_cracker 3.40 0067  02.08.2006

@<TRIPOS>MOLECULE
ASD09116519
  74   80    0    0    0
SMALL
NO_CHARGES


@<TRIPOS>ATOM
   1 N1            -0.5536     3.8704    -0.5916 N.2     
   2 N2            -1.0772     4.8537    -1.4464 N.pl3   
   3 C3             0.7528     3.9363    -0.6873 C.2     
   4 N4             1.0784     4.9039    -1.5525 N.2     
   5 C5            -0.0152     5.4671    -2.0195 C.2     
   6 N6            -0.0700     6.5022    -2.9334 N.pl3   
   7 C7            -2.4261     5.1411    -1.6631 C.ar    
   8 N8             1.6572     3.1285     0.0023 N.pl3   
   9 C9             3.0298     3.3714    -0.0996 C.ar    
  10 C10            3.5072     4.6663    -0.3016 C.ar    
  11 C11            3.9407     2.3279     0.0044 C.ar    
  12 N12            5.2369     2.5490    -0.0912 N.ar    
  13 C13            5.7159     3.7649    -0.2891 C.ar    
  14 C14            4.8771     4.8429    -0.3945 C.ar    
  15 N15           -2.7887     6.3475    -2.0729 N.ar    
  16 N16           -4.0171     6.6664    -2.2779 N.ar    
  17 C17           -4.9996     5.8003    -2.0885 C.ar    
  18 C18           -4.7102     4.4962    -1.6768 C.ar    
  19 C19           -3.3931     4.1547    -1.4532 C.ar    
  20 C20           -6.4194     6.1808    -2.2716 C.ar    
  21 C21           -7.3357     5.8726    -1.2648 C.ar    
  22 C22           -6.8506     5.2155    -0.0017 C.3     
  23 C23           -6.5792     3.7289    -0.2162 C.3     
  24 C24           -5.8223     3.5002    -1.5218 C.3     
  25 C25           -6.8453     6.8308    -3.4247 C.ar    
  26 C26           -8.1806     7.1516    -3.5751 C.ar    
  27 C27           -9.0889     6.8253    -2.5844 C.ar    
  28 C28           -8.6675     6.1863    -1.4312 C.ar    
  29 C29            7.2148     3.9642    -0.3980 C.3     
  30 C30            7.5560     4.3034    -1.8484 C.3     
  31 C31            7.4222     5.7941    -2.1140 C.3     
  32 C32            5.9924     6.3057    -2.0459 C.3     
  33 C33            5.4437     6.2293    -0.6158 C.3     
  34 O34            8.2148     6.5075    -1.1505 O.3     
  35 C35            9.5952     6.1343    -1.1573 C.3     
  36 C36           10.1762     6.3989    -2.5507 C.3     
  37 C37            9.3108     5.6786    -3.5903 C.3     
  38 O38            7.9489     6.0788    -3.4209 O.3     
  39 C39           10.1706     7.9028    -2.8317 C.3     
  40 C40           11.6091     5.8667    -2.6185 C.3     
  41 H41            0.7500     6.8787    -3.2895 H       
  42 H42           -0.9284     6.8522    -3.2189 H       
  43 H43            1.3334     2.3982     0.5526 H       
  44 H44            2.8302     5.5037    -0.3833 H       
  45 H45            3.5823     1.3220     0.1661 H       
  46 H46           -3.1199     3.1642    -1.1205 H       
  47 H47           -5.9312     5.7026     0.3232 H       
  48 H48           -7.6075     5.3315     0.7740 H       
  49 H49           -5.9845     3.3492     0.6146 H       
  50 H50           -7.5274     3.1926    -0.2524 H       
  51 H51           -6.5131     3.6010    -2.3589 H       
  52 H52           -5.4045     2.4934    -1.5222 H       
  53 H53           -6.1358     7.0838    -4.1986 H       
  54 H54           -8.5158     7.6584    -4.4680 H       
  55 H55          -10.1329     7.0709    -2.7113 H       
  56 H56           -9.3822     5.9333    -0.6620 H       
  57 H57            7.5234     4.7832     0.2518 H       
  58 H58            7.7281     3.0481    -0.1058 H       
  59 H59            8.5807     3.9947    -2.0553 H       
  60 H60            6.8806     3.7611    -2.5100 H       
  61 H61            5.9676     7.3422    -2.3825 H       
  62 H62            5.3657     5.7029    -2.7032 H       
  63 H63            4.6563     6.9717    -0.4853 H       
  64 H64            6.2482     6.4154     0.0957 H       
  65 H65           10.1364     6.7250    -0.4182 H       
  66 H66            9.6879     5.0748    -0.9186 H       
  67 H67            9.6471     5.9449    -4.5924 H       
  68 H68            9.3942     4.6008    -3.4506 H       
  69 H69           10.7761     8.4145    -2.0836 H       
  70 H70           10.5841     8.0887    -3.8230 H       
  71 H71            9.1476     8.2766    -2.7888 H       
  72 H72           11.6079     4.7941    -2.4242 H       
  73 H73           12.0203     6.0558    -3.6101 H       
  74 H74           12.2198     6.3709    -1.8696 H       
@<TRIPOS>BOND
   1    1    2 1
   2    1    3 2
   3    2    7 1
   4    2    5 1
   5    3    4 1
   6    3    8 1
   7    4    5 2
   8    5    6 1
   9    6   41 1
  10    6   42 1
  11    7   15 ar
  12    7   19 ar
  13    8    9 1
  14    8   43 1
  15    9   10 ar
  16    9   11 ar
  17   10   14 ar
  18   10   44 1
  19   11   12 ar
  20   11   45 1
  21   12   13 ar
  22   13   14 ar
  23   13   29 1
  24   14   33 1
  25   15   16 ar
  26   16   17 ar
  27   17   18 ar
  28   17   20 1
  29   18   19 ar
  30   18   24 1
  31   19   46 1
  32   20   21 ar
  33   20   25 ar
  34   21   22 1
  35   21   28 ar
  36   22   23 1
  37   22   47 1
  38   22   48 1
  39   23   24 1
  40   23   49 1
  41   23   50 1
  42   24   51 1
  43   24   52 1
  44   25   26 ar
  45   25   53 1
  46   26   27 ar
  47   26   54 1
  48   27   28 ar
  49   27   55 1
  50   28   56 1
  51   29   30 1
  52   29   57 1
  53   29   58 1
  54   30   31 1
  55   30   59 1
  56   30   60 1
  57   31   32 1
  58   31   34 1
  59   31   38 1
  60   32   33 1
  61   32   61 1
  62   32   62 1
  63   33   63 1
  64   33   64 1
  65   34   35 1
  66   35   36 1
  67   35   65 1
  68   35   66 1
  69   36   37 1
  70   36   39 1
  71   36   40 1
  72   37   38 1
  73   37   67 1
  74   37   68 1
  75   39   69 1
  76   39   70 1
  77   39   71 1
  78   40   72 1
  79   40   73 1
  80   40   74 1

#	End of record

