#	Name: ASD03240059
#	Creating user name:	WinNT
#	Creation time:	15. 06. 2019 20:34

#	Modifying user name:	WinNT
#	Modification time:	15. 06. 2019 20:34

#	Program:	/corina/corina34_cracker 3.40 0067  02.08.2006

@<TRIPOS>MOLECULE
ASD03240059
  70   76    0    0    0
SMALL
NO_CHARGES


@<TRIPOS>ATOM
   1 C1             0.0560     1.4980     0.1652 C.ar    
   2 C2            -0.0622     0.1022    -0.0589 C.ar    
   3 N3             1.2663     2.0656     0.2079 N.ar    
   4 C4             2.3452     1.3234     0.0412 C.ar    
   5 C5             2.2272    -0.0708    -0.1832 C.ar    
   6 N6             1.0373    -0.6408    -0.2267 N.ar    
   7 C7             3.4454    -0.8930    -0.3694 C.ar    
   8 C8             3.6862     1.9514     0.0884 C.ar    
   9 C9             3.9248     3.1447    -0.5928 C.ar    
  10 C10            5.1757     3.7250    -0.5447 C.ar    
  11 C11            6.1922     3.1253     0.1770 C.ar    
  12 C12            5.9616     1.9415     0.8548 C.ar    
  13 C13            4.7133     1.3546     0.8189 C.ar    
  14 C14            3.5737    -2.1141     0.2918 C.ar    
  15 C15            4.7105    -2.8757     0.1140 C.ar    
  16 C16            5.7220    -2.4299    -0.7178 C.ar    
  17 C17            5.6005    -1.2194    -1.3765 C.ar    
  18 C18            4.4660    -0.4516    -1.2112 C.ar    
  19 C19            6.9614    -3.2660    -0.9069 C.3     
  20 N20            6.7668    -4.1810    -2.0395 N.3     
  21 C21            8.0263    -4.8417    -2.4048 C.3     
  22 C22            7.8190    -5.6722    -3.6734 C.3     
  23 C23            6.7277    -6.7163    -3.4214 C.3     
  24 C24            5.4403    -6.0050    -2.9957 C.3     
  25 C25            5.7166    -5.1648    -1.7468 C.3     
  26 C26            6.4770    -7.4978    -4.6852 C.2     
  27 C27            5.6236    -7.1182    -5.7210 C.2     
  28 C28            5.6732    -8.0888    -6.6817 C.2     
  29 N29            6.5398    -9.0469    -6.2463 N.pl3   
  30 N30            7.0281    -8.6437    -4.9968 N.2     
  31 C31           -1.3404    -0.4818    -0.1009 C.ar    
  32 C32           -2.4442     0.2953     0.0730 C.ar    
  33 C33           -2.3282     1.6668     0.2927 C.ar    
  34 C34           -1.1074     2.2665     0.3457 C.ar    
  35 C35            4.9248    -8.0982    -7.9577 C.ar    
  36 C36            5.0619    -9.1558    -8.8640 C.ar    
  37 C37            4.3449    -9.1243   -10.0417 C.ar    
  38 N38            3.5398    -8.1160   -10.3181 N.ar    
  39 C39            3.3816    -7.0996    -9.4917 C.ar    
  40 C40            4.0556    -7.0528    -8.2893 C.ar    
  41 H41            3.1322     3.6134    -1.1571 H       
  42 H42            5.3617     4.6491    -1.0718 H       
  43 H43            7.1699     3.5829     0.2112 H       
  44 H44            6.7592     1.4778     1.4163 H       
  45 H45            4.5345     0.4305     1.3484 H       
  46 H46            2.7850    -2.4628     0.9421 H       
  47 H47            4.8110    -3.8215     0.6256 H       
  48 H48            6.3937    -0.8764    -2.0244 H       
  49 H49            4.3722     0.4932    -1.7259 H       
  50 H50            7.8120    -2.6146    -1.1081 H       
  51 H51            7.1519    -3.8432    -0.0021 H       
  52 H52            8.7927    -4.0880    -2.5853 H       
  53 H53            8.3434    -5.4942    -1.5913 H       
  54 H54            7.5153    -5.0183    -4.4908 H       
  55 H55            8.7500    -6.1749    -3.9354 H       
  56 H56            7.0479    -7.3943    -2.6302 H       
  57 H57            5.0992    -5.3563    -3.8025 H       
  58 H58            4.6718    -6.7454    -2.7736 H       
  59 H59            6.0445    -5.8158    -0.9363 H       
  60 H60            4.8054    -4.6457    -1.4494 H       
  61 H61            5.0288    -6.2175    -5.7571 H       
  62 H62            6.7776    -9.8603    -6.7181 H       
  63 H63           -1.4461    -1.5431    -0.2710 H       
  64 H64           -3.4243    -0.1573     0.0400 H       
  65 H65           -3.2196     2.2615     0.4271 H       
  66 H66           -1.0331     3.3303     0.5167 H       
  67 H67            5.7196    -9.9839    -8.6446 H       
  68 H68            4.4440    -9.9357   -10.7475 H       
  69 H69            2.7119    -6.2954    -9.7586 H       
  70 H70            3.9212    -6.2177    -7.6178 H       
@<TRIPOS>BOND
   1    1    2 ar
   2    1    3 ar
   3    1   34 ar
   4    2   31 ar
   5    2    6 ar
   6    3    4 ar
   7    4    5 ar
   8    4    8 1
   9    5    6 ar
  10    5    7 1
  11    7   14 ar
  12    7   18 ar
  13    8    9 ar
  14    8   13 ar
  15    9   10 ar
  16    9   41 1
  17   10   11 ar
  18   10   42 1
  19   11   12 ar
  20   11   43 1
  21   12   13 ar
  22   12   44 1
  23   13   45 1
  24   14   15 ar
  25   14   46 1
  26   15   16 ar
  27   15   47 1
  28   16   17 ar
  29   16   19 1
  30   17   18 ar
  31   17   48 1
  32   18   49 1
  33   19   20 1
  34   19   50 1
  35   19   51 1
  36   20   21 1
  37   20   25 1
  38   21   22 1
  39   21   52 1
  40   21   53 1
  41   22   23 1
  42   22   54 1
  43   22   55 1
  44   23   24 1
  45   23   26 1
  46   23   56 1
  47   24   25 1
  48   24   57 1
  49   24   58 1
  50   25   59 1
  51   25   60 1
  52   26   27 1
  53   26   30 2
  54   27   28 2
  55   27   61 1
  56   28   29 1
  57   28   35 1
  58   29   30 1
  59   29   62 1
  60   31   32 ar
  61   31   63 1
  62   32   33 ar
  63   32   64 1
  64   33   34 ar
  65   33   65 1
  66   34   66 1
  67   35   36 ar
  68   35   40 ar
  69   36   37 ar
  70   36   67 1
  71   37   38 ar
  72   37   68 1
  73   38   39 ar
  74   39   40 ar
  75   39   69 1
  76   40   70 1

#	End of record

