#	Name: ASD04910008
#	Creating user name:	WinNT
#	Creation time:	15. 06. 2019 20:55

#	Modifying user name:	WinNT
#	Modification time:	15. 06. 2019 20:55

#	Program:	/corina/corina34_cracker 3.40 0067  02.08.2006

@<TRIPOS>MOLECULE
ASD04910008
  59   62    0    0    0
SMALL
NO_CHARGES


@<TRIPOS>ATOM
   1 C1             1.3304     1.5671     2.0523 C.2     
   2 C2             1.1506     0.0981     1.7680 C.3     
   3 C3             2.5185    -0.5486     1.5410 C.3     
   4 O4             2.4389     2.0474     2.0715 O.2     
   5 O5             0.2588     2.3430     2.2789 O.3     
   6 C6             3.4193    -2.7546     1.0317 C.2     
   7 C7             3.2429    -4.1957     0.7527 C.ar    
   8 C8             4.3547    -5.0041     0.5111 C.ar    
   9 C9             4.1832    -6.3482     0.2519 C.ar    
  10 C10            2.9124    -6.8951     0.2307 C.ar    
  11 C11            1.8061    -6.0993     0.4694 C.ar    
  12 C12            1.9641    -4.7549     0.7356 C.ar    
  13 O13            4.5345    -2.2713     1.0510 O.2     
  14 N14            2.3437    -1.9766     1.2646 N.am    
  15 C15            2.7326    -8.3640    -0.0541 C.3     
  16 O16            1.6359    -8.8669     0.7117 O.3     
  17 C17            1.7747   -10.1089     1.2465 C.ar    
  18 C18            2.8895   -10.8756     0.9393 C.ar    
  19 C19            3.0312   -12.1370     1.4826 C.ar    
  20 C20            2.0579   -12.6381     2.3364 C.ar    
  21 C21            0.9425   -11.8706     2.6435 C.ar    
  22 C22            0.8044   -10.6072     2.1039 C.ar    
  23 N23            2.2011   -13.9200     2.8883 N.pl3   
  24 N24            3.2693   -14.7986     2.6660 N.2     
  25 C25            3.0482   -15.8927     3.3497 C.2     
  26 C26            1.8339   -15.7469     4.0288 C.2     
  27 C27            1.3356   -14.5236     3.7335 C.2     
  28 C28            1.1963   -16.7688     4.9344 C.3     
  29 F29            2.0091   -17.9056     4.9999 F       
  30 F30            1.0470   -16.2278     6.2158 F       
  31 F31           -0.0592   -17.1219     4.4280 F       
  32 C32            2.4481    -8.5635    -1.5441 C.3     
  33 C33            2.2478   -10.0356    -1.9413 C.3     
  34 C34            1.1179    -9.5508    -2.8649 C.3     
  35 C35            0.9748    -8.3420    -1.9250 C.3     
  36 H36            0.6595    -0.3787     2.6163 H       
  37 H37            0.5371    -0.0268     0.8757 H       
  38 H38            3.0096    -0.0718     0.6928 H       
  39 H39            3.1320    -0.4237     2.4333 H       
  40 H40            0.4242     3.2790     2.4567 H       
  41 H41            5.3471    -4.5783     0.5267 H       
  42 H42            5.0427    -6.9749     0.0648 H       
  43 H43            0.8169    -6.5324     0.4515 H       
  44 H44            1.1001    -4.1357     0.9262 H       
  45 H45            1.4537    -2.3623     1.2492 H       
  46 H46            3.6416    -8.9007     0.2173 H       
  47 H47            3.6464   -10.4858     0.2748 H       
  48 H48            3.8988   -12.7338     1.2431 H       
  49 H49            0.1851   -12.2600     3.3077 H       
  50 H50           -0.0610   -10.0083     2.3462 H       
  51 H51            3.6923   -16.7590     3.3835 H       
  52 H52            0.4113   -14.1059     4.1041 H       
  53 H53            3.1509    -8.0302    -2.1843 H       
  54 H54            3.0960   -10.4627    -2.4763 H       
  55 H55            1.9020   -10.6657    -1.1219 H       
  56 H56            1.4559    -9.2871    -3.8670 H       
  57 H57            0.2466   -10.2057    -2.8696 H       
  58 H58            0.2809    -8.5092    -1.1012 H       
  59 H59            0.7953    -7.4021    -2.4468 H       
@<TRIPOS>BOND
   1    1    2 1
   2    1    4 2
   3    1    5 1
   4    2    3 1
   5    2   36 1
   6    2   37 1
   7    3   14 1
   8    3   38 1
   9    3   39 1
  10    5   40 1
  11    6    7 1
  12    6   13 2
  13    6   14 am
  14    7    8 ar
  15    7   12 ar
  16    8    9 ar
  17    8   41 1
  18    9   10 ar
  19    9   42 1
  20   10   11 ar
  21   10   15 1
  22   11   12 ar
  23   11   43 1
  24   12   44 1
  25   14   45 1
  26   15   16 1
  27   15   32 1
  28   15   46 1
  29   16   17 1
  30   17   18 ar
  31   17   22 ar
  32   18   19 ar
  33   18   47 1
  34   19   20 ar
  35   19   48 1
  36   20   21 ar
  37   20   23 1
  38   21   22 ar
  39   21   49 1
  40   22   50 1
  41   23   24 1
  42   23   27 1
  43   24   25 2
  44   25   26 1
  45   25   51 1
  46   26   27 2
  47   26   28 1
  48   27   52 1
  49   28   29 1
  50   28   30 1
  51   28   31 1
  52   32   33 1
  53   32   35 1
  54   32   53 1
  55   33   34 1
  56   33   54 1
  57   33   55 1
  58   34   35 1
  59   34   56 1
  60   34   57 1
  61   35   58 1
  62   35   59 1

#	End of record

