#	Name: ASD02198003
#	Creating user name:	WinNT
#	Creation time:	15. 06. 2019 20:18

#	Modifying user name:	WinNT
#	Modification time:	15. 06. 2019 20:18

#	Program:	/corina/corina34_cracker 3.40 0067  02.08.2006

@<TRIPOS>MOLECULE
ASD02198003
  41   44    0    0    0
SMALL
NO_CHARGES


@<TRIPOS>ATOM
   1 C1             0.0337     1.2490    -0.4816 C.2     
   2 N2             0.0021    -0.0041     0.0020 N.am    
   3 C3             1.1504    -0.6031     0.4935 C.ar    
   4 C4             2.3508     0.1307     0.4742 C.ar    
   5 C5             2.3289     1.4998    -0.0674 C.2     
   6 N6             1.1534     1.9881    -0.5210 N.am    
   7 C7             3.5193    -0.4506     0.9637 C.ar    
   8 C8             3.4431    -1.7441     1.4542 C.ar    
   9 C9             2.2274    -2.4061     1.4420 C.ar    
  10 N10            1.1347    -1.8348     0.9733 N.ar    
  11 O11           -0.9970     1.7333    -0.9071 O.2     
  12 O12            3.3408     2.1729    -0.1046 O.2     
  13 C13            1.1002     3.3473    -1.0650 C.3     
  14 C14            1.4930     5.7962     1.7850 C.ar    
  15 C15            1.8133     4.9083     0.7755 C.ar    
  16 C16            0.7927     4.3205     0.0437 C.ar    
  17 C17           -0.5174     4.6498     0.3561 C.ar    
  18 C18           -0.7608     5.5465     1.3791 C.ar    
  19 N19            0.2351     6.0860     2.0544 N.ar    
  20 C20           -1.2061    -0.7129     0.0098 C.ar    
  21 C21           -2.0528    -0.6327     1.1077 C.ar    
  22 C22           -3.2432    -1.3327     1.1123 C.ar    
  23 C23           -3.5925    -2.1130     0.0252 C.ar    
  24 C24           -2.7517    -2.1948    -1.0693 C.ar    
  25 C25           -1.5622    -1.4925    -1.0824 C.ar    
  26 N26           -4.1460    -1.2482     2.2823 N.pl3   
  27 O27           -3.8388    -0.5615     3.2402 O.2     
  28 O28           -5.1960    -1.8653     2.2870 O.2     
  29 H29            4.4543     0.0900     0.9605 H       
  30 H30            4.3249    -2.2320     1.8426 H       
  31 H31            2.1724    -3.4145     1.8249 H       
  32 H32            2.0624     3.5977    -1.5118 H       
  33 H33            0.3209     3.4042    -1.8250 H       
  34 H34            2.2819     6.2549     2.3625 H       
  35 H35            2.8454     4.6753     0.5593 H       
  36 H36           -1.3373     4.2113    -0.1934 H       
  37 H37           -1.7785     5.8082     1.6286 H       
  38 H38           -1.7804    -0.0238     1.9571 H       
  39 H39           -4.5238    -2.6598     0.0313 H       
  40 H40           -3.0272    -2.8050    -1.9168 H       
  41 H41           -0.9081    -1.5530    -1.9397 H       
@<TRIPOS>BOND
   1    1    2 am
   2    1    6 am
   3    1   11 2
   4    2    3 1
   5    2   20 1
   6    3    4 ar
   7    3   10 ar
   8    4    5 1
   9    4    7 ar
  10    5    6 am
  11    5   12 2
  12    6   13 1
  13    7    8 ar
  14    7   29 1
  15    8    9 ar
  16    8   30 1
  17    9   10 ar
  18    9   31 1
  19   13   16 1
  20   13   32 1
  21   13   33 1
  22   14   15 ar
  23   14   19 ar
  24   14   34 1
  25   15   16 ar
  26   15   35 1
  27   16   17 ar
  28   17   18 ar
  29   17   36 1
  30   18   19 ar
  31   18   37 1
  32   20   21 ar
  33   20   25 ar
  34   21   22 ar
  35   21   38 1
  36   22   23 ar
  37   22   26 1
  38   23   24 ar
  39   23   39 1
  40   24   25 ar
  41   24   40 1
  42   25   41 1
  43   26   27 2
  44   26   28 2

#	End of record

