#	Name: ASD01884605
#	Creating user name:	WinNT
#	Creation time:	15. 06. 2019 19:48

#	Modifying user name:	WinNT
#	Modification time:	15. 06. 2019 19:48

#	Program:	/corina/corina34_cracker 3.40 0067  02.08.2006

@<TRIPOS>MOLECULE
ASD01884605
  38   40    0    0    0
SMALL
NO_CHARGES


@<TRIPOS>ATOM
   1 C1            -0.0164     1.3575     0.0095 C.2     
   2 C2             0.0021    -0.0041     0.0020 C.2     
   3 C3             1.2441    -0.6750    -0.0134 C.2     
   4 C4             2.4025     0.0467    -0.0206 C.2     
   5 N5             2.3701     1.4022    -0.0130 N.am    
   6 C6             1.1988     2.0651     0.0017 C.2     
   7 O7             1.1913     3.2854     0.0083 O.2     
   8 C8             3.6267     2.1552    -0.0205 C.3     
   9 C9             1.2900    -2.1582    -0.0214 C.ar    
  10 C10            4.0446     2.4211    -1.4438 C.ar    
  11 C11            3.6208     3.5699    -2.0851 C.ar    
  12 C12            4.0030     3.8149    -3.3911 C.ar    
  13 C13            4.8092     2.9114    -4.0567 C.ar    
  14 C14            5.2348     1.7604    -3.4150 C.ar    
  15 C15            4.8561     1.5189    -2.1055 C.ar    
  16 C16            0.8131    -2.8784     1.0721 C.ar    
  17 C17            1.8048    -2.8360    -1.1246 C.ar    
  18 C18            1.8451    -4.2156    -1.1266 C.ar    
  19 C19            1.3756    -4.9253    -0.0361 C.ar    
  20 C20            0.8582    -4.2577     1.0594 C.ar    
  21 F21            6.0230     0.8763    -4.0648 F       
  22 C22            1.4222    -6.4316    -0.0441 C.3     
  23 H23           -0.9563     1.8894     0.0168 H       
  24 H24           -0.9217    -0.5636     0.0082 H       
  25 H25            3.3529    -0.4662    -0.0321 H       
  26 H26            3.4856     3.1026     0.4997 H       
  27 H27            4.4005     1.5758     0.4831 H       
  28 H28            2.9903     4.2764    -1.5658 H       
  29 H29            3.6710     4.7126    -3.8913 H       
  30 H30            5.1070     3.1027    -5.0770 H       
  31 H31            5.1874     0.6215    -1.6041 H       
  32 H32            0.4093    -2.3581     1.9281 H       
  33 H33            2.1713    -2.2828    -1.9767 H       
  34 H34            2.2436    -4.7419    -1.9813 H       
  35 H35            0.4934    -4.8168     1.9083 H       
  36 H36            2.3706    -6.7679     0.3748 H       
  37 H37            0.6007    -6.8237     0.5554 H       
  38 H38            1.3291    -6.7925    -1.0684 H       
@<TRIPOS>BOND
   1    1    2 2
   2    1    6 1
   3    1   23 1
   4    2    3 1
   5    2   24 1
   6    3    4 2
   7    3    9 1
   8    4    5 1
   9    4   25 1
  10    5    6 am
  11    5    8 1
  12    6    7 2
  13    8   10 1
  14    8   26 1
  15    8   27 1
  16    9   16 ar
  17    9   17 ar
  18   10   11 ar
  19   10   15 ar
  20   11   12 ar
  21   11   28 1
  22   12   13 ar
  23   12   29 1
  24   13   14 ar
  25   13   30 1
  26   14   15 ar
  27   14   21 1
  28   15   31 1
  29   16   20 ar
  30   16   32 1
  31   17   18 ar
  32   17   33 1
  33   18   19 ar
  34   18   34 1
  35   19   20 ar
  36   19   22 1
  37   20   35 1
  38   22   36 1
  39   22   37 1
  40   22   38 1

#	End of record

