#	Name: ASD01350048
#	Creating user name:	WinNT
#	Creation time:	15. 06. 2019 19:16

#	Modifying user name:	WinNT
#	Modification time:	15. 06. 2019 19:16

#	Program:	/corina/corina34_cracker 3.40 0067  02.08.2006

@<TRIPOS>MOLECULE
ASD01350048
  45   48    0    0    0
SMALL
NO_CHARGES


@<TRIPOS>ATOM
   1 C1             2.0717    -4.5194    -3.4129 C.3     
   2 O2             1.3994    -3.9686    -2.2786 O.3     
   3 C3             1.3175    -2.6157    -2.2079 C.ar    
   4 C4             1.8714    -1.8318    -3.2075 C.ar    
   5 C5             1.7875    -0.4547    -3.1348 C.ar    
   6 C6             1.1502     0.1531    -2.0651 C.ar    
   7 C7             0.5930    -0.6118    -1.0616 C.ar    
   8 C8             0.6668    -2.0054    -1.1260 C.ar    
   9 C9             0.0730    -2.8294    -0.0573 C.2     
  10 C10           -0.4307    -2.2088     1.0444 C.2     
  11 C11           -1.0041    -2.9834     2.0794 C.2     
  12 O12           -1.4657    -2.4612     3.0810 O.2     
  13 C13           -1.0226    -4.4467     1.9003 C.ar    
  14 C14           -0.4758    -4.9850     0.7246 C.ar    
  15 O15            0.0450    -4.1626    -0.2104 O.3     
  16 C16           -0.4839    -6.3609     0.5374 C.ar    
  17 C17           -1.0259    -7.1868     1.5012 C.ar    
  18 C18           -1.5668    -6.6607     2.6623 C.ar    
  19 C19           -1.5691    -5.2919     2.8721 C.ar    
  20 O20           -2.0989    -4.7747     4.0095 O.3     
  21 C21           -2.6401    -5.7015     4.9530 C.3     
  22 C22           -3.1787    -4.9500     6.1431 C.ar    
  23 C23           -4.4941    -4.5253     6.1547 C.ar    
  24 C24           -4.9881    -3.8359     7.2463 C.ar    
  25 C25           -4.1669    -3.5717     8.3264 C.ar    
  26 C26           -2.8517    -3.9972     8.3151 C.ar    
  27 C27           -2.3589    -4.6904     7.2254 C.ar    
  28 Br28           1.0446     2.0393    -1.9802 Br      
  29 H29            1.5608    -4.2089    -4.3243 H       
  30 H30            3.1013    -4.1621    -3.4339 H       
  31 H31            2.0660    -5.6073    -3.3458 H       
  32 H32            2.3697    -2.2982    -4.0445 H       
  33 H33            2.2215     0.1516    -3.9161 H       
  34 H34            0.0971    -0.1343    -0.2295 H       
  35 H35           -0.3925    -1.1327     1.1277 H       
  36 H36           -0.0658    -6.7851    -0.3634 H       
  37 H37           -1.0285    -8.2558     1.3478 H       
  38 H38           -1.9876    -7.3201     3.4070 H       
  39 H39           -3.4459    -6.2672     4.4854 H       
  40 H40           -1.8574    -6.3863     5.2795 H       
  41 H41           -5.1357    -4.7317     5.3109 H       
  42 H42           -6.0157    -3.5034     7.2552 H       
  43 H43           -4.5527    -3.0325     9.1790 H       
  44 H44           -2.2100    -3.7905     9.1589 H       
  45 H45           -1.3314    -5.0228     7.2165 H       
@<TRIPOS>BOND
   1    1    2 1
   2    1   29 1
   3    1   30 1
   4    1   31 1
   5    2    3 1
   6    3    4 ar
   7    3    8 ar
   8    4    5 ar
   9    4   32 1
  10    5    6 ar
  11    5   33 1
  12    6    7 ar
  13    6   28 1
  14    7    8 ar
  15    7   34 1
  16    8    9 1
  17    9   10 2
  18    9   15 1
  19   10   11 1
  20   10   35 1
  21   11   12 2
  22   11   13 1
  23   13   14 ar
  24   13   19 ar
  25   14   15 1
  26   14   16 ar
  27   16   17 ar
  28   16   36 1
  29   17   18 ar
  30   17   37 1
  31   18   19 ar
  32   18   38 1
  33   19   20 1
  34   20   21 1
  35   21   22 1
  36   21   39 1
  37   21   40 1
  38   22   23 ar
  39   22   27 ar
  40   23   24 ar
  41   23   41 1
  42   24   25 ar
  43   24   42 1
  44   25   26 ar
  45   25   43 1
  46   26   27 ar
  47   26   44 1
  48   27   45 1

#	End of record

