#	Name: ASD01200411
#	Creating user name:	WinNT
#	Creation time:	15. 06. 2019 19:09

#	Modifying user name:	WinNT
#	Modification time:	15. 06. 2019 19:09

#	Program:	/corina/corina34_cracker 3.40 0067  02.08.2006

@<TRIPOS>MOLECULE
ASD01200411
  56   60    0    0    0
SMALL
NO_CHARGES


@<TRIPOS>ATOM
   1 C1             0.3075     1.0888     1.6246 C.ar    
   2 C2             0.2297    -0.2185     1.1338 C.ar    
   3 C3             1.3056    -0.7585     0.4587 C.ar    
   4 C4             2.4633    -0.0074     0.2669 C.ar    
   5 C5             2.5516     1.2805     0.7454 C.ar    
   6 C6             3.6304    -0.6107    -0.4713 C.3     
   7 C7             3.4489    -0.4328    -1.9950 C.3     
   8 C8             4.2209     0.8819    -2.2531 C.3     
   9 C9             5.2191     0.9548    -1.1188 C.2     
  10 N10            4.8673     0.1056    -0.1380 N.am    
  11 C11           -0.6189     1.9495     2.3576 C.2     
  12 C12            1.4786     1.8446     1.4283 C.ar    
  13 N13            1.2751     3.0783     2.0090 N.pl3   
  14 C14            0.0165     3.1300     2.5632 C.2     
  15 C15            5.6215    -0.0809     1.1040 C.3     
  16 O16            1.2357    -2.0289    -0.0206 O.3     
  17 O17            6.1953     1.6742    -1.0977 O.2     
  18 C18            0.0550    -2.6880     0.0915 C.ar    
  19 C19           -1.3933    -4.1444     1.3281 C.ar    
  20 C20           -2.3562    -4.0338     0.3206 C.ar    
  21 C21           -2.0969    -3.2469    -0.8055 C.ar    
  22 C22           -0.8977    -2.5799    -0.9155 C.ar    
  23 C23           -0.1966    -3.4741     1.2104 C.ar    
  24 C24           -0.5567     4.2950     3.2698 C.ar    
  25 N25           -1.7894     4.2273     3.7606 N.ar    
  26 C26           -2.3358     5.2433     4.3963 C.ar    
  27 C27           -1.6409     6.4254     4.5765 C.ar    
  28 C28           -0.3498     6.5395     4.0798 C.ar    
  29 C29            0.2031     5.4554     3.4212 C.ar    
  30 C30           -2.2798     7.5794     5.3052 C.3     
  31 F31           -3.5719     7.2210     5.7042 F       
  32 F32           -1.5156     7.8998     6.4323 F       
  33 F33           -2.3452     8.6888     4.4553 F       
  34 C34           -3.6392    -4.7505     0.4422 C.2     
  35 O35           -3.8607    -5.4383     1.4191 O.2     
  36 O36           -4.5660    -4.6427    -0.5300 O.3     
  37 H37           -0.6668    -0.8021     1.2824 H       
  38 H38            3.4541     1.8531     0.5906 H       
  39 H39            3.7268    -1.6678    -0.2238 H       
  40 H40            3.8981    -1.2625    -2.5409 H       
  41 H41            2.3954    -0.3235    -2.2523 H       
  42 H42            4.7362     0.8396    -3.2127 H       
  43 H43            3.5431     1.7350    -2.2203 H       
  44 H44           -1.6190     1.6940     2.6751 H       
  45 H45            1.9213     3.8016     2.0234 H       
  46 H46            6.3595    -0.8710     0.9657 H       
  47 H47            6.1283     0.8483     1.3643 H       
  48 H48            4.9377    -0.3588     1.9061 H       
  49 H49           -1.5898    -4.7513     2.1996 H       
  50 H50           -2.8382    -3.1590    -1.5861 H       
  51 H51           -0.6967    -1.9715    -1.7849 H       
  52 H52            0.5479    -3.5592     1.9882 H       
  53 H53           -3.3405     5.1521     4.7819 H       
  54 H54            0.2122     7.4528     4.2080 H       
  55 H55            1.2069     5.5083     3.0263 H       
  56 H56           -5.3914    -5.1309    -0.4057 H       
@<TRIPOS>BOND
   1    1    2 ar
   2    1   12 ar
   3    1   11 1
   4    2    3 ar
   5    2   37 1
   6    3    4 ar
   7    3   16 1
   8    4    5 ar
   9    4    6 1
  10    5   12 ar
  11    5   38 1
  12    6    7 1
  13    6   10 1
  14    6   39 1
  15    7    8 1
  16    7   40 1
  17    7   41 1
  18    8    9 1
  19    8   42 1
  20    8   43 1
  21    9   10 am
  22    9   17 2
  23   10   15 1
  24   11   14 2
  25   11   44 1
  26   12   13 1
  27   13   14 1
  28   13   45 1
  29   14   24 1
  30   15   46 1
  31   15   47 1
  32   15   48 1
  33   16   18 1
  34   18   23 ar
  35   18   22 ar
  36   19   20 ar
  37   19   23 ar
  38   19   49 1
  39   20   21 ar
  40   20   34 1
  41   21   22 ar
  42   21   50 1
  43   22   51 1
  44   23   52 1
  45   24   25 ar
  46   24   29 ar
  47   25   26 ar
  48   26   27 ar
  49   26   53 1
  50   27   28 ar
  51   27   30 1
  52   28   29 ar
  53   28   54 1
  54   29   55 1
  55   30   31 1
  56   30   32 1
  57   30   33 1
  58   34   35 2
  59   34   36 1
  60   36   56 1

#	End of record

