#	Name: ASD01911388
#	Creating user name:	WinNT
#	Creation time:	15. 06. 2019 19:57

#	Modifying user name:	WinNT
#	Modification time:	15. 06. 2019 19:57

#	Program:	/corina/corina34_cracker 3.40 0067  02.08.2006

@<TRIPOS>MOLECULE
ASD01911388
  39   41    0    0    0
SMALL
NO_CHARGES


@<TRIPOS>ATOM
   1 N1            -0.0068     1.4097    -0.0033 N.2     
   2 N2            -0.0072     0.0098    -0.0454 N.pl3   
   3 C3             1.2421     1.8243     0.0385 C.2     
   4 C4             2.0818     0.6980     0.0243 C.2     
   5 C5             1.2897    -0.4114    -0.0277 C.2     
   6 C6             1.7535    -1.8164    -0.0591 C.ar    
   7 C7             1.6869     3.2397     0.0910 C.ar    
   8 C8             0.7475     4.2647     0.0999 C.ar    
   9 C9            -1.1918    -0.8505    -0.0983 C.3     
  10 C10           -1.6295    -1.0151    -1.5309 C.2     
  11 O11           -2.7021    -1.7675    -1.8228 O.3     
  12 O12           -1.0149    -0.4698    -2.4168 O.2     
  13 C13           -3.0659    -1.8814    -3.2238 C.3     
  14 C14            0.9281    -2.8150    -0.5762 C.ar    
  15 C15            1.1728     5.5920     0.1493 C.ar    
  16 C16            2.5384     5.8826     0.1896 C.ar    
  17 C17            3.4644     4.8588     0.1800 C.ar    
  18 C18            3.0471     3.5427     0.1373 C.ar    
  19 C19            1.3663    -4.1231    -0.6026 C.ar    
  20 C20            2.6211    -4.4453    -0.1173 C.ar    
  21 C21            3.4442    -3.4596     0.3972 C.ar    
  22 C22            3.0201    -2.1468     0.4231 C.ar    
  23 C23            0.2122     6.6539     0.1583 C.1     
  24 N24           -0.5499     7.4963     0.1655 N.1     
  25 H25            3.1614     0.7087     0.0496 H       
  26 H26           -0.3071     4.0340     0.0683 H       
  27 H27           -0.9511    -1.8267     0.3225 H       
  28 H28           -1.9975    -0.3952     0.4777 H       
  29 H29           -3.2849    -0.8915    -3.6241 H       
  30 H30           -2.2385    -2.3230    -3.7793 H       
  31 H31           -3.9474    -2.5154    -3.3200 H       
  32 H32           -0.0519    -2.5648    -0.9547 H       
  33 H33            2.8703     6.9096     0.2279 H       
  34 H34            4.5194     5.0877     0.2105 H       
  35 H35            3.7767     2.7465     0.1301 H       
  36 H36            0.7282    -4.8972    -1.0028 H       
  37 H37            2.9594    -5.4707    -0.1398 H       
  38 H38            4.4226    -3.7174     0.7750 H       
  39 H39            3.6636    -1.3781     0.8250 H       
@<TRIPOS>BOND
   1    1    2 1
   2    1    3 2
   3    2    9 1
   4    2    5 1
   5    3    4 1
   6    3    7 1
   7    4    5 2
   8    4   25 1
   9    5    6 1
  10    6   14 ar
  11    6   22 ar
  12    7    8 ar
  13    7   18 ar
  14    8   15 ar
  15    8   26 1
  16    9   10 1
  17    9   27 1
  18    9   28 1
  19   10   11 1
  20   10   12 2
  21   11   13 1
  22   13   29 1
  23   13   30 1
  24   13   31 1
  25   14   19 ar
  26   14   32 1
  27   15   16 ar
  28   15   23 1
  29   16   17 ar
  30   16   33 1
  31   17   18 ar
  32   17   34 1
  33   18   35 1
  34   19   20 ar
  35   19   36 1
  36   20   21 ar
  37   20   37 1
  38   21   22 ar
  39   21   38 1
  40   22   39 1
  41   23   24 3

#	End of record

