#	Name: ASD01913979
#	Creating user name:	WinNT
#	Creation time:	15. 06. 2019 20:02

#	Modifying user name:	WinNT
#	Modification time:	15. 06. 2019 20:02

#	Program:	/corina/corina34_cracker 3.40 0067  02.08.2006

@<TRIPOS>MOLECULE
ASD01913979
  34   37    0    0    0
SMALL
NO_CHARGES


@<TRIPOS>ATOM
   1 N1            -0.0166     1.2881     0.0260 N.2     
   2 N2             0.0003    -0.0038     0.0270 N.pl3   
   3 C3             1.2706    -0.4401     0.0195 C.2     
   4 C4             2.0829     0.6776     0.0086 C.2     
   5 C5             1.2182     1.7697     0.0153 C.2     
   6 C6             3.5795     0.5600    -0.0109 C.3     
   7 C7             1.8939    -1.7767     0.0255 C.ar    
   8 C8             1.1833    -2.9404    -0.2171 C.ar    
   9 C9             1.8420    -4.1560    -0.2103 C.ar    
  10 C10            3.2030    -4.2045     0.0366 C.ar    
  11 C11            3.9176    -3.0484     0.2863 C.ar    
  12 C12            3.2755    -1.8208     0.2920 C.ar    
  13 O13            3.9594    -0.6868     0.5793 O.3     
  14 C14            1.6045     3.1954     0.0109 C.2     
  15 O15            2.7797     3.5067     0.0003 O.2     
  16 N16            0.6542     4.1511     0.0185 N.am    
  17 C17            0.2902     6.4794    -0.5332 C.ar    
  18 C18            1.0172     5.4975     0.1278 C.ar    
  19 C19            2.1125     5.8735     0.9012 C.ar    
  20 C20            2.4324     7.2192     0.9789 C.ar    
  21 C21            1.6605     8.1375     0.2920 C.ar    
  22 N22            0.6293     7.7489    -0.4325 N.ar    
  23 H23           -0.7854    -0.5726     0.0325 H       
  24 H24            3.9347     0.5989    -1.0407 H       
  25 H25            4.0169     1.3807     0.5577 H       
  26 H26            0.1215    -2.8987    -0.4100 H       
  27 H27            1.2944    -5.0679    -0.3974 H       
  28 H28            3.7122    -5.1569     0.0346 H       
  29 H29            4.9792    -3.1020     0.4774 H       
  30 H30           -0.2815     3.9052    -0.0518 H       
  31 H31           -0.5585     6.1992    -1.1395 H       
  32 H32            2.6980     5.1343     1.4277 H       
  33 H33            3.2750     7.5471     1.5696 H       
  34 H34            1.9056     9.1877     0.3492 H       
@<TRIPOS>BOND
   1    1    2 1
   2    1    5 2
   3    2    3 1
   4    2   23 1
   5    3    4 2
   6    3    7 1
   7    4    5 1
   8    4    6 1
   9    5   14 1
  10    6   13 1
  11    6   24 1
  12    6   25 1
  13    7    8 ar
  14    7   12 ar
  15    8    9 ar
  16    8   26 1
  17    9   10 ar
  18    9   27 1
  19   10   11 ar
  20   10   28 1
  21   11   12 ar
  22   11   29 1
  23   12   13 1
  24   14   15 2
  25   14   16 am
  26   16   18 1
  27   16   30 1
  28   17   18 ar
  29   17   22 ar
  30   17   31 1
  31   18   19 ar
  32   19   20 ar
  33   19   32 1
  34   20   21 ar
  35   20   33 1
  36   21   22 ar
  37   21   34 1

#	End of record

