#	Name: ASD01814640
#	Creating user name:	WinNT
#	Creation time:	15. 06. 2019 19:32

#	Modifying user name:	WinNT
#	Modification time:	15. 06. 2019 19:32

#	Program:	/corina/corina34_cracker 3.40 0067  02.08.2006

@<TRIPOS>MOLECULE
ASD01814640
  50   54    0    0    0
SMALL
NO_CHARGES


@<TRIPOS>ATOM
   1 C1             0.3065     0.0963     1.3816 C.2     
   2 C2             0.5188    -1.2779     1.2074 C.2     
   3 C3             1.7700    -1.7313     0.9072 C.2     
   4 C4             2.8248    -0.8125     0.7777 C.2     
   5 N5             2.5890     0.5240     0.9536 N.am    
   6 C6             1.3343     0.9655     1.2530 C.2     
   7 C7             4.1115    -1.2759     0.4694 C.2     
   8 C8             5.1433    -0.3918     0.3418 C.2     
   9 C9             4.8971     0.9819     0.5228 C.2     
  10 C10            3.5922     1.4167     0.8326 C.2     
  11 O11            3.3697     2.6052     0.9907 O.2     
  12 C12            5.9871     1.9513     0.3919 C.2     
  13 O13            5.7445     3.2667     0.5666 O.3     
  14 O14            7.1111     1.5702     0.1256 O.2     
  15 C15            4.3555    -2.7508     0.2792 C.3     
  16 N16            4.2750    -3.0801    -1.1501 N.3     
  17 C17            5.3711    -2.4439    -1.9011 C.3     
  18 C18            5.3090    -2.9351    -3.3282 C.2     
  19 N19            4.5958    -4.0248    -3.7084 N.pl3   
  20 C20            3.8117    -4.8508    -2.7870 C.3     
  21 C21            4.2648    -4.5354    -1.3555 C.3     
  22 N22            5.8924    -2.4297    -4.3747 N.2     
  23 C23            5.5826    -3.1588    -5.4558 C.2     
  24 C24            4.7627    -4.1727    -5.0580 C.2     
  25 C25            4.1715    -5.2234    -5.9149 C.ar    
  26 C26            4.6659    -5.4382    -7.2020 C.ar    
  27 C27            4.1103    -6.4202    -7.9961 C.ar    
  28 C28            3.0649    -7.1906    -7.5190 C.ar    
  29 C29            2.5702    -6.9826    -6.2439 C.ar    
  30 C30            3.1208    -6.0078    -5.4376 C.ar    
  31 H31           -0.6823     0.4627     1.6150 H       
  32 H32           -0.3016    -1.9727     1.3103 H       
  33 H33            1.9482    -2.7877     0.7705 H       
  34 H34            1.1592     2.0224     1.3897 H       
  35 H35            6.1370    -0.7422     0.1051 H       
  36 H36            6.4954     3.8682     0.4701 H       
  37 H37            5.3459    -3.0067     0.6558 H       
  38 H38            3.6015    -3.3172     0.8256 H       
  39 H39            5.2521    -1.3606    -1.8791 H       
  40 H40            6.3285    -2.7187    -1.4585 H       
  41 H41            2.7522    -4.6196    -2.8969 H       
  42 H42            3.9827    -5.9055    -3.0025 H       
  43 H43            5.2678    -4.9315    -1.1969 H       
  44 H44            3.5767    -4.9968    -0.6472 H       
  45 H45            5.9221    -2.9751    -6.4644 H       
  46 H46            5.4814    -4.8369    -7.5758 H       
  47 H47            4.4921    -6.5875    -8.9925 H       
  48 H48            2.6330    -7.9576    -8.1449 H       
  49 H49            1.7537    -7.5872    -5.8774 H       
  50 H50            2.7337    -5.8463    -4.4424 H       
@<TRIPOS>BOND
   1    1    2 1
   2    1    6 2
   3    1   31 1
   4    2    3 2
   5    2   32 1
   6    3    4 1
   7    3   33 1
   8    4    5 1
   9    4    7 2
  10    5    6 1
  11    5   10 am
  12    6   34 1
  13    7    8 1
  14    7   15 1
  15    8    9 2
  16    8   35 1
  17    9   10 1
  18    9   12 1
  19   10   11 2
  20   12   13 1
  21   12   14 2
  22   13   36 1
  23   15   16 1
  24   15   37 1
  25   15   38 1
  26   16   17 1
  27   16   21 1
  28   17   18 1
  29   17   39 1
  30   17   40 1
  31   18   19 1
  32   18   22 2
  33   19   20 1
  34   19   24 1
  35   20   21 1
  36   20   41 1
  37   20   42 1
  38   21   43 1
  39   21   44 1
  40   22   23 1
  41   23   24 2
  42   23   45 1
  43   24   25 1
  44   25   26 ar
  45   25   30 ar
  46   26   27 ar
  47   26   46 1
  48   27   28 ar
  49   27   47 1
  50   28   29 ar
  51   28   48 1
  52   29   30 ar
  53   29   49 1
  54   30   50 1

#	End of record

