#	Name: ASD05430576
#	Creating user name:	WinNT
#	Creation time:	15. 06. 2019 21:00

#	Modifying user name:	WinNT
#	Modification time:	15. 06. 2019 21:00

#	Program:	/corina/corina34_cracker 3.40 0067  02.08.2006

@<TRIPOS>MOLECULE
ASD05430576
  31   32    0    0    0
SMALL
NO_CHARGES


@<TRIPOS>ATOM
   1 N1            -0.0159     1.3180     0.0093 N.ar    
   2 C2             0.0021    -0.0041     0.0020 C.ar    
   3 C3             1.0924     2.0294     0.0025 C.ar    
   4 C4             2.3317     1.4006    -0.0127 C.ar    
   5 C5             2.3957    -0.0007    -0.0208 C.ar    
   6 C6             1.1712    -0.7032    -0.0129 C.ar    
   7 C7             1.0163     3.5344     0.0108 C.3     
   8 C8             1.1575    -2.2101    -0.0203 C.3     
   9 C9             0.4434    -2.7198     1.2331 C.3     
  10 C10            0.4200    -2.7073    -1.2653 C.3     
  11 C11            0.2585     4.0136    -1.2290 C.3     
  12 C12            0.2819     4.0010     1.2694 C.3     
  13 S13            3.9789     2.0178    -0.0257 S.3     
  14 C14            4.6005     0.4281    -0.0403 C.2     
  15 N15            3.6616    -0.4442    -0.0357 N.2     
  16 H16           -0.9337    -0.5433     0.0084 H       
  17 H17            2.0242     3.9492     0.0035 H       
  18 H18            2.1818    -2.5827    -0.0318 H       
  19 H19            0.4335    -3.8098     1.2277 H       
  20 H20            0.9688    -2.3657     2.1200 H       
  21 H21           -0.5809    -2.3473     1.2445 H       
  22 H22            0.9287    -2.3441    -2.1582 H       
  23 H23            0.4101    -3.7972    -1.2707 H       
  24 H24           -0.6043    -2.3347    -1.2538 H       
  25 H25           -0.7494     3.5988    -1.2217 H       
  26 H26            0.2035     5.1022    -1.2230 H       
  27 H27            0.7817     3.6812    -2.1256 H       
  28 H28            0.8217     3.6596     2.1526 H       
  29 H29            0.2268     5.0896     1.2754 H       
  30 H30           -0.7261     3.5862     1.2767 H       
  31 H31            5.6533     0.1875    -0.0520 H       
@<TRIPOS>BOND
   1    1    2 ar
   2    1    3 ar
   3    2    6 ar
   4    2   16 1
   5    3    4 ar
   6    3    7 1
   7    4    5 ar
   8    4   13 1
   9    5    6 ar
  10    5   15 1
  11    6    8 1
  12    7   11 1
  13    7   12 1
  14    7   17 1
  15    8    9 1
  16    8   10 1
  17    8   18 1
  18    9   19 1
  19    9   20 1
  20    9   21 1
  21   10   22 1
  22   10   23 1
  23   10   24 1
  24   11   25 1
  25   11   26 1
  26   11   27 1
  27   12   28 1
  28   12   29 1
  29   12   30 1
  30   13   14 1
  31   14   15 2
  32   14   31 1

#	End of record

