#	Name: ASD03090846
#	Creating user name:	WinNT
#	Creation time:	15. 06. 2019 20:29

#	Modifying user name:	WinNT
#	Modification time:	15. 06. 2019 20:29

#	Program:	/corina/corina34_cracker 3.40 0067  02.08.2006

@<TRIPOS>MOLECULE
ASD03090846
  42   45    0    0    0
SMALL
NO_CHARGES


@<TRIPOS>ATOM
   1 C1             0.0271     1.4578     0.0103 C.ar    
   2 C2             0.0662     0.0761    -0.0090 C.ar    
   3 C3             1.2834    -0.5809    -0.0241 C.ar    
   4 C4             2.4612     0.1454    -0.0198 C.ar    
   5 C5             2.4208     1.5266    -0.0005 C.ar    
   6 C6             1.2039     2.1828     0.0146 C.ar    
   7 S7            -1.5232     2.2950     0.0221 S.o2    
   8 O8            -1.2824     3.5928    -0.5043 O.2     
   9 O9            -2.4702     1.3938    -0.5350 O.2     
  10 N10           -1.9545     2.5058     1.6070 N.am    
  11 S11           -4.2808     3.7732     0.7833 S.3     
  12 C12           -3.0785     3.1088     1.9053 C.2     
  13 N13           -3.5841     3.3650     3.1528 N.pl3   
  14 C14           -4.7850     4.0128     3.2040 C.2     
  15 C15           -5.3672     4.3426     2.0632 C.2     
  16 O16           -0.9097     1.8657     7.7635 O.3     
  17 C17            0.0305     0.7911     7.6579 C.3     
  18 C18            0.9051     1.0378     6.4211 C.3     
  19 O19            0.0527     1.0837     5.2717 O.3     
  20 C20           -1.0764     1.8366     5.3768 C.ar    
  21 C21           -1.5590     2.2254     6.6215 C.ar    
  22 C22           -1.7494     2.2156     4.2260 C.ar    
  23 C23           -2.9036     2.9813     4.3168 C.ar    
  24 C24           -3.3839     3.3665     5.5609 C.ar    
  25 C25           -2.7133     2.9889     6.7084 C.ar    
  26 F26            1.5808     2.2553     6.5563 F       
  27 F27            1.8296    -0.0029     6.2818 F       
  28 F28            0.8331     0.7522     8.8032 F       
  29 F29           -0.6528    -0.4217     7.5184 F       
  30 C30           -6.6832     5.0556     1.8876 C.3     
  31 Cl31           1.3333    -2.3161    -0.0478 Cl      
  32 H32           -0.8534    -0.4902    -0.0120 H       
  33 H33            3.4118    -0.3671    -0.0312 H       
  34 H34            3.3400     2.0936     0.0029 H       
  35 H35            1.1729     3.2622     0.0294 H       
  36 H36           -5.2474     4.2493     4.1509 H       
  37 H37           -1.3750     1.9161     3.2582 H       
  38 H38           -4.2825     3.9614     5.6320 H       
  39 H39           -3.0889     3.2894     7.6754 H       
  40 H40           -6.8895     5.1808     0.8247 H       
  41 H41           -7.4788     4.4678     2.3454 H       
  42 H42           -6.6330     6.0338     2.3657 H       
@<TRIPOS>BOND
   1    1    2 ar
   2    1    6 ar
   3    1    7 1
   4    2    3 ar
   5    2   32 1
   6    3    4 ar
   7    3   31 1
   8    4    5 ar
   9    4   33 1
  10    5    6 ar
  11    5   34 1
  12    6   35 1
  13    7    8 2
  14    7    9 2
  15    7   10 am
  16   10   12 2
  17   11   12 1
  18   11   15 1
  19   12   13 1
  20   13   14 1
  21   13   23 1
  22   14   15 2
  23   14   36 1
  24   15   30 1
  25   16   17 1
  26   16   21 1
  27   17   18 1
  28   17   28 1
  29   17   29 1
  30   18   19 1
  31   18   26 1
  32   18   27 1
  33   19   20 1
  34   20   21 ar
  35   20   22 ar
  36   21   25 ar
  37   22   23 ar
  38   22   37 1
  39   23   24 ar
  40   24   25 ar
  41   24   38 1
  42   25   39 1
  43   30   40 1
  44   30   41 1
  45   30   42 1

#	End of record

