#	Name: ASD02030526
#	Creating user name:	WinNT
#	Creation time:	15. 06. 2019 20:15

#	Modifying user name:	WinNT
#	Modification time:	15. 06. 2019 20:15

#	Program:	/corina/corina34_cracker 3.40 0067  02.08.2006

@<TRIPOS>MOLECULE
ASD02030526
  52   55    0    0    0
SMALL
NO_CHARGES


@<TRIPOS>ATOM
   1 N1            -0.1437     1.2399     0.4930 N.am    
   2 C2            -0.3924    -0.2085     0.5023 C.3     
   3 C3            -1.4496    -0.5174     1.5697 C.3     
   4 N4            -2.5863     0.3952     1.3827 N.am    
   5 C5            -2.3376     1.8436     1.3733 C.3     
   6 C6            -1.2812     2.1527     0.3116 C.3     
   7 C7             1.1043     1.7227     0.6535 C.2     
   8 C8             2.2181     0.8026     0.9674 C.2     
   9 N9             3.4501     1.1532     1.2675 N.2     
  10 N10            2.1489    -0.5408     1.0023 N.2     
  11 C11            3.3395    -0.9835     1.3174 C.2     
  12 N12            4.1428     0.0878     1.4802 N.pl3   
  13 O13            1.3142     2.9147     0.5401 O.2     
  14 C14           -3.8343    -0.0876     1.2222 C.2     
  15 C15           -4.0541    -1.5334     1.1270 C.2     
  16 O16           -4.7789     0.6772     1.1563 O.2     
  17 C17           -0.8092     3.6001     0.4629 C.3     
  18 C18           -1.8782     1.9466    -1.0820 C.3     
  19 C19            5.5012     0.0485     1.8225 C.ar    
  20 C20            6.2183     1.2293     1.9597 C.ar    
  21 C21            7.5572     1.1874     2.2971 C.ar    
  22 C22            8.1833    -0.0289     2.4976 C.ar    
  23 C23            7.4716    -1.2069     2.3616 C.ar    
  24 C24            6.1314    -1.1713     2.0306 C.ar    
  25 C25            8.3363     2.4687     2.4463 C.3     
  26 C26           -5.2399    -2.1476     0.8391 C.2     
  27 O27           -3.1191    -2.4907     1.3025 O.3     
  28 C28           -3.6808    -3.6961     1.1391 C.2     
  29 C29           -4.9929    -3.5288     0.8511 C.2     
  30 Br30          -6.2554    -4.8987     0.5268 Br      
  31 Br31          -2.7872    -5.3565     1.2816 Br      
  32 H32           -0.7568    -0.5234    -0.4755 H       
  33 H33            0.5313    -0.7367     0.7387 H       
  34 H34           -1.7868    -1.5484     1.4629 H       
  35 H35           -1.0219    -0.3706     2.5614 H       
  36 H36           -3.2613     2.3718     1.1369 H       
  37 H37           -1.9732     2.1585     2.3511 H       
  38 H38            3.6260    -2.0187     1.4298 H       
  39 H39           -0.2801     3.7127     1.4092 H       
  40 H40           -0.1400     3.8520    -0.3598 H       
  41 H41           -1.6713     4.2670     0.4471 H       
  42 H42           -2.7304     2.6131    -1.2144 H       
  43 H43           -1.1235     2.1674    -1.8368 H       
  44 H44           -2.2059     0.9124    -1.1876 H       
  45 H45            5.7300     2.1797     1.8025 H       
  46 H46            9.2303    -0.0591     2.7606 H       
  47 H47            7.9634    -2.1555     2.5189 H       
  48 H48            5.5761    -2.0916     1.9248 H       
  49 H49            8.2743     2.8136     3.4785 H       
  50 H50            9.3796     2.2922     2.1843 H       
  51 H51            7.9187     3.2271     1.7841 H       
  52 H52           -6.1849    -1.6636     0.6410 H       
@<TRIPOS>BOND
   1    1    2 1
   2    1    7 am
   3    1    6 1
   4    2    3 1
   5    2   32 1
   6    2   33 1
   7    3    4 1
   8    3   34 1
   9    3   35 1
  10    4    5 1
  11    4   14 am
  12    5    6 1
  13    5   36 1
  14    5   37 1
  15    6   17 1
  16    6   18 1
  17    7    8 1
  18    7   13 2
  19    8    9 2
  20    8   10 1
  21    9   12 1
  22   10   11 2
  23   11   12 1
  24   11   38 1
  25   12   19 1
  26   14   15 1
  27   14   16 2
  28   15   27 1
  29   15   26 2
  30   17   39 1
  31   17   40 1
  32   17   41 1
  33   18   42 1
  34   18   43 1
  35   18   44 1
  36   19   20 ar
  37   19   24 ar
  38   20   21 ar
  39   20   45 1
  40   21   22 ar
  41   21   25 1
  42   22   23 ar
  43   22   46 1
  44   23   24 ar
  45   23   47 1
  46   24   48 1
  47   25   49 1
  48   25   50 1
  49   25   51 1
  50   26   29 1
  51   26   52 1
  52   27   28 1
  53   28   29 2
  54   28   31 1
  55   29   30 1

#	End of record

