#	Name: ASD01811946
#	Creating user name:	WinNT
#	Creation time:	15. 06. 2019 19:27

#	Modifying user name:	WinNT
#	Modification time:	15. 06. 2019 19:27

#	Program:	/corina/corina34_cracker 3.40 0067  02.08.2006

@<TRIPOS>MOLECULE
ASD01811946
  52   55    0    0    0
SMALL
NO_CHARGES


@<TRIPOS>ATOM
   1 C1            -0.0166     1.3724     0.0096 C.ar    
   2 C2             0.0021    -0.0041     0.0020 C.ar    
   3 C3             1.2043    -0.6993    -0.0132 C.ar    
   4 C4             2.4046    -0.0233    -0.0210 C.ar    
   5 C5             2.4078     1.3701    -0.0136 C.ar    
   6 C6             1.1870     2.0804     0.0019 C.ar    
   7 C7             2.3344     4.0944     0.0009 C.2     
   8 N8             1.2150     3.4367     0.0085 N.2     
   9 C9             3.6573     2.1452    -0.0209 C.2     
  10 N10            3.5533     3.4947    -0.0122 N.am    
  11 C11            4.7664     4.3161    -0.0200 C.3     
  12 C12            4.7954     5.1946     1.2323 C.3     
  13 C13            6.0622     6.0525     1.2242 C.3     
  14 C14            6.0690     6.9403    -0.0218 C.3     
  15 C15            6.0400     6.0618    -1.2741 C.3     
  16 C16            4.7731     5.2039    -1.2660 C.3     
  17 O17            4.7429     1.5947    -0.0338 O.2     
  18 C18            1.1957    -2.2063    -0.0207 C.3     
  19 C19            1.0552    -2.7008    -1.4373 C.ar    
  20 C20           -0.1966    -2.9188    -1.9816 C.ar    
  21 C21            2.1795    -2.9373    -2.2129 C.ar    
  22 C22            2.0022    -3.3919    -3.5110 C.ar    
  23 C23            0.7198    -3.5925    -3.9849 C.ar    
  24 N24           -0.3274    -3.3518    -3.2201 N.ar    
  25 O25            4.7891     4.3654     2.3962 O.3     
  26 C26           -1.3298     2.1117     0.0198 C.3     
  27 C27           -1.2981    -0.7660     0.0108 C.3     
  28 H28            3.3363    -0.5693    -0.0325 H       
  29 H29            2.2945     5.1737     0.0067 H       
  30 H30            5.6434     3.6689    -0.0302 H       
  31 H31            3.9184     5.8418     1.2426 H       
  32 H32            6.0829     6.6784     2.1164 H       
  33 H33            6.9392     5.4053     1.2140 H       
  34 H34            5.1920     7.5875    -0.0116 H       
  35 H35            6.9715     7.5515    -0.0276 H       
  36 H36            6.0448     6.6942    -2.1618 H       
  37 H37            6.9170     5.4146    -1.2843 H       
  38 H38            4.7525     4.5780    -2.1582 H       
  39 H39            3.8961     5.8511    -1.2558 H       
  40 H40            2.1291    -2.5771     0.4027 H       
  41 H41            0.3576    -2.5678     0.5751 H       
  42 H42           -1.0777    -2.7326    -1.3854 H       
  43 H43            3.1701    -2.7712    -1.8158 H       
  44 H44            2.8556    -3.5862    -4.1437 H       
  45 H45            0.5732    -3.9463    -4.9947 H       
  46 H46            4.8065     4.8564     3.2290 H       
  47 H47           -1.6415     2.2844     1.0500 H       
  48 H48           -1.2122     3.0683    -0.4894 H       
  49 H49           -2.0854     1.5172    -0.4936 H       
  50 H50           -1.6218    -0.9442    -1.0146 H       
  51 H51           -1.1566    -1.7203     0.5182 H       
  52 H52           -2.0564    -0.1846     0.5354 H       
@<TRIPOS>BOND
   1    1    2 ar
   2    1    6 ar
   3    1   26 1
   4    2    3 ar
   5    2   27 1
   6    3    4 ar
   7    3   18 1
   8    4    5 ar
   9    4   28 1
  10    5    9 1
  11    5    6 ar
  12    6    8 1
  13    7    8 2
  14    7   10 1
  15    7   29 1
  16    9   10 am
  17    9   17 2
  18   10   11 1
  19   11   12 1
  20   11   16 1
  21   11   30 1
  22   12   13 1
  23   12   25 1
  24   12   31 1
  25   13   14 1
  26   13   32 1
  27   13   33 1
  28   14   15 1
  29   14   34 1
  30   14   35 1
  31   15   16 1
  32   15   36 1
  33   15   37 1
  34   16   38 1
  35   16   39 1
  36   18   19 1
  37   18   40 1
  38   18   41 1
  39   19   21 ar
  40   19   20 ar
  41   20   24 ar
  42   20   42 1
  43   21   22 ar
  44   21   43 1
  45   22   23 ar
  46   22   44 1
  47   23   24 ar
  48   23   45 1
  49   25   46 1
  50   26   47 1
  51   26   48 1
  52   26   49 1
  53   27   50 1
  54   27   51 1
  55   27   52 1

#	End of record

