#	Name: ASD04840097
#	Creating user name:	WinNT
#	Creation time:	15. 06. 2019 20:52

#	Modifying user name:	WinNT
#	Modification time:	15. 06. 2019 20:52

#	Program:	/corina/corina34_cracker 3.40 0067  02.08.2006

@<TRIPOS>MOLECULE
ASD04840097
  52   55    0    0    0
SMALL
NO_CHARGES


@<TRIPOS>ATOM
   1 C1             0.5243     0.9323     0.2381 C.ar    
   2 C2             0.1999    -0.3247    -0.3384 C.ar    
   3 N3             2.4563    -0.9443    -0.0326 N.ar    
   4 C4             2.7051     0.2324     0.4938 C.ar    
   5 N5             1.7695     1.1550     0.6303 N.ar    
   6 C6            -1.0599    -0.8259    -0.8448 C.2     
   7 C7            -1.0101    -2.0686    -1.3247 C.2     
   8 S8             0.6063    -2.7355    -1.1937 S.3     
   9 C9             1.2282    -1.2650    -0.4593 C.ar    
  10 N10           -0.4431     1.9098     0.3823 N.pl3   
  11 C11           -0.1326     3.1472     1.1025 C.3     
  12 P12            1.5707     3.6664     0.7120 P.3     
  13 O13            1.6888     5.2662     0.8494 O.3     
  14 O14            2.5944     2.9628     1.7362 O.3     
  15 O15            1.9038     3.2642    -0.6728 O.2     
  16 C16           -2.1678    -2.7910    -1.8938 C.ar    
  17 C17           -2.9660    -2.1824    -2.8635 C.ar    
  18 C18           -4.0445    -2.8621    -3.3908 C.ar    
  19 C19           -4.3357    -4.1443    -2.9603 C.ar    
  20 C20           -3.5485    -4.7533    -1.9992 C.ar    
  21 C21           -2.4639    -4.0866    -1.4677 C.ar    
  22 C22           -5.5157    -4.8806    -3.5403 C.3     
  23 C23           -2.3261    -0.0089    -0.8303 C.3     
  24 C24           -1.1105     4.2442     0.6768 C.3     
  25 C25           -2.5042     3.8714     1.1123 C.ar    
  26 C26           -4.6052     2.8159     0.6601 C.ar    
  27 C27           -3.3268     3.1579     0.2607 C.ar    
  28 C28           -2.9581     4.2380     2.3655 C.ar    
  29 C29           -4.2366     3.8961     2.7649 C.ar    
  30 C30           -5.0613     3.1879     1.9109 C.ar    
  31 H31            3.7085     0.4535     0.8266 H       
  32 H32           -1.3274     1.7762     0.0066 H       
  33 H33           -0.2233     2.9758     2.1751 H       
  34 H34            2.5702     5.6136     0.6555 H       
  35 H35            2.3901     3.1218     2.6679 H       
  36 H36           -2.7399    -1.1814    -3.2002 H       
  37 H37           -4.6631    -2.3921    -4.1410 H       
  38 H38           -3.7811    -5.7544    -1.6674 H       
  39 H39           -1.8475    -4.5648    -0.7208 H       
  40 H40           -5.1974    -5.4428    -4.4182 H       
  41 H41           -5.9176    -5.5672    -2.7952 H       
  42 H42           -6.2857    -4.1643    -3.8271 H       
  43 H43           -2.3461     0.6458    -1.7015 H       
  44 H44           -3.1886    -0.6749    -0.8564 H       
  45 H45           -2.3595     0.5934     0.0776 H       
  46 H46           -0.8242     5.1870     1.1429 H       
  47 H47           -1.0854     4.3525    -0.4075 H       
  48 H48           -5.2480     2.2588    -0.0054 H       
  49 H49           -2.9707     2.8679    -0.7168 H       
  50 H50           -2.3138     4.7912     3.0326 H       
  51 H51           -4.5909     4.1819     3.7442 H       
  52 H52           -6.0601     2.9207     2.2230 H       
@<TRIPOS>BOND
   1    1    2 ar
   2    1    5 ar
   3    1   10 1
   4    2    9 ar
   5    2    6 1
   6    3    4 ar
   7    3    9 ar
   8    4    5 ar
   9    4   31 1
  10    6    7 2
  11    6   23 1
  12    7    8 1
  13    7   16 1
  14    8    9 1
  15   10   11 1
  16   10   32 1
  17   11   12 1
  18   11   24 1
  19   11   33 1
  20   12   13 1
  21   12   14 1
  22   12   15 2
  23   13   34 1
  24   14   35 1
  25   16   17 ar
  26   16   21 ar
  27   17   18 ar
  28   17   36 1
  29   18   19 ar
  30   18   37 1
  31   19   20 ar
  32   19   22 1
  33   20   21 ar
  34   20   38 1
  35   21   39 1
  36   22   40 1
  37   22   41 1
  38   22   42 1
  39   23   43 1
  40   23   44 1
  41   23   45 1
  42   24   25 1
  43   24   46 1
  44   24   47 1
  45   25   28 ar
  46   25   27 ar
  47   26   27 ar
  48   26   30 ar
  49   26   48 1
  50   27   49 1
  51   28   29 ar
  52   28   50 1
  53   29   30 ar
  54   29   51 1
  55   30   52 1

#	End of record

