#	Name: ASD02038323
#	Creating user name:	WinNT
#	Creation time:	15. 06. 2019 20:16

#	Modifying user name:	WinNT
#	Modification time:	15. 06. 2019 20:16

#	Program:	/corina/corina34_cracker 3.40 0067  02.08.2006

@<TRIPOS>MOLECULE
ASD02038323
  56   59    0    0    0
SMALL
NO_CHARGES


@<TRIPOS>ATOM
   1 C1            -0.3142     1.5246     0.2411 C.3     
   2 C2            -0.2657    -0.0046     0.2022 C.3     
   3 N3             0.7038    -0.4868     1.1958 N.3     
   4 C4             0.7243    -1.9550     1.2419 C.3     
   5 C5             1.3993    -2.4152     2.5355 C.3     
   6 C6             1.2666    -3.9337     2.6677 C.3     
   7 O7             1.7932    -4.3499     3.9292 O.3     
   8 C8             1.7514    -5.6801     4.2071 C.ar    
   9 C9             2.2442    -6.1464     5.4090 C.ar    
  10 C10            1.2061    -6.5651     3.2796 C.ar    
  11 C11            1.1546    -7.9156     3.5443 C.ar    
  12 C12            1.6505    -8.4073     4.7474 C.ar    
  13 C13            2.1979    -7.5162     5.6892 C.ar    
  14 C14            2.0443     0.0503     0.9231 C.3     
  15 C15            1.9958     1.5795     0.9620 C.3     
  16 N16            1.0262     2.0617    -0.0315 N.3     
  17 C17            1.0067     3.4583    -0.0754 C.ar    
  18 C18            0.7573     4.1873     1.0803 C.ar    
  19 C19            0.7386     5.5675     1.0340 C.ar    
  20 C20            0.9681     6.2241    -0.1623 C.ar    
  21 C21            1.2164     5.5004    -1.3153 C.ar    
  22 C22            1.2424     4.1201    -1.2736 C.ar    
  23 N23            1.6085    -9.7573     5.0312 N.am    
  24 C24            2.0871   -10.2351     6.1931 C.2     
  25 C25            2.6501    -9.3841     7.1681 C.2     
  26 C26            2.7168    -8.0473     6.9512 C.2     
  27 O27            2.0331   -11.4333     6.4101 O.2     
  28 O28            2.7828    -2.0590     2.5037 O.3     
  29 Cl29           0.9438     7.9591    -0.2168 Cl      
  30 C30           -1.6511    -0.5676     0.5259 C.3     
  31 H31           -1.0114     1.8857    -0.5149 H       
  32 H32           -0.6440     1.8531     1.2268 H       
  33 H33            0.0378    -0.3337    -0.7916 H       
  34 H34           -0.2973    -2.3338     1.2104 H       
  35 H35            1.2802    -2.3377     0.3859 H       
  36 H36            0.9194    -1.9331     3.3872 H       
  37 H37            0.2151    -4.2136     2.6027 H       
  38 H38            1.8218    -4.4182     1.8645 H       
  39 H39            2.6631    -5.4584     6.1283 H       
  40 H40            0.8197    -6.1883     2.3441 H       
  41 H41            0.7290    -8.5925     2.8184 H       
  42 H42            2.7414    -0.3108     1.6792 H       
  43 H43            2.3740    -0.2782    -0.0626 H       
  44 H44            1.6923     1.9086     1.9558 H       
  45 H45            2.9827     1.9806     0.7314 H       
  46 H46            0.5777     3.6753     2.0141 H       
  47 H47            0.5443     6.1348     1.9322 H       
  48 H48            1.3945     6.0154    -2.2477 H       
  49 H49            1.4367     3.5558    -2.1737 H       
  50 H50            1.2277   -10.3703     4.3830 H       
  51 H51            3.0257    -9.7988     8.0918 H       
  52 H52            3.1463    -7.3889     7.6918 H       
  53 H53            3.2737    -2.4533     1.7698 H       
  54 H54           -2.3703    -0.2082    -0.2101 H       
  55 H55           -1.6162    -1.6567     0.4981 H       
  56 H56           -1.9536    -0.2390     1.5202 H       
@<TRIPOS>BOND
   1    1    2 1
   2    1   16 1
   3    1   31 1
   4    1   32 1
   5    2    3 1
   6    2   30 1
   7    2   33 1
   8    3    4 1
   9    3   14 1
  10    4    5 1
  11    4   34 1
  12    4   35 1
  13    5    6 1
  14    5   28 1
  15    5   36 1
  16    6    7 1
  17    6   37 1
  18    6   38 1
  19    7    8 1
  20    8    9 ar
  21    8   10 ar
  22    9   13 ar
  23    9   39 1
  24   10   11 ar
  25   10   40 1
  26   11   12 ar
  27   11   41 1
  28   12   13 ar
  29   12   23 1
  30   13   26 1
  31   14   15 1
  32   14   42 1
  33   14   43 1
  34   15   16 1
  35   15   44 1
  36   15   45 1
  37   16   17 1
  38   17   18 ar
  39   17   22 ar
  40   18   19 ar
  41   18   46 1
  42   19   20 ar
  43   19   47 1
  44   20   21 ar
  45   20   29 1
  46   21   22 ar
  47   21   48 1
  48   22   49 1
  49   23   24 am
  50   23   50 1
  51   24   25 1
  52   24   27 2
  53   25   26 2
  54   25   51 1
  55   26   52 1
  56   28   53 1
  57   30   54 1
  58   30   55 1
  59   30   56 1

#	End of record

