#	Name: ASD01948162
#	Creating user name:	WinNT
#	Creation time:	15. 06. 2019 20:13

#	Modifying user name:	WinNT
#	Modification time:	15. 06. 2019 20:13

#	Program:	/corina/corina34_cracker 3.40 0067  02.08.2006

@<TRIPOS>MOLECULE
ASD01948162
  46   48    0    0    0
SMALL
NO_CHARGES


@<TRIPOS>ATOM
   1 C1             1.8318     1.3948     1.0491 C.ar    
   2 C2             1.8200     0.0036     1.0440 C.ar    
   3 C3             2.4021    -0.6961     2.0919 C.ar    
   4 C4             2.9914    -0.0100     3.1365 C.ar    
   5 C5             3.0017     1.3729     3.1400 C.ar    
   6 C6             2.4276     2.0749     2.0948 C.ar    
   7 N7             1.2222    -0.6887    -0.0149 N.pl3   
   8 C8             3.8112    -1.9713    -0.4393 C.2     
   9 C9             2.6135    -2.7151    -0.2968 C.2     
  10 C10            1.3225    -2.0636    -0.0847 C.2     
  11 N11            4.9615    -2.6550    -0.6373 N.am    
  12 F12            1.2667     2.0799     0.0310 F       
  13 C13            2.6728    -4.1145    -0.3611 C.2     
  14 N14            1.5274    -4.8475    -0.2252 N.am    
  15 C15            0.3357    -4.2583    -0.0308 C.2     
  16 C16            0.2020    -2.8692     0.0448 C.2     
  17 C17            4.9513    -4.0073    -0.6949 C.2     
  18 N18            3.8587    -4.7075    -0.5553 N.2     
  19 O19            3.8044    -0.7540    -0.3902 O.2     
  20 C20            1.6005    -6.3090    -0.2940 C.3     
  21 O21           -0.6586    -4.9564     0.0844 O.2     
  22 I22            3.8961     2.4074     4.7271 I       
  23 C23            6.2243    -1.9283    -0.7906 C.3     
  24 C24            7.1950    -2.3544     0.3125 C.3     
  25 O25            7.5299    -3.7335     0.1459 O.3     
  26 C26            6.8336    -2.2473    -2.1574 C.3     
  27 O27            7.1850    -3.6314    -2.2109 O.3     
  28 C28           -1.1542    -2.2501     0.2649 C.3     
  29 H29            2.3943    -1.7760     2.0909 H       
  30 H30            3.4444    -0.5545     3.9518 H       
  31 H31            2.4373     3.1548     2.1004 H       
  32 H32            0.7373    -0.2024    -0.7000 H       
  33 H33            5.8845    -4.5273    -0.8540 H       
  34 H34            1.7652    -6.7120     0.7053 H       
  35 H35            0.6656    -6.7011    -0.6944 H       
  36 H36            2.4251    -6.6013    -0.9441 H       
  37 H37            6.0381    -0.8568    -0.7170 H       
  38 H38            8.1007    -1.7508     0.2526 H       
  39 H39            6.7256    -2.2095     1.2855 H       
  40 H40            8.1434    -4.0726     0.8120 H       
  41 H41            6.1072    -2.0264    -2.9395 H       
  42 H42            7.7259    -1.6398    -2.3081 H       
  43 H43            7.5780    -3.9052    -3.0509 H       
  44 H44           -1.9159    -3.0297     0.2519 H       
  45 H45           -1.1699    -1.7429     1.2295 H       
  46 H46           -1.3579    -1.5300    -0.5276 H       
@<TRIPOS>BOND
   1    1    2 ar
   2    1   12 1
   3    1    6 ar
   4    2    3 ar
   5    2    7 1
   6    3    4 ar
   7    3   29 1
   8    4    5 ar
   9    4   30 1
  10    5    6 ar
  11    5   22 1
  12    6   31 1
  13    7   10 1
  14    7   32 1
  15    8    9 1
  16    8   19 2
  17    8   11 am
  18    9   10 1
  19    9   13 2
  20   10   16 2
  21   11   17 1
  22   11   23 1
  23   13   14 1
  24   13   18 1
  25   14   15 am
  26   14   20 1
  27   15   16 1
  28   15   21 2
  29   16   28 1
  30   17   18 2
  31   17   33 1
  32   20   34 1
  33   20   35 1
  34   20   36 1
  35   23   24 1
  36   23   26 1
  37   23   37 1
  38   24   25 1
  39   24   38 1
  40   24   39 1
  41   25   40 1
  42   26   27 1
  43   26   41 1
  44   26   42 1
  45   27   43 1
  46   28   44 1
  47   28   45 1
  48   28   46 1

#	End of record

