#	Name: ASD06610087
#	Creating user name:	WinNT
#	Creation time:	15. 06. 2019 21:07

#	Modifying user name:	WinNT
#	Modification time:	15. 06. 2019 21:07

#	Program:	/corina/corina34_cracker 3.40 0067  02.08.2006

@<TRIPOS>MOLECULE
ASD06610087
 399  400    0    0    0
SMALL
NO_CHARGES


@<TRIPOS>ATOM
   1 C1             1.9002    15.1204   -14.2537 C.2     
   2 O2             2.2046    13.9647   -14.0474 O.2     
   3 N3             4.1980    15.3864   -14.9875 N.am    
   4 C4             2.9241    16.0841   -14.7961 C.3     
   5 C5            -1.7330    15.0803   -13.8522 C.2     
   6 O6            -1.8707    16.1031   -14.4892 O.2     
   7 N7             0.6447    15.5416   -14.0032 N.am    
   8 C8            -0.3523    14.6034   -13.4816 C.3     
   9 C9            -0.2314    14.5253   -11.9584 C.3     
  10 C10            1.1045    13.9330   -11.5903 C.2     
  11 C11            2.0212    14.4922   -10.7775 C.2     
  12 N12            3.0782    13.6245   -10.7165 N.pl3   
  13 C13            2.7703    12.5646   -11.4947 C.2     
  14 N14            1.5864    12.7537   -12.0100 N.2     
  15 C15           -5.1582    14.2882   -12.8503 C.2     
  16 O16           -4.7871    13.5817   -11.9370 O.2     
  17 N17           -2.8148    14.3701   -13.4756 N.am    
  18 C18           -4.1571    14.8336   -13.8358 C.3     
  19 C19           -4.5060    14.3423   -15.2421 C.3     
  20 C20           -3.5804    14.9849   -16.2428 C.ar    
  21 C21           -2.3875    14.3704   -16.5748 C.ar    
  22 C22           -1.5384    14.9599   -17.4927 C.ar    
  23 C23           -1.8825    16.1635   -18.0790 C.ar    
  24 C24           -3.0759    16.7775   -17.7477 C.ar    
  25 C25           -3.9270    16.1859   -16.8330 C.ar    
  26 C26           -8.7970    13.9846   -12.6760 C.2     
  27 O27           -8.9378    14.3421   -13.8263 O.2     
  28 N28           -6.4660    14.5853   -12.9839 N.am    
  29 C29           -7.4392    14.0551   -12.0258 C.3     
  30 C30           -7.5056    14.9743   -10.8046 C.3     
  31 C31           -6.1621    14.9484   -10.0731 C.3     
  32 C32           -6.2285    15.8677    -8.8518 C.3     
  33 N33           -4.9421    15.8429    -8.1514 N.pl3   
  34 C34           -4.7629    16.5971    -7.0160 C.2     
  35 N35           -3.6183    16.5750    -6.3928 N.2     
  36 N36           -5.7910    17.3747    -6.5379 N.pl3   
  37 C37          -12.2433    13.5169   -11.5503 C.2     
  38 O38          -11.9330    13.6087   -10.3814 O.2     
  39 N39           -9.8547    13.5242   -11.9790 N.am    
  40 C40          -11.1746    13.4557   -12.6110 C.3     
  41 C41          -11.3009    12.1432   -13.3871 C.3     
  42 C42          -10.2980    12.1354   -14.5426 C.3     
  43 C43          -10.4243    10.8229   -15.3186 C.3     
  44 C44           -9.4214    10.8151   -16.4741 C.3     
  45 N45           -9.5427     9.5549   -17.2192 N.3     
  46 C46          -15.8369    12.8684   -11.3809 C.2     
  47 O47          -15.8605    12.3945   -12.4970 O.2     
  48 N48          -13.5439    13.4696   -11.9005 N.am    
  49 C49          -14.5828    13.5291   -10.8693 C.3     
  50 C50          -14.8793    14.9907   -10.5278 C.3     
  51 C51          -13.6415    15.6273    -9.8925 C.3     
  52 C52          -13.9336    17.0669    -9.5561 C.2     
  53 O53          -15.0203    17.5357    -9.7996 O.2     
  54 O54          -12.9865    17.8284    -8.9862 O.3     
  55 C55          -19.3468    12.7231   -10.3697 C.2     
  56 O56          -19.1953    13.5756    -9.5205 O.2     
  57 N57          -16.9322    12.8041   -10.5982 N.am    
  58 C58          -18.1513    12.1618   -11.0956 C.3     
  59 C59          -18.0688    10.6535   -10.8523 C.3     
  60 C60          -16.9308    10.0637   -11.6877 C.3     
  61 C61          -16.8482     8.5554   -11.4445 C.3     
  62 N62          -15.7586     7.9907   -12.2444 N.pl3   
  63 C63          -15.4923     6.6430   -12.1891 C.2     
  64 N64          -16.2093     5.8678   -11.4250 N.2     
  65 N65          -14.4697     6.1130   -12.9399 N.pl3   
  66 C66          -22.8663    11.8150    -9.9807 C.2     
  67 O67          -22.7092    10.7461   -10.5317 O.2     
  68 N68          -20.5842    12.2776   -10.6642 N.am    
  69 C69          -21.7464    12.8231    -9.9585 C.3     
  70 C70          -22.2044    14.1095   -10.6487 C.3     
  71 C71          -22.5857    13.8027   -12.0983 C.3     
  72 C72          -23.1608    15.0610   -12.7516 C.3     
  73 C73          -21.0673    15.1330   -10.6262 C.3     
  74 C74          -26.4514    11.8339    -9.2668 C.2     
  75 O75          -26.4801    13.0415    -9.1577 O.2     
  76 N76          -24.0425    12.1014    -9.3882 N.am    
  77 C77          -25.1313    11.1213    -9.4098 C.3     
  78 C78          -24.9548    10.1374    -8.2515 C.3     
  79 C79          -23.6752     9.3256    -8.4624 C.3     
  80 C80          -23.5013     8.3564    -7.3216 C.2     
  81 O81          -24.3172     8.3189    -6.4311 O.2     
  82 O82          -22.4402     7.5349    -7.2946 O.3     
  83 C83          -30.0036    10.8139    -9.1435 C.2     
  84 O84          -29.7543     9.6331    -9.2635 O.2     
  85 N85          -27.6003    11.1293    -9.2603 N.am    
  86 C86          -28.8837    11.8220    -9.1213 C.3     
  87 C87          -33.6028    10.9582    -9.6883 C.2     
  88 O88          -33.7027    12.1630    -9.5913 O.2     
  89 N89          -31.2823    11.2245    -9.0299 N.am    
  90 C90          -32.3762    10.2590    -9.1614 C.3     
  91 C91          -32.6852     9.6488    -7.7928 C.3     
  92 C92          -33.7105     8.5248    -7.9553 C.3     
  93 C93          -33.0887     7.3793    -8.7566 C.3     
  94 C94          -34.1295     8.0134    -6.5755 C.3     
  95 C95          -36.9497     9.9053   -10.7141 C.2     
  96 O96          -36.7378     8.7487   -10.4168 O.2     
  97 N97          -34.5887    10.2447   -10.2673 N.am    
  98 C98          -35.8261    10.9091   -10.6840 C.3     
  99 C99          -35.6388    11.5069   -12.0799 C.3     
 100 C100         -34.5843    12.6140   -12.0232 C.3     
 101 C101         -34.3969    13.2118   -13.4191 C.3     
 102 N102         -33.3872    14.2718   -13.3648 N.pl3   
 103 C103         -33.0489    14.9581   -14.5071 C.2     
 104 N104         -33.6266    14.6656   -15.6383 N.2     
 105 N105         -32.1013    15.9529   -14.4562 N.pl3   
 106 C106         -40.3447     9.7806   -12.0639 C.2     
 107 O107         -40.2033    10.8236   -12.6665 O.2     
 108 N108         -38.1901    10.2927   -11.0715 N.am    
 109 C109         -39.2824     9.3169   -11.1008 C.3     
 110 C110         -39.8858     9.1846    -9.7010 C.3     
 111 C111         -38.8424     8.5958    -8.7494 C.3     
 112 C112         -39.4458     8.4636    -7.3496 C.3     
 113 C113         -38.4023     7.8748    -6.3981 C.3     
 114 N114         -38.9817     7.7478    -5.0541 N.3     
 115 C115         -43.8110     8.8864   -12.8041 C.2     
 116 O116         -43.8865     8.1538   -11.8405 O.2     
 117 N117         -41.4518     9.0364   -12.2556 N.am    
 118 C118         -42.4845     9.4872   -13.1918 C.3     
 119 C119         -42.1176     9.0418   -14.6089 C.3     
 120 C120         -40.8347     9.7494   -15.0498 C.3     
 121 C121         -40.4679     9.3040   -16.4668 C.3     
 122 N122         -39.2395     9.9814   -16.8890 N.pl3   
 123 C123         -38.7133     9.7370   -18.1354 C.2     
 124 N124         -39.3073     8.9026   -18.9415 N.2     
 125 N125         -37.5605    10.3728   -18.5316 N.pl3   
 126 C126         -47.0955     8.5070   -14.3633 C.2     
 127 O127         -46.6938     8.9042   -15.4365 O.2     
 128 N128         -44.9136     9.1633   -13.5280 N.am    
 129 C129         -46.2032     8.5792   -13.1511 C.3     
 130 C130         -46.8649     9.4511   -12.0820 C.3     
 131 C131         -46.0199     9.4238   -10.8068 C.3     
 132 C132         -46.6816    10.2956    -9.7377 C.3     
 133 N133         -45.8725    10.2695    -8.5167 N.pl3   
 134 C134         -46.2715    10.9843    -7.4122 C.2     
 135 N135         -45.5516    10.9610    -6.3258 N.2     
 136 N136         -47.4298    11.7238    -7.4536 N.pl3   
 137 C137         -50.6496     7.9319   -14.9963 C.2     
 138 O138         -50.9257     7.9862   -13.8166 O.2     
 139 N139         -48.3399     8.0009   -14.2549 N.am    
 140 C140         -49.2074     7.9306   -15.4334 C.3     
 141 C141         -48.9107     6.6457   -16.2091 C.3     
 142 C142         -47.4841     6.7000   -16.7593 C.3     
 143 C143         -47.1874     5.4150   -17.5350 C.3     
 144 N144         -45.8214     5.4670   -18.0618 N.pl3   
 145 C145         -45.3280     4.4158   -18.7979 C.2     
 146 N146         -44.1127     4.4621   -19.2666 N.2     
 147 N147         -46.1166     3.3159   -19.0397 N.pl3   
 148 C148         -53.8800     7.2088   -16.5470 C.2     
 149 O149         -53.3623     6.7763   -17.5549 O.2     
 150 N150         -51.6326     7.8727   -15.9164 N.am    
 151 C151         -53.0347     7.8740   -15.4916 C.3     
 152 C152         -53.5065     9.3160   -15.2942 C.3     
 153 C153         -52.7326     9.9521   -14.1378 C.3     
 154 C154         -53.1138    11.4292   -14.0204 C.3     
 155 C155         -53.0796     9.2307   -12.8340 C.3     
 156 C156         -57.4543     6.7977   -17.2485 C.2     
 157 O157         -57.8533     7.3498   -16.2451 O.2     
 158 N158         -55.2113     7.0946   -16.3710 N.am    
 159 C159         -56.0177     6.3522   -17.3429 C.3     
 160 C160         -55.9274     4.8547   -17.0427 C.3     
 161 C161         -56.6373     4.0693   -18.1474 C.3     
 162 C162         -55.8705     4.2310   -19.4615 C.3     
 163 C163         -56.6904     2.5884   -17.7668 C.3     
 164 C164         -60.5511     6.2627   -19.1158 C.2     
 165 O165         -60.0844     5.3341   -19.7322 O.2     
 166 N166         -58.2957     6.5826   -18.2792 N.am    
 167 C167         -59.6664     7.0967   -18.2253 C.3     
 168 C168         -59.6854     8.5496   -18.7042 C.3     
 169 O169         -61.8575     6.5514   -19.2242 O.3     
 170 C170           5.2663    16.0536   -15.4672 C.2     
 171 O171           5.1729    17.2316   -15.7404 O.2     
 172 C172          23.1664    17.0840   -20.9182 C.3     
 173 C173          21.8359    17.8126   -20.7182 C.3     
 174 C174          20.7964    16.8343   -20.1676 C.3     
 175 C175          19.4660    17.5629   -19.9677 C.3     
 176 C176          18.4265    16.5846   -19.4170 C.3     
 177 C177          17.0960    17.3132   -19.2171 C.3     
 178 C178          16.0565    16.3348   -18.6664 C.3     
 179 C179          14.7261    17.0634   -18.4665 C.3     
 180 C180          13.6866    16.0851   -17.9159 C.3     
 181 C181          12.3561    16.8137   -17.7160 C.3     
 182 C182          11.3166    15.8354   -17.1653 C.3     
 183 C183           9.9862    16.5640   -16.9654 C.3     
 184 C184           8.9467    15.5857   -16.4147 C.3     
 185 C185           7.6162    16.3143   -16.2148 C.3     
 186 C186           6.5767    15.3360   -15.6642 C.3     
 187 H187           4.2726    14.4443   -14.7691 H       
 188 H188           2.5798    16.4804   -15.7513 H       
 189 H189           3.0611    16.9037   -14.0908 H       
 190 H190           0.4012    16.4660   -14.1682 H       
 191 H191          -0.1816    13.6161   -13.9107 H       
 192 H192          -0.3138    15.5266   -11.5356 H       
 193 H193          -1.0291    13.8969   -11.5624 H       
 194 H194           1.9385    15.4426   -10.2714 H       
 195 H195           3.8956    13.7480   -10.2092 H       
 196 H196           3.3982    11.7015   -11.6599 H       
 197 H197          -2.7047    13.5520   -12.9662 H       
 198 H198          -4.1830    15.9231   -13.8148 H       
 199 H199          -4.3938    13.2590   -15.2868 H       
 200 H200          -5.5363    14.6108   -15.4756 H       
 201 H201          -2.1186    13.4300   -16.1168 H       
 202 H202          -0.6060    14.4802   -17.7516 H       
 203 H203          -1.2188    16.6244   -18.7956 H       
 204 H204          -3.3446    17.7181   -18.2054 H       
 205 H205          -4.8610    16.6638   -16.5769 H       
 206 H206          -6.7628    15.1503   -13.7143 H       
 207 H207          -7.1340    13.0566   -11.7128 H       
 208 H208          -7.7239    15.9923   -11.1275 H       
 209 H209          -8.2918    14.6298   -10.1328 H       
 210 H210          -5.9438    13.9305    -9.7501 H       
 211 H211          -5.3759    15.2929   -10.7449 H       
 212 H212          -6.4468    16.8856    -9.1748 H       
 213 H213          -7.0147    15.5232    -8.1801 H       
 214 H214          -4.2167    15.2943    -8.4887 H       
 215 H215          -3.4919    17.1072    -5.5917 H       
 216 H216          -6.6428    17.3911    -7.0017 H       
 217 H217          -5.6646    17.9069    -5.7369 H       
 218 H218          -9.7421    13.2383   -11.0590 H       
 219 H219         -11.2937    14.2955   -13.2956 H       
 220 H220         -11.0941    11.3058   -12.7208 H       
 221 H221         -12.3123    12.0512   -13.7832 H       
 222 H222         -10.5048    12.9728   -15.2089 H       
 223 H223          -9.2867    12.2274   -14.1465 H       
 224 H224         -10.2175     9.9854   -14.6523 H       
 225 H225         -11.4357    10.7309   -15.7147 H       
 226 H226          -9.6283    11.6525   -17.1404 H       
 227 H227          -8.4101    10.9071   -16.0780 H       
 228 H228         -10.4884     9.4152   -17.5419 H       
 229 H229          -8.8901     9.5253   -17.9882 H       
 230 H230         -13.7921    13.3962   -12.8353 H       
 231 H231         -14.2374    13.0099    -9.9752 H       
 232 H232         -15.1391    15.5310   -11.4381 H       
 233 H233         -15.7126    15.0382    -9.8267 H       
 234 H234         -13.3817    15.0870    -8.9822 H       
 235 H235         -12.8082    15.5798   -10.5935 H       
 236 H236         -13.2206    18.7457    -8.7889 H       
 237 H237         -16.9132    13.1831    -9.7055 H       
 238 H238         -18.2525    12.3525   -12.1640 H       
 239 H239         -17.8787    10.4658    -9.7955 H       
 240 H240         -19.0107    10.1869   -11.1406 H       
 241 H241         -17.1208    10.2514   -12.7445 H       
 242 H242         -15.9888    10.5303   -11.3995 H       
 243 H243         -16.6582     8.3677   -10.3877 H       
 244 H244         -17.7902     8.0888   -11.7328 H       
 245 H245         -15.2250     8.5676   -12.8131 H       
 246 H246         -16.0214     4.9170   -11.3860 H       
 247 H247         -13.9361     6.6899   -13.5085 H       
 248 H248         -14.2818     5.1622   -12.9009 H       
 249 H249         -20.7053    11.5957   -11.3434 H       
 250 H250         -21.4747    13.0418    -8.9258 H       
 251 H251         -23.0691    14.5155   -10.1236 H       
 252 H252         -21.7003    13.4808   -12.6465 H       
 253 H253         -23.3331    13.0095   -12.1172 H       
 254 H254         -23.4325    14.8423   -13.7844 H       
 255 H255         -24.0462    15.3828   -12.2034 H       
 256 H256         -22.4134    15.8542   -12.7327 H       
 257 H257         -21.3936    16.0495   -11.1178 H       
 258 H258         -20.7957    15.3517    -9.5935 H       
 259 H259         -20.2027    14.7271   -11.1512 H       
 260 H260         -24.1682    12.9563    -8.9476 H       
 261 H261         -25.1122    10.5778   -10.3544 H       
 262 H262         -24.8848    10.6888    -7.3138 H       
 263 H263         -25.8106     9.4634    -8.2137 H       
 264 H264         -23.7452     8.7742    -9.4001 H       
 265 H265         -22.8194     9.9996    -8.5003 H       
 266 H266         -22.3716     6.9308    -6.5426 H       
 267 H267         -27.5774    10.1635    -9.3475 H       
 268 H268         -29.0094    12.5230    -9.9465 H       
 269 H269         -28.9028    12.3656    -8.1767 H       
 270 H270         -31.4783    12.1594    -8.8610 H       
 271 H271         -32.0827     9.4695    -9.8533 H       
 272 H272         -31.7698     9.2458    -7.3596 H       
 273 H273         -33.0905    10.4180    -7.1353 H       
 274 H274         -34.5853     8.9045    -8.4832 H       
 275 H275         -33.8386     6.6072    -8.9284 H       
 276 H276         -32.7310     7.7579    -9.7141 H       
 277 H277         -32.2534     6.9567    -8.1981 H       
 278 H278         -34.5725     8.8295    -6.0047 H       
 279 H279         -34.8599     7.2126    -6.6913 H       
 280 H280         -33.2547     7.6337    -6.0477 H       
 281 H281         -34.4791     9.2912   -10.4081 H       
 282 H282         -36.0675    11.7036    -9.9779 H       
 283 H283         -35.3110    10.7277   -12.7679 H       
 284 H284         -36.5845    11.9234   -12.4266 H       
 285 H285         -34.9121    13.3932   -11.3352 H       
 286 H286         -33.6385    12.1975   -11.6765 H       
 287 H287         -34.0691    12.4326   -14.1071 H       
 288 H288         -35.3427    13.6283   -13.7658 H       
 289 H289         -32.9572    14.4895   -12.5230 H       
 290 H290         -33.3880    15.1498   -16.4442 H       
 291 H291         -31.6714    16.1706   -13.6144 H       
 292 H292         -31.8626    16.4371   -15.2621 H       
 293 H293         -38.3597    11.2177   -11.3093 H       
 294 H294         -38.8970     8.3496   -11.4231 H       
 295 H295         -40.1908    10.1678    -9.3424 H       
 296 H296         -40.7540     8.5268    -9.7402 H       
 297 H297         -38.5374     7.6127    -9.1080 H       
 298 H298         -37.9742     9.2537    -8.7102 H       
 299 H299         -39.7507     9.4467    -6.9911 H       
 300 H300         -40.3140     7.8057    -7.3889 H       
 301 H301         -38.0974     6.8917    -6.7566 H       
 302 H302         -37.5341     8.5326    -6.3588 H       
 303 H303         -39.8254     7.1949    -5.0748 H       
 304 H304         -38.3115     7.3608    -4.4066 H       
 305 H305         -41.5650     8.2022   -11.7736 H       
 306 H306         -42.5547    10.5745   -13.1595 H       
 307 H307         -41.9605     7.9633   -14.6215 H       
 308 H308         -42.9275     9.2990   -15.2916 H       
 309 H309         -40.9919    10.8279   -15.0372 H       
 310 H310         -40.0249     9.4922   -14.3670 H       
 311 H311         -40.3107     8.2254   -16.4795 H       
 312 H312         -41.2777     9.5611   -17.1496 H       
 313 H313         -38.7974    10.6025   -16.2892 H       
 314 H314         -38.9361     8.7301   -19.8209 H       
 315 H315         -37.1184    10.9938   -17.9318 H       
 316 H316         -37.1892    10.2004   -19.4110 H       
 317 H317         -44.8533     9.7492   -14.2987 H       
 318 H318         -46.0459     7.5759   -12.7554 H       
 319 H319         -46.9415    10.4760   -12.4452 H       
 320 H320         -47.8617     9.0669   -11.8656 H       
 321 H321         -45.9433     8.3989   -10.4436 H       
 322 H322         -45.0231     9.8080   -11.0231 H       
 323 H323         -46.7582    11.3205   -10.1009 H       
 324 H324         -47.6784     9.9114    -9.5214 H       
 325 H325         -45.0553     9.7477    -8.4875 H       
 326 H326         -45.8332    11.4654    -5.5466 H       
 327 H327         -47.9655    11.7411    -8.2621 H       
 328 H328         -47.7113    12.2282    -6.6743 H       
 329 H329         -48.6612     7.6832   -13.3965 H       
 330 H330         -49.0210     8.7928   -16.0736 H       
 331 H331         -49.0111     5.7882   -15.5437 H       
 332 H332         -49.6153     6.5491   -17.0352 H       
 333 H333         -47.3836     7.5575   -17.4246 H       
 334 H334         -46.7795     6.7965   -15.9332 H       
 335 H335         -47.2878     4.5575   -16.8697 H       
 336 H336         -47.8920     5.3184   -18.3611 H       
 337 H337         -45.2650     6.2430   -17.8913 H       
 338 H338         -43.7646     3.7204   -19.7860 H       
 339 H339         -47.0211     3.2815   -18.6909 H       
 340 H340         -45.7686     2.5743   -19.5590 H       
 341 H341         -51.4118     7.8293   -16.8600 H       
 342 H342         -53.1303     7.3287   -14.5526 H       
 343 H343         -53.3284     9.8847   -16.2069 H       
 344 H344         -54.5721     9.3215   -15.0648 H       
 345 H345         -51.6624     9.8669   -14.3265 H       
 346 H346         -54.1839    11.5144   -13.8318 H       
 347 H347         -52.5624    11.8824   -13.1966 H       
 348 H348         -52.8665    11.9432   -14.9493 H       
 349 H349         -52.8080     8.1784   -12.9176 H       
 350 H350         -52.5282     9.6838   -12.0101 H       
 351 H351         -54.1497     9.3158   -12.6453 H       
 352 H352         -55.6356     7.5040   -15.6007 H       
 353 H353         -55.6430     6.5445   -18.3483 H       
 354 H354         -54.8802     4.5553   -16.9996 H       
 355 H355         -56.4045     4.6467   -16.0850 H       
 356 H356         -57.6514     4.4498   -18.2693 H       
 357 H357         -56.4157     3.7339   -20.2638 H       
 358 H358         -55.7678     5.2909   -19.6942 H       
 359 H359         -54.8816     3.7833   -19.3625 H       
 360 H360         -57.2367     2.4732   -16.8306 H       
 361 H361         -57.1961     2.0289   -18.5537 H       
 362 H362         -55.6763     2.2080   -17.6448 H       
 363 H363         -57.9936     6.0873   -19.0566 H       
 364 H364         -60.0330     7.0472   -17.2000 H       
 365 H365         -59.3188     8.5991   -19.7295 H       
 366 H366         -60.7053     8.9321   -18.6641 H       
 367 H367         -59.0455     9.1529   -18.0601 H       
 368 H368         -62.3846     5.9882   -19.8073 H       
 369 H369          23.0293    16.2644   -21.6235 H       
 370 H370          23.9069    17.7810   -21.3105 H       
 371 H371          23.5107    16.6876   -19.9630 H       
 372 H372          21.9730    18.6322   -20.0129 H       
 373 H373          21.4916    18.2090   -21.6735 H       
 374 H374          20.6594    16.0146   -20.8729 H       
 375 H375          21.1407    16.4379   -19.2124 H       
 376 H376          19.6030    18.3825   -19.2623 H       
 377 H377          19.1217    17.9593   -20.9229 H       
 378 H378          18.2894    15.7649   -20.1224 H       
 379 H379          18.7708    16.1882   -18.4618 H       
 380 H380          17.2330    18.1328   -18.5117 H       
 381 H381          16.7517    17.7096   -20.1723 H       
 382 H382          15.9195    15.5152   -19.3718 H       
 383 H383          16.4008    15.9384   -17.7112 H       
 384 H384          14.8631    17.8831   -17.7612 H       
 385 H385          14.3818    17.4598   -19.4217 H       
 386 H386          13.5495    15.2655   -18.6212 H       
 387 H387          14.0308    15.6887   -16.9607 H       
 388 H388          12.4931    17.6334   -17.0106 H       
 389 H389          12.0118    17.2101   -18.6712 H       
 390 H390          11.1796    15.0158   -17.8707 H       
 391 H391          11.6609    15.4390   -16.2101 H       
 392 H392          10.1232    17.3836   -16.2600 H       
 393 H393           9.6419    16.9604   -17.9206 H       
 394 H394           8.8096    14.7661   -17.1201 H       
 395 H395           9.2909    15.1893   -15.4595 H       
 396 H396           7.7532    17.1339   -15.5095 H       
 397 H397           7.2719    16.7107   -17.1700 H       
 398 H398           6.9210    14.9396   -14.7089 H       
 399 H399           6.4397    14.5163   -16.3695 H       
@<TRIPOS>BOND
   1    1    2 2
   2    1    4 1
   3    1    7 am
   4    3    4 1
   5    3  170 am
   6    3  187 1
   7    4  188 1
   8    4  189 1
   9    5    6 2
  10    5    8 1
  11    5   17 am
  12    7    8 1
  13    7  190 1
  14    8    9 1
  15    8  191 1
  16    9   10 1
  17    9  192 1
  18    9  193 1
  19   10   11 2
  20   10   14 1
  21   11   12 1
  22   11  194 1
  23   12   13 1
  24   12  195 1
  25   13   14 2
  26   13  196 1
  27   15   16 2
  28   15   18 1
  29   15   28 am
  30   17   18 1
  31   17  197 1
  32   18   19 1
  33   18  198 1
  34   19   20 1
  35   19  199 1
  36   19  200 1
  37   20   21 ar
  38   20   25 ar
  39   21   22 ar
  40   21  201 1
  41   22   23 ar
  42   22  202 1
  43   23   24 ar
  44   23  203 1
  45   24   25 ar
  46   24  204 1
  47   25  205 1
  48   26   27 2
  49   26   29 1
  50   26   39 am
  51   28   29 1
  52   28  206 1
  53   29   30 1
  54   29  207 1
  55   30   31 1
  56   30  208 1
  57   30  209 1
  58   31   32 1
  59   31  210 1
  60   31  211 1
  61   32   33 1
  62   32  212 1
  63   32  213 1
  64   33   34 1
  65   33  214 1
  66   34   35 2
  67   34   36 1
  68   35  215 1
  69   36  216 1
  70   36  217 1
  71   37   38 2
  72   37   40 1
  73   37   48 am
  74   39   40 1
  75   39  218 1
  76   40   41 1
  77   40  219 1
  78   41   42 1
  79   41  220 1
  80   41  221 1
  81   42   43 1
  82   42  222 1
  83   42  223 1
  84   43   44 1
  85   43  224 1
  86   43  225 1
  87   44   45 1
  88   44  226 1
  89   44  227 1
  90   45  228 1
  91   45  229 1
  92   46   47 2
  93   46   49 1
  94   46   57 am
  95   48   49 1
  96   48  230 1
  97   49   50 1
  98   49  231 1
  99   50   51 1
 100   50  232 1
 101   50  233 1
 102   51   52 1
 103   51  234 1
 104   51  235 1
 105   52   53 2
 106   52   54 1
 107   54  236 1
 108   55   56 2
 109   55   58 1
 110   55   68 am
 111   57   58 1
 112   57  237 1
 113   58   59 1
 114   58  238 1
 115   59   60 1
 116   59  239 1
 117   59  240 1
 118   60   61 1
 119   60  241 1
 120   60  242 1
 121   61   62 1
 122   61  243 1
 123   61  244 1
 124   62   63 1
 125   62  245 1
 126   63   64 2
 127   63   65 1
 128   64  246 1
 129   65  247 1
 130   65  248 1
 131   66   67 2
 132   66   69 1
 133   66   76 am
 134   68   69 1
 135   68  249 1
 136   69   70 1
 137   69  250 1
 138   70   71 1
 139   70   73 1
 140   70  251 1
 141   71   72 1
 142   71  252 1
 143   71  253 1
 144   72  254 1
 145   72  255 1
 146   72  256 1
 147   73  257 1
 148   73  258 1
 149   73  259 1
 150   74   75 2
 151   74   77 1
 152   74   85 am
 153   76   77 1
 154   76  260 1
 155   77   78 1
 156   77  261 1
 157   78   79 1
 158   78  262 1
 159   78  263 1
 160   79   80 1
 161   79  264 1
 162   79  265 1
 163   80   81 2
 164   80   82 1
 165   82  266 1
 166   83   84 2
 167   83   86 1
 168   83   89 am
 169   85   86 1
 170   85  267 1
 171   86  268 1
 172   86  269 1
 173   87   88 2
 174   87   90 1
 175   87   97 am
 176   89   90 1
 177   89  270 1
 178   90   91 1
 179   90  271 1
 180   91   92 1
 181   91  272 1
 182   91  273 1
 183   92   93 1
 184   92   94 1
 185   92  274 1
 186   93  275 1
 187   93  276 1
 188   93  277 1
 189   94  278 1
 190   94  279 1
 191   94  280 1
 192   95   96 2
 193   95   98 1
 194   95  108 am
 195   97   98 1
 196   97  281 1
 197   98   99 1
 198   98  282 1
 199   99  100 1
 200   99  283 1
 201   99  284 1
 202  100  101 1
 203  100  285 1
 204  100  286 1
 205  101  102 1
 206  101  287 1
 207  101  288 1
 208  102  103 1
 209  102  289 1
 210  103  104 2
 211  103  105 1
 212  104  290 1
 213  105  291 1
 214  105  292 1
 215  106  107 2
 216  106  109 1
 217  106  117 am
 218  108  109 1
 219  108  293 1
 220  109  110 1
 221  109  294 1
 222  110  111 1
 223  110  295 1
 224  110  296 1
 225  111  112 1
 226  111  297 1
 227  111  298 1
 228  112  113 1
 229  112  299 1
 230  112  300 1
 231  113  114 1
 232  113  301 1
 233  113  302 1
 234  114  303 1
 235  114  304 1
 236  115  116 2
 237  115  118 1
 238  115  128 am
 239  117  118 1
 240  117  305 1
 241  118  119 1
 242  118  306 1
 243  119  120 1
 244  119  307 1
 245  119  308 1
 246  120  121 1
 247  120  309 1
 248  120  310 1
 249  121  122 1
 250  121  311 1
 251  121  312 1
 252  122  123 1
 253  122  313 1
 254  123  124 2
 255  123  125 1
 256  124  314 1
 257  125  315 1
 258  125  316 1
 259  126  127 2
 260  126  129 1
 261  126  139 am
 262  128  129 1
 263  128  317 1
 264  129  130 1
 265  129  318 1
 266  130  131 1
 267  130  319 1
 268  130  320 1
 269  131  132 1
 270  131  321 1
 271  131  322 1
 272  132  133 1
 273  132  323 1
 274  132  324 1
 275  133  134 1
 276  133  325 1
 277  134  135 2
 278  134  136 1
 279  135  326 1
 280  136  327 1
 281  136  328 1
 282  137  138 2
 283  137  140 1
 284  137  150 am
 285  139  140 1
 286  139  329 1
 287  140  141 1
 288  140  330 1
 289  141  142 1
 290  141  331 1
 291  141  332 1
 292  142  143 1
 293  142  333 1
 294  142  334 1
 295  143  144 1
 296  143  335 1
 297  143  336 1
 298  144  145 1
 299  144  337 1
 300  145  146 2
 301  145  147 1
 302  146  338 1
 303  147  339 1
 304  147  340 1
 305  148  149 2
 306  148  151 1
 307  148  158 am
 308  150  151 1
 309  150  341 1
 310  151  152 1
 311  151  342 1
 312  152  153 1
 313  152  343 1
 314  152  344 1
 315  153  154 1
 316  153  155 1
 317  153  345 1
 318  154  346 1
 319  154  347 1
 320  154  348 1
 321  155  349 1
 322  155  350 1
 323  155  351 1
 324  156  157 2
 325  156  159 1
 326  156  166 am
 327  158  159 1
 328  158  352 1
 329  159  160 1
 330  159  353 1
 331  160  161 1
 332  160  354 1
 333  160  355 1
 334  161  162 1
 335  161  163 1
 336  161  356 1
 337  162  357 1
 338  162  358 1
 339  162  359 1
 340  163  360 1
 341  163  361 1
 342  163  362 1
 343  164  165 2
 344  164  167 1
 345  164  169 1
 346  166  167 1
 347  166  363 1
 348  167  168 1
 349  167  364 1
 350  168  365 1
 351  168  366 1
 352  168  367 1
 353  169  368 1
 354  170  171 2
 355  170  186 1
 356  172  173 1
 357  172  369 1
 358  172  370 1
 359  172  371 1
 360  173  174 1
 361  173  372 1
 362  173  373 1
 363  174  175 1
 364  174  374 1
 365  174  375 1
 366  175  176 1
 367  175  376 1
 368  175  377 1
 369  176  177 1
 370  176  378 1
 371  176  379 1
 372  177  178 1
 373  177  380 1
 374  177  381 1
 375  178  179 1
 376  178  382 1
 377  178  383 1
 378  179  180 1
 379  179  384 1
 380  179  385 1
 381  180  181 1
 382  180  386 1
 383  180  387 1
 384  181  182 1
 385  181  388 1
 386  181  389 1
 387  182  183 1
 388  182  390 1
 389  182  391 1
 390  183  184 1
 391  183  392 1
 392  183  393 1
 393  184  185 1
 394  184  394 1
 395  184  395 1
 396  185  186 1
 397  185  396 1
 398  185  397 1
 399  186  398 1
 400  186  399 1

#	End of record

