#	Name: ASD08150360
#	Creating user name:	WinNT
#	Creation time:	15. 06. 2019 21:15

#	Modifying user name:	WinNT
#	Modification time:	15. 06. 2019 21:15

#	Program:	/corina/corina34_cracker 3.40 0067  02.08.2006

@<TRIPOS>MOLECULE
ASD08150360
  49   53    0    0    0
SMALL
NO_CHARGES


@<TRIPOS>ATOM
   1 C1             1.1006    -0.2143     1.0471 C.3     
   2 N2             1.6081    -4.3512    -1.5616 N.am    
   3 C3             2.7097    -4.3807    -2.3364 C.2     
   4 C4             2.7010    -5.0411    -3.5819 C.2     
   5 C5             1.5748    -5.6597    -4.0192 C.2     
   6 C6             0.4140    -5.6310    -3.2064 C.ar    
   7 C7            -0.7799    -6.2570    -3.6124 C.ar    
   8 N8            -1.8492    -6.2293    -2.8604 N.ar    
   9 C9            -1.8738    -5.6103    -1.6706 C.ar    
  10 C10           -0.7173    -4.9537    -1.1820 C.ar    
  11 C11            0.4563    -4.9649    -1.9719 C.ar    
  12 C12           -0.7533    -4.3111     0.0591 C.ar    
  13 C13           -1.9245    -4.3237     0.8004 C.ar    
  14 C14           -3.0652    -4.9758     0.3100 C.ar    
  15 C15           -3.0453    -5.6050    -0.8952 C.ar    
  16 O16            3.7278    -3.8287    -1.9555 O.2     
  17 C17           -1.9714    -3.6454     2.1174 C.ar    
  18 C18            1.6438    -3.6934    -0.3265 C.ar    
  19 C19            1.9573    -4.3982     0.8286 C.ar    
  20 C20            1.9916    -3.7464     2.0455 C.ar    
  21 C21            1.7144    -2.3932     2.1149 C.ar    
  22 C22            1.4020    -1.6887     0.9669 C.ar    
  23 C23            1.3716    -2.3336    -0.2542 C.ar    
  24 C24            1.7518    -1.6852     3.4447 C.3     
  25 C25           -1.2813    -2.4485     2.3216 C.ar    
  26 N26           -1.3186    -1.8421     3.4866 N.ar    
  27 C27           -2.0073    -2.3360     4.5101 C.ar    
  28 C28           -2.7217    -3.5285     4.3818 C.ar    
  29 C29           -2.7121    -4.1926     3.1702 C.ar    
  30 C30           -2.0163    -1.6368     5.7598 C.1     
  31 N31           -2.0234    -1.0822     6.7511 N.1     
  32 H32            2.0237     0.3524     0.9252 H       
  33 H33            0.4006     0.0570     0.2569 H       
  34 H34            0.6595     0.0141     2.0174 H       
  35 H35            3.5933    -5.0545    -4.1902 H       
  36 H36            1.5633    -6.1662    -4.9730 H       
  37 H37           -0.8133    -6.7692    -4.5627 H       
  38 H38            0.1248    -3.8090     0.4375 H       
  39 H39           -3.9715    -4.9782     0.8974 H       
  40 H40           -3.9329    -6.1023    -1.2575 H       
  41 H41            2.1735    -5.4550     0.7752 H       
  42 H42            2.2353    -4.2939     2.9440 H       
  43 H43            1.1322    -1.7818    -1.1512 H       
  44 H44            2.7567    -1.3033     3.6248 H       
  45 H45            1.0443    -0.8561     3.4350 H       
  46 H46            1.4815    -2.3842     4.2362 H       
  47 H47           -0.7102    -2.0167     1.5129 H       
  48 H48           -3.2790    -3.9245     5.2179 H       
  49 H49           -3.2559    -5.1169     3.0418 H       
@<TRIPOS>BOND
   1    1   22 1
   2    1   32 1
   3    1   33 1
   4    1   34 1
   5    2    3 am
   6    2   11 1
   7    2   18 1
   8    3    4 1
   9    3   16 2
  10    4    5 2
  11    4   35 1
  12    5    6 1
  13    5   36 1
  14    6    7 ar
  15    6   11 ar
  16    7    8 ar
  17    7   37 1
  18    8    9 ar
  19    9   10 ar
  20    9   15 ar
  21   10   11 ar
  22   10   12 ar
  23   12   13 ar
  24   12   38 1
  25   13   14 ar
  26   13   17 1
  27   14   15 ar
  28   14   39 1
  29   15   40 1
  30   17   25 ar
  31   17   29 ar
  32   18   19 ar
  33   18   23 ar
  34   19   20 ar
  35   19   41 1
  36   20   21 ar
  37   20   42 1
  38   21   22 ar
  39   21   24 1
  40   22   23 ar
  41   23   43 1
  42   24   44 1
  43   24   45 1
  44   24   46 1
  45   25   26 ar
  46   25   47 1
  47   26   27 ar
  48   27   28 ar
  49   27   30 1
  50   28   29 ar
  51   28   48 1
  52   29   49 1
  53   30   31 3

#	End of record

