#	Name: ASD01730044
#	Creating user name:	WinNT
#	Creation time:	15. 06. 2019 19:23

#	Modifying user name:	WinNT
#	Modification time:	15. 06. 2019 19:23

#	Program:	/corina/corina34_cracker 3.40 0067  02.08.2006

@<TRIPOS>MOLECULE
ASD01730044
  32   33    0    0    0
SMALL
NO_CHARGES


@<TRIPOS>ATOM
   1 N1            -0.0162     1.3436     0.0094 N.am    
   2 C2             0.0021    -0.0041     0.0020 C.2     
   3 S3             1.4961    -0.8398    -0.0167 S.2     
   4 N4            -1.1558    -0.6938     0.0094 N.am    
   5 C5            -1.1360    -2.1586     0.0013 C.3     
   6 C6            -2.5713    -2.6882     0.0122 C.3     
   7 C7            -2.5506    -4.2180     0.0038 C.3     
   8 S8             2.4832     4.1980     0.9842 S.3     
   9 C9             1.0902     3.5496     0.0107 C.3     
  10 C10            1.1652     2.0472     0.0019 C.2     
  11 N11            2.2595     1.3818    -0.0117 N.2     
  12 C12            3.5271     1.8784    -0.0220 C.ar    
  13 C13            3.8092     3.1815     0.4150 C.ar    
  14 C14            4.5789     1.0782    -0.4759 C.ar    
  15 C15            5.8679     1.5696    -0.4874 C.ar    
  16 C16            6.1351     2.8553    -0.0518 C.ar    
  17 C17            5.1057     3.6624     0.3996 C.ar    
  18 H18           -0.8627     1.8171     0.0160 H       
  19 H19           -2.0023    -0.2203     0.0200 H       
  20 H20           -0.6258    -2.5101    -0.8955 H       
  21 H21           -0.6088    -2.5197     0.8844 H       
  22 H22           -3.0815    -2.3367     0.9090 H       
  23 H23           -3.0985    -2.3271    -0.8709 H       
  24 H24           -2.0404    -4.5695    -0.8930 H       
  25 H25           -2.0234    -4.5791     0.8868 H       
  26 H26           -3.5732    -4.5953     0.0115 H       
  27 H27            0.1500     3.8660     0.4623 H       
  28 H28            1.1522     3.9246    -1.0108 H       
  29 H29            4.3823     0.0728    -0.8181 H       
  30 H30            6.6757     0.9450    -0.8393 H       
  31 H31            7.1482     3.2292    -0.0636 H       
  32 H32            5.3144     4.6663     0.7390 H       
@<TRIPOS>BOND
   1    1    2 am
   2    1   10 1
   3    1   18 1
   4    2    3 2
   5    2    4 am
   6    4    5 1
   7    4   19 1
   8    5    6 1
   9    5   20 1
  10    5   21 1
  11    6    7 1
  12    6   22 1
  13    6   23 1
  14    7   24 1
  15    7   25 1
  16    7   26 1
  17    8    9 1
  18    8   13 1
  19    9   10 1
  20    9   27 1
  21    9   28 1
  22   10   11 2
  23   11   12 1
  24   12   13 ar
  25   12   14 ar
  26   13   17 ar
  27   14   15 ar
  28   14   29 1
  29   15   16 ar
  30   15   30 1
  31   16   17 ar
  32   16   31 1
  33   17   32 1

#	End of record

