#	Name: ASD02448059
#	Creating user name:	WinNT
#	Creation time:	15. 06. 2019 20:21

#	Modifying user name:	WinNT
#	Modification time:	15. 06. 2019 20:21

#	Program:	/corina/corina34_cracker 3.40 0067  02.08.2006

@<TRIPOS>MOLECULE
ASD02448059
  81   87    0    0    0
SMALL
NO_CHARGES


@<TRIPOS>ATOM
   1 C1            -0.0235     1.3535    -0.0538 C.ar    
   2 C2            -0.0045    -0.0278    -0.0457 C.ar    
   3 C3             1.2069    -0.7074    -0.0372 C.ar    
   4 C4             2.3985     0.0018    -0.0368 C.ar    
   5 C5             2.3767     1.3898    -0.0450 C.ar    
   6 C6             1.1617     2.0637    -0.0535 C.ar    
   7 N7             3.5746     2.1080    -0.0442 N.am    
   8 C8             4.4054     2.4788    -1.1972 C.3     
   9 C9             5.6126     3.2505    -0.7715 C.2     
  10 N10            5.7108     3.4558     0.5496 N.am    
  11 S11            4.3857     2.7475     1.2660 S.o2    
  12 O12            6.4391     3.6586    -1.5597 O.2     
  13 O13            3.5842     3.7954     1.7938 O.2     
  14 O14            4.8606     1.6493     2.0326 O.2     
  15 N15            1.2248    -2.1093    -0.0285 N.pl3   
  16 C16            1.8566    -2.9189    -0.9344 C.2     
  17 C17            0.6234    -2.9173     0.8838 C.2     
  18 N18            0.8584    -4.1597     0.5665 N.2     
  19 C19            1.6154    -4.1990    -0.5489 C.2     
  20 C20            2.0990    -5.4231    -1.2336 C.ar    
  21 C21            1.7761    -6.6821    -0.7272 C.ar    
  22 C22            2.8723    -5.3193    -2.3878 C.ar    
  23 C23            3.3195    -6.4611    -3.0214 C.ar    
  24 C24            3.0011    -7.7083    -2.5125 C.ar    
  25 C25            2.2286    -7.8181    -1.3689 C.ar    
  26 C26           -0.1835    -2.4529     2.0689 C.3     
  27 C27            0.6975    -2.4100     3.2908 C.ar    
  28 C28            1.4606    -1.2861     3.5509 C.ar    
  29 C29            0.7356    -3.4925     4.1511 C.ar    
  30 C30            1.5403    -3.4585     5.2719 C.ar    
  31 C31            2.3152    -2.3310     5.5360 C.ar    
  32 C32            2.2689    -1.2413     4.6688 C.ar    
  33 C33            3.1819    -2.2884     6.7397 C.ar    
  34 C34            3.9568    -1.1609     7.0038 C.ar    
  35 C35            3.2195    -3.3734     7.6130 C.ar    
  36 C36            4.0275    -3.3285     8.7311 C.ar    
  37 C37            4.7987    -2.2087     8.9856 C.ar    
  38 C38            4.7612    -1.1266     8.1249 C.ar    
  39 Cl39           0.8079    -6.8206     0.7071 Cl      
  40 Cl40           3.5670    -9.1400    -3.3147 Cl      
  41 C41            5.6781    -2.1651    10.2086 C.3     
  42 C42            7.1365    -1.9861     9.7819 C.3     
  43 C43            8.0294    -1.9418    11.0235 C.3     
  44 C44            7.6102    -0.7686    11.9116 C.3     
  45 C45            6.1518    -0.9476    12.3383 C.3     
  46 C46            5.2589    -0.9919    11.0967 C.3     
  47 C47            1.1365     3.5704    -0.0623 C.3     
  48 H48           -0.9668     1.8794    -0.0649 H       
  49 H49           -0.9327    -0.5800    -0.0456 H       
  50 H50            3.3415    -0.5245    -0.0299 H       
  51 H51            4.7243     1.5733    -1.7133 H       
  52 H52            3.8150     3.0883    -1.8813 H       
  53 H53            6.4225     3.9328     1.0046 H       
  54 H54            2.4342    -2.6013    -1.7900 H       
  55 H55            3.1213    -4.3469    -2.7863 H       
  56 H56            3.9187    -6.3812    -3.9164 H       
  57 H57            1.9829    -8.7935    -0.9757 H       
  58 H58           -0.5792    -1.4567     1.8711 H       
  59 H59           -1.0087    -3.1442     2.2400 H       
  60 H60            1.4243    -0.4423     2.8779 H       
  61 H61            0.1343    -4.3658     3.9456 H       
  62 H62            1.5691    -4.3040     5.9431 H       
  63 H63            2.8678    -0.3651     4.8686 H       
  64 H64            3.9284    -0.3154     6.3324 H       
  65 H65            2.6172    -4.2479     7.4156 H       
  66 H66            4.0573    -4.1689     9.4087 H       
  67 H67            5.3657    -0.2550     8.3281 H       
  68 H68            5.5740    -3.0969    10.7645 H       
  69 H69            7.4351    -2.8220     9.1492 H       
  70 H70            7.2407    -1.0543     9.2260 H       
  71 H71            7.9252    -2.8736    11.5794 H       
  72 H72            9.0684    -1.8143    10.7195 H       
  73 H73            8.2463    -0.7370    12.7961 H       
  74 H74            7.7144     0.1632    11.3557 H       
  75 H75            6.0477    -1.8793    12.8942 H       
  76 H76            5.8532    -0.1117    12.9710 H       
  77 H77            5.3631    -0.0601    10.5408 H       
  78 H78            4.2200    -1.1194    11.4007 H       
  79 H79            1.1343     3.9277    -1.0921 H       
  80 H80            0.2387     3.9218     0.4461 H       
  81 H81            2.0184     3.9516     0.4526 H       
@<TRIPOS>BOND
   1    1    2 ar
   2    1    6 ar
   3    1   48 1
   4    2    3 ar
   5    2   49 1
   6    3    4 ar
   7    3   15 1
   8    4    5 ar
   9    4   50 1
  10    5    6 ar
  11    5    7 1
  12    6   47 1
  13    7    8 1
  14    7   11 am
  15    8    9 1
  16    8   51 1
  17    8   52 1
  18    9   10 am
  19    9   12 2
  20   10   11 am
  21   10   53 1
  22   11   13 2
  23   11   14 2
  24   15   16 1
  25   15   17 1
  26   16   19 2
  27   16   54 1
  28   17   18 2
  29   17   26 1
  30   18   19 1
  31   19   20 1
  32   20   21 ar
  33   20   22 ar
  34   21   39 1
  35   21   25 ar
  36   22   23 ar
  37   22   55 1
  38   23   24 ar
  39   23   56 1
  40   24   25 ar
  41   24   40 1
  42   25   57 1
  43   26   27 1
  44   26   58 1
  45   26   59 1
  46   27   28 ar
  47   27   29 ar
  48   28   32 ar
  49   28   60 1
  50   29   30 ar
  51   29   61 1
  52   30   31 ar
  53   30   62 1
  54   31   32 ar
  55   31   33 1
  56   32   63 1
  57   33   34 ar
  58   33   35 ar
  59   34   38 ar
  60   34   64 1
  61   35   36 ar
  62   35   65 1
  63   36   37 ar
  64   36   66 1
  65   37   38 ar
  66   37   41 1
  67   38   67 1
  68   41   42 1
  69   41   46 1
  70   41   68 1
  71   42   43 1
  72   42   69 1
  73   42   70 1
  74   43   44 1
  75   43   71 1
  76   43   72 1
  77   44   45 1
  78   44   73 1
  79   44   74 1
  80   45   46 1
  81   45   75 1
  82   45   76 1
  83   46   77 1
  84   46   78 1
  85   47   79 1
  86   47   80 1
  87   47   81 1

#	End of record

