#	Name: ASD01881506
#	Creating user name:	WinNT
#	Creation time:	15. 06. 2019 19:42

#	Modifying user name:	WinNT
#	Modification time:	15. 06. 2019 19:42

#	Program:	/corina/corina34_cracker 3.40 0067  02.08.2006

@<TRIPOS>MOLECULE
ASD01881506
  58   60    0    0    0
SMALL
NO_CHARGES


@<TRIPOS>ATOM
   1 C1            -0.0156     1.2975     0.0092 C.2     
   2 N2             0.0021    -0.0041     0.0020 N.2     
   3 C3             1.2925    -0.4255    -0.0126 C.2     
   4 C4             2.0870     0.6835    -0.0142 C.2     
   5 N5             1.2627     1.7573    -0.0006 N.pl3   
   6 C6             1.7513    -1.8255    -0.0245 C.2     
   7 O7             2.9415    -2.0753    -0.0367 O.2     
   8 N8             0.8520    -2.8294    -0.0218 N.am    
   9 C9             1.6752     3.1630     0.0031 C.3     
  10 C10            1.3082    -4.2215    -0.0336 C.3     
  11 C11            0.1146    -5.1414    -0.0278 C.ar    
  12 C12           -0.4438    -5.5567    -1.2222 C.ar    
  13 C13           -1.5388    -6.4004    -1.2168 C.ar    
  14 C14           -2.0751    -6.8292    -0.0170 C.ar    
  15 C15           -1.5161    -6.4146     1.1774 C.ar    
  16 C16           -0.4185    -5.5744     1.1719 C.ar    
  17 C17           -3.2694    -7.7483    -0.0112 C.3     
  18 O18           -2.8253    -9.1065    -0.0237 O.3     
  19 C19           -3.7828   -10.0676    -0.0204 C.ar    
  20 C20           -3.4173   -11.4063    -0.0321 C.ar    
  21 C21           -4.3923   -12.3884    -0.0287 C.ar    
  22 C22           -5.7499   -12.0197    -0.0134 C.ar    
  23 C23           -6.1001   -10.6628    -0.0018 C.ar    
  24 C24           -5.1273    -9.7059     0.0005 C.ar    
  25 C25           -1.9601   -11.7902    -0.0489 C.3     
  26 F26           -1.4961   -11.9169     1.2648 F       
  27 F27           -1.8068   -13.0096    -0.7173 F       
  28 F28           -1.2247   -10.8005    -0.7098 F       
  29 C29           -6.7922   -13.0490    -0.0102 C.2     
  30 O30           -6.4856   -14.2230    -0.0207 O.2     
  31 C31           -8.2453   -12.6499     0.0062 C.3     
  32 C32           -9.0891   -13.7715    -0.6027 C.3     
  33 C33           -8.6901   -12.4029     1.4491 C.3     
  34 O34           -4.0412   -13.6982    -0.0405 O.3     
  35 H35           -0.9033     1.9126     0.0169 H       
  36 H36            3.1668     0.7013    -0.0239 H       
  37 H37           -0.0972    -2.6302    -0.0120 H       
  38 H38            1.7877     3.5060     1.0315 H       
  39 H39            2.6263     3.2639    -0.5197 H       
  40 H40            0.9185     3.7650    -0.5000 H       
  41 H41            1.9015    -4.4018    -0.9301 H       
  42 H42            1.9178    -4.4116     0.8498 H       
  43 H43           -0.0249    -5.2216    -2.1595 H       
  44 H44           -1.9755    -6.7243    -2.1499 H       
  45 H45           -1.9353    -6.7494     2.1147 H       
  46 H46            0.0205    -5.2534     2.1050 H       
  47 H47           -3.8621    -7.5681     0.8856 H       
  48 H48           -3.8792    -7.5572    -0.8942 H       
  49 H49           -7.1407   -10.3743     0.0100 H       
  50 H50           -5.4019    -8.6615     0.0142 H       
  51 H51           -8.3782   -11.7381    -0.5761 H       
  52 H52           -8.9562   -14.6833    -0.0204 H       
  53 H53          -10.1401   -13.4828    -0.5909 H       
  54 H54           -8.7723   -13.9475    -1.6307 H       
  55 H55           -8.0889   -11.6038     1.8829 H       
  56 H56           -9.7411   -12.1142     1.4610 H       
  57 H57           -8.5571   -13.3146     2.0315 H       
  58 H58           -3.9307   -14.0837     0.8394 H       
@<TRIPOS>BOND
   1    1    2 2
   2    1    5 1
   3    1   35 1
   4    2    3 1
   5    3    4 2
   6    3    6 1
   7    4    5 1
   8    4   36 1
   9    5    9 1
  10    6    7 2
  11    6    8 am
  12    8   10 1
  13    8   37 1
  14    9   38 1
  15    9   39 1
  16    9   40 1
  17   10   11 1
  18   10   41 1
  19   10   42 1
  20   11   12 ar
  21   11   16 ar
  22   12   13 ar
  23   12   43 1
  24   13   14 ar
  25   13   44 1
  26   14   15 ar
  27   14   17 1
  28   15   16 ar
  29   15   45 1
  30   16   46 1
  31   17   18 1
  32   17   47 1
  33   17   48 1
  34   18   19 1
  35   19   20 ar
  36   19   24 ar
  37   20   21 ar
  38   20   25 1
  39   21   22 ar
  40   21   34 1
  41   22   23 ar
  42   22   29 1
  43   23   24 ar
  44   23   49 1
  45   24   50 1
  46   25   26 1
  47   25   27 1
  48   25   28 1
  49   29   30 2
  50   29   31 1
  51   31   32 1
  52   31   33 1
  53   31   51 1
  54   32   52 1
  55   32   53 1
  56   32   54 1
  57   33   55 1
  58   33   56 1
  59   33   57 1
  60   34   58 1

#	End of record

