#	Name: ASD03700010
#	Creating user name:	WinNT
#	Creation time:	15. 06. 2019 20:43

#	Modifying user name:	WinNT
#	Modification time:	15. 06. 2019 20:43

#	Program:	/corina/corina34_cracker 3.40 0067  02.08.2006

@<TRIPOS>MOLECULE
ASD03700010
  40   43    0    0    0
SMALL
NO_CHARGES


@<TRIPOS>ATOM
   1 C1            -0.0178     1.4608     0.0101 C.3     
   2 N2             0.0021    -0.0041     0.0020 N.pl3   
   3 C3             0.0254    -2.1412    -0.6376 C.ar    
   4 C4             0.0232    -0.8240     1.1010 C.2     
   5 N5             0.0368    -2.0799     0.7159 N.2     
   6 C6             0.0151    -2.9441    -2.8922 C.ar    
   7 C7            -0.0236    -1.6391    -3.3625 C.ar    
   8 C8            -0.0257    -0.5780    -2.4811 C.ar    
   9 C9            -0.0030    -0.8186    -1.1146 C.ar    
  10 C10            0.0312    -3.2011    -1.5506 C.ar    
  11 C11            0.0300    -0.3668     2.4985 C.2     
  12 O12            0.2992     0.8848     2.9207 O.3     
  13 C13            0.2113     0.9323     4.2586 C.2     
  14 C14           -0.1170    -0.2941     4.7150 C.2     
  15 C15           -0.2405    -1.1332     3.5929 C.2     
  16 C16            1.3960     1.9824    -0.0006 C.2     
  17 S17            2.3842     2.3343     1.4186 S.3     
  18 C18            3.6937     2.8257     0.3421 C.2     
  19 N19            3.2736     2.6814    -0.8829 N.2     
  20 N20            2.1021     2.2462    -1.0514 N.2     
  21 S21            5.2825     3.4067     0.8349 S.3     
  22 C22            6.0291     3.6954    -0.7884 C.3     
  23 C23            7.4338     4.2113    -0.6107 C.2     
  24 N24            8.1880     4.4982    -1.6903 N.am    
  25 O25            7.8858     4.3683     0.5037 O.2     
  26 N26            9.4613     4.9658    -1.5292 N.3     
  27 H27           -0.5450     1.8219    -0.8730 H       
  28 H28           -0.5280     1.8123     0.9069 H       
  29 H29            0.0163    -3.7652    -3.5937 H       
  30 H30           -0.0355    -1.4526    -4.4262 H       
  31 H31           -0.0446     0.4358    -2.8530 H       
  32 H32            0.0486    -4.2209    -1.1955 H       
  33 H33            0.3765     1.8076     4.8694 H       
  34 H34           -0.2616    -0.5773     5.7472 H       
  35 H35           -0.4977    -2.1821     3.5976 H       
  36 H36            6.0534     2.7607    -1.3486 H       
  37 H37            5.4383     4.4309    -1.3344 H       
  38 H38            7.8265     4.3727    -2.5816 H       
  39 H39           10.0116     4.3310    -0.9703 H       
  40 H40            9.9000     5.1350    -2.4219 H       
@<TRIPOS>BOND
   1    1    2 1
   2    1   16 1
   3    1   27 1
   4    1   28 1
   5    2    4 1
   6    2    9 1
   7    3    5 1
   8    3   10 ar
   9    3    9 ar
  10    4    5 2
  11    4   11 1
  12    6    7 ar
  13    6   10 ar
  14    6   29 1
  15    7    8 ar
  16    7   30 1
  17    8    9 ar
  18    8   31 1
  19   10   32 1
  20   11   12 1
  21   11   15 2
  22   12   13 1
  23   13   14 2
  24   13   33 1
  25   14   15 1
  26   14   34 1
  27   15   35 1
  28   16   17 1
  29   16   20 2
  30   17   18 1
  31   18   19 2
  32   18   21 1
  33   19   20 1
  34   21   22 1
  35   22   23 1
  36   22   36 1
  37   22   37 1
  38   23   24 am
  39   23   25 2
  40   24   26 1
  41   24   38 1
  42   26   39 1
  43   26   40 1

#	End of record

