#	Name: ASD02038122
#	Creating user name:	WinNT
#	Creation time:	15. 06. 2019 20:16

#	Modifying user name:	WinNT
#	Modification time:	15. 06. 2019 20:16

#	Program:	/corina/corina34_cracker 3.40 0067  02.08.2006

@<TRIPOS>MOLECULE
ASD02038122
  49   51    0    0    0
SMALL
NO_CHARGES


@<TRIPOS>ATOM
   1 C1            -0.0882     1.3117     0.5063 C.ar    
   2 C2             1.0982     2.0229     0.5882 C.ar    
   3 C3            -0.0702    -0.0529     0.3161 C.ar    
   4 C4             1.1498    -0.7250     0.2049 C.ar    
   5 C5             2.3497    -0.0015     0.2883 C.ar    
   6 C6             2.3112     1.3734     0.4802 C.ar    
   7 N7             3.5705    -0.6580     0.1797 N.3     
   8 C8             7.4988    -2.0461     0.8785 C.3     
   9 C9             7.8064    -2.7711     2.1902 C.3     
  10 C10            9.0905    -3.5878     2.0325 C.3     
  11 O11            7.9772    -1.8121     3.2357 O.3     
  12 O12            9.3152    -4.3555     3.2167 O.3     
  13 C13           10.4234    -5.1431     3.2408 C.ar    
  14 C14           10.7018    -5.9145     4.3594 C.ar    
  15 C15           11.8276    -6.7145     4.3839 C.ar    
  16 C16           12.6795    -6.7466     3.2899 C.ar    
  17 C17           12.4007    -5.9759     2.1709 C.ar    
  18 C18           11.2725    -5.1793     2.1447 C.ar    
  19 O19           13.7883    -7.5335     3.3144 O.3     
  20 C20            3.7916    -1.5516     1.3252 C.3     
  21 C21            5.1048    -2.3127     1.1290 C.3     
  22 N22            6.2089    -1.3525     0.9931 N.3     
  23 C23            5.9879    -0.4588    -0.1523 C.3     
  24 C24            4.6746     0.3023     0.0438 C.3     
  25 C25            1.1758    -2.1431     0.0077 C.1     
  26 N26            1.1964    -3.2681    -0.1488 N.1     
  27 H27           -1.0319     1.8291     0.5965 H       
  28 H28            1.0736     3.0923     0.7370 H       
  29 H29           -0.9978    -0.6024     0.2534 H       
  30 H30            3.2314     1.9351     0.5448 H       
  31 H31            8.2848    -1.3198     0.6718 H       
  32 H32            7.4507    -2.7706     0.0655 H       
  33 H33            6.9804    -3.4372     2.4395 H       
  34 H34            8.9924    -4.2578     1.1783 H       
  35 H35            9.9321    -2.9142     1.8711 H       
  36 H36            8.6969    -1.1851     3.0807 H       
  37 H37           10.0385    -5.8895     5.2113 H       
  38 H38           12.0447    -7.3146     5.2552 H       
  39 H39           13.0640    -6.0010     1.3190 H       
  40 H40           11.0554    -4.5791     1.2734 H       
  41 H41           13.6430    -8.4284     2.9782 H       
  42 H42            3.8459    -0.9626     2.2408 H       
  43 H43            2.9673    -2.2612     1.3973 H       
  44 H44            5.2853    -2.9548     1.9912 H       
  45 H45            5.0405    -2.9228     0.2280 H       
  46 H46            6.8121     0.2507    -0.2244 H       
  47 H47            5.9335    -1.0478    -1.0679 H       
  48 H48            4.4941     0.9443    -0.8183 H       
  49 H49            4.7389     0.9123     0.9448 H       
@<TRIPOS>BOND
   1    1    2 ar
   2    1    3 ar
   3    1   27 1
   4    2    6 ar
   5    2   28 1
   6    3    4 ar
   7    3   29 1
   8    4    5 ar
   9    4   25 1
  10    5    6 ar
  11    5    7 1
  12    6   30 1
  13    7   20 1
  14    7   24 1
  15    8    9 1
  16    8   22 1
  17    8   31 1
  18    8   32 1
  19    9   11 1
  20    9   10 1
  21    9   33 1
  22   10   12 1
  23   10   34 1
  24   10   35 1
  25   11   36 1
  26   12   13 1
  27   13   14 ar
  28   13   18 ar
  29   14   15 ar
  30   14   37 1
  31   15   16 ar
  32   15   38 1
  33   16   17 ar
  34   16   19 1
  35   17   18 ar
  36   17   39 1
  37   18   40 1
  38   19   41 1
  39   20   21 1
  40   20   42 1
  41   20   43 1
  42   21   22 1
  43   21   44 1
  44   21   45 1
  45   22   23 1
  46   23   24 1
  47   23   46 1
  48   23   47 1
  49   24   48 1
  50   24   49 1
  51   25   26 3

#	End of record

