#	Name: ASD04220010
#	Creating user name:	WinNT
#	Creation time:	15. 06. 2019 20:48

#	Modifying user name:	WinNT
#	Modification time:	15. 06. 2019 20:48

#	Program:	/corina/corina34_cracker 3.40 0067  02.08.2006

@<TRIPOS>MOLECULE
ASD04220010
  46   48    0    0    0
SMALL
NO_CHARGES


@<TRIPOS>ATOM
   1 C1            -0.0144     1.2086     0.0087 C.2     
   2 O2             0.0021    -0.0041     0.0020 O.2     
   3 C3            -4.9462     0.6865     0.0292 C.ar    
   4 C4            -5.3924     0.1435     1.2252 C.ar    
   5 C5            -6.4379    -0.7675     1.2257 C.ar    
   6 C6            -7.0353    -1.1341     0.0352 C.ar    
   7 C7            -6.5895    -0.5909    -1.1603 C.ar    
   8 C8            -5.5431     0.3198    -1.1610 C.ar    
   9 O9            -7.1773    -0.9520    -2.3322 O.3     
  10 O10           -4.8043     0.5043     2.3970 O.3     
  11 C11            1.1583     3.3651     0.0091 C.3     
  12 N12            1.1435     1.8983     0.0013 N.am    
  13 C13            2.4451     1.2101    -0.0143 C.3     
  14 C14            3.1418     1.5539    -1.3298 C.3     
  15 C15            3.0843     3.0353    -1.5962 C.ar    
  16 C16            4.0006     3.5624    -2.4987 C.ar    
  17 C17            4.0012     4.9087    -2.7982 C.ar    
  18 C18            3.0790     5.7493    -2.1956 C.ar    
  19 C19            2.1643     5.2265    -1.2905 C.ar    
  20 C20            2.1707     3.8681    -0.9892 C.ar    
  21 O21            3.0699     7.0774    -2.4881 O.3     
  22 O22            1.2577     6.0469    -0.6952 O.3     
  23 C23           -1.3296     1.9443     0.0189 C.3     
  24 C24           -2.4789     0.9344     0.0189 C.3     
  25 C25           -3.8141     1.6813     0.0293 C.3     
  26 H26           -6.7848    -1.1908     2.1568 H       
  27 H27           -7.8493    -1.8439     0.0356 H       
  28 H28           -5.1960     0.7428    -2.0920 H       
  29 H29           -7.9252    -0.3937    -2.5855 H       
  30 H30           -5.2116     1.2717     2.8216 H       
  31 H31            0.1697     3.7391    -0.2571 H       
  32 H32            1.4236     3.7199     1.0050 H       
  33 H33            3.0523     1.5503     0.8246 H       
  34 H34            2.2935     0.1327     0.0522 H       
  35 H35            4.1842     1.2396    -1.2762 H       
  36 H36            2.6498     1.0237    -2.1453 H       
  37 H37            4.7207     2.9102    -2.9705 H       
  38 H38            4.7188     5.3068    -3.5004 H       
  39 H39            2.4997     7.3122    -3.2330 H       
  40 H40            0.4274     6.1354    -1.1831 H       
  41 H41           -1.3916     2.5653     0.9126 H       
  42 H42           -1.4000     2.5749    -0.8673 H       
  43 H43           -2.4169     0.3134    -0.8748 H       
  44 H44           -2.4084     0.3037     0.9051 H       
  45 H45           -3.8846     2.3119    -0.8570 H       
  46 H46           -3.8761     2.3022     0.9230 H       
@<TRIPOS>BOND
   1    1    2 2
   2    1   12 am
   3    1   23 1
   4    3    4 ar
   5    3    8 ar
   6    3   25 1
   7    4    5 ar
   8    4   10 1
   9    5    6 ar
  10    5   26 1
  11    6    7 ar
  12    6   27 1
  13    7    8 ar
  14    7    9 1
  15    8   28 1
  16    9   29 1
  17   10   30 1
  18   11   12 1
  19   11   20 1
  20   11   31 1
  21   11   32 1
  22   12   13 1
  23   13   14 1
  24   13   33 1
  25   13   34 1
  26   14   15 1
  27   14   35 1
  28   14   36 1
  29   15   16 ar
  30   15   20 ar
  31   16   17 ar
  32   16   37 1
  33   17   18 ar
  34   17   38 1
  35   18   19 ar
  36   18   21 1
  37   19   20 ar
  38   19   22 1
  39   21   39 1
  40   22   40 1
  41   23   24 1
  42   23   41 1
  43   23   42 1
  44   24   25 1
  45   24   43 1
  46   24   44 1
  47   25   45 1
  48   25   46 1

#	End of record

