#	Name: ASD01916545
#	Creating user name:	WinNT
#	Creation time:	15. 06. 2019 20:07

#	Modifying user name:	WinNT
#	Modification time:	15. 06. 2019 20:07

#	Program:	/corina/corina34_cracker 3.40 0067  02.08.2006

@<TRIPOS>MOLECULE
ASD01916545
  42   46    0    0    0
SMALL
NO_CHARGES


@<TRIPOS>ATOM
   1 C1            -0.0171     1.4101     0.0098 C.ar    
   2 C2             0.0021    -0.0041     0.0020 C.ar    
   3 C3            -1.1905    -0.7258     0.0481 C.ar    
   4 C4            -2.3833    -0.0649     0.0832 C.ar    
   5 C5            -2.4212     1.3376     0.0702 C.ar    
   6 C6            -1.2408     2.0761     0.0364 C.ar    
   7 N7             1.1594     2.0756     0.0021 N.2     
   8 C8             2.3205     1.4688    -0.0506 C.2     
   9 N9             2.4158     0.1234    -0.1905 N.am    
  10 C10            1.3103    -0.6619    -0.0743 C.2     
  11 C11           -3.6828     2.0148     0.0918 C.1     
  12 O12            1.4049    -1.8750    -0.0345 O.2     
  13 C13           -4.7172     2.5699     0.1095 C.1     
  14 C14           -5.9788     3.2470     0.1310 C.ar    
  15 C15            3.5313     2.3582     0.1123 C.3     
  16 C16            4.7438     1.7619    -0.6011 C.3     
  17 C17            4.8686     0.2991    -0.1587 C.3     
  18 C18            3.6665    -0.5647    -0.5278 C.3     
  19 N19           -6.0149     4.5760     0.1187 N.ar    
  20 C20           -7.1548     5.2351     0.1373 C.ar    
  21 C21           -8.3638     4.5639     0.1706 C.ar    
  22 C22           -8.3733     3.1756     0.1846 C.ar    
  23 C23           -7.1632     2.5062     0.1591 C.ar    
  24 C24            6.2555    -0.3388    -0.1858 C.3     
  25 C25            5.5962     0.0087     1.1515 C.3     
  26 F26            6.3380    -1.6914    -0.5334 F       
  27 F27            7.3255     0.4589    -0.6053 F       
  28 H28           -1.1697    -1.8056     0.0555 H       
  29 H29           -3.3056    -0.6255     0.1211 H       
  30 H30           -1.2736     3.1556     0.0301 H       
  31 H31            3.3144     3.3398    -0.3089 H       
  32 H32            3.7567     2.4660     1.1733 H       
  33 H33            4.5989     1.8108    -1.6803 H       
  34 H34            5.6435     2.3105    -0.3226 H       
  35 H35            3.7182    -1.5058     0.0197 H       
  36 H36            3.6865    -0.7704    -1.5981 H       
  37 H37           -7.1455     6.3150     0.1267 H       
  38 H38           -9.2925     5.1150     0.1859 H       
  39 H39           -9.3052     2.6303     0.2105 H       
  40 H40           -7.1340     1.4266     0.1690 H       
  41 H41            5.9963     0.8587     1.7043 H       
  42 H42            5.2269    -0.8166     1.7603 H       
@<TRIPOS>BOND
   1    1    2 ar
   2    1    7 1
   3    1    6 ar
   4    2    3 ar
   5    2   10 1
   6    3    4 ar
   7    3   28 1
   8    4    5 ar
   9    4   29 1
  10    5    6 ar
  11    5   11 1
  12    6   30 1
  13    7    8 2
  14    8    9 1
  15    8   15 1
  16    9   10 am
  17    9   18 1
  18   10   12 2
  19   11   13 3
  20   13   14 1
  21   14   19 ar
  22   14   23 ar
  23   15   16 1
  24   15   31 1
  25   15   32 1
  26   16   17 1
  27   16   33 1
  28   16   34 1
  29   17   18 1
  30   17   24 1
  31   17   25 1
  32   18   35 1
  33   18   36 1
  34   19   20 ar
  35   20   21 ar
  36   20   37 1
  37   21   22 ar
  38   21   38 1
  39   22   23 ar
  40   22   39 1
  41   23   40 1
  42   24   25 1
  43   24   26 1
  44   24   27 1
  45   25   41 1
  46   25   42 1

#	End of record

