#	Name: ASD03200077
#	Creating user name:	WinNT
#	Creation time:	15. 06. 2019 20:34

#	Modifying user name:	WinNT
#	Modification time:	15. 06. 2019 20:34

#	Program:	/corina/corina34_cracker 3.40 0067  02.08.2006

@<TRIPOS>MOLECULE
ASD03200077
  24   26    0    0    0
SMALL
NO_CHARGES


@<TRIPOS>ATOM
   1 C1            -0.0181     1.4830     0.0102 C.3     
   2 C2            -0.7496     1.8467    -1.2920 C.3     
   3 C3            -0.6255    -0.4195    -1.1369 C.2     
   4 C4             0.2886    -2.2774     0.4500 C.2     
   5 C5             1.3675     0.6333     2.4692 C.ar    
   6 C6             2.0208     0.9240     3.6488 C.ar    
   7 C7             0.4775    -1.0145     0.8261 C.2     
   8 C8             1.1767    -0.6962     2.0897 C.ar    
   9 C9             1.6488    -1.7242     2.9074 C.ar    
  10 C10            2.3006    -1.4211     4.0847 C.ar    
  11 Cl11           3.3136     0.2736     5.9360 Cl      
  12 C12            2.4919    -0.1000     4.4531 C.ar    
  13 N13            0.0021    -0.0041     0.0020 N.pl3   
  14 N14           -1.0647     0.5492    -1.8964 N.2     
  15 S15           -0.5725    -2.1961    -1.0948 S.3     
  16 H16            0.9971     1.8797     0.0026 H       
  17 H17           -1.6637     2.3993    -1.0751 H       
  18 H18            0.5972    -3.1676     0.9779 H       
  19 H19            1.0005     1.4328     1.8427 H       
  20 H20            2.1654     1.9523     3.9456 H       
  21 H21            1.5037    -2.7548     2.6190 H       
  22 H22            2.6663    -2.2156     4.7182 H       
  23 H23           -0.5664     1.8537     0.8763 H       
  24 H24           -0.0984     2.4253    -1.9472 H       
@<TRIPOS>BOND
   1    1   13 1
   2    1   16 1
   3    1   23 1
   4    1    2 1
   5    2   14 1
   6    2   17 1
   7    2   24 1
   8    3   13 1
   9    3   15 1
  10    3   14 2
  11    4   18 1
  12    4    7 2
  13    4   15 1
  14    5    6 ar
  15    5   19 1
  16    5    8 ar
  17    6   20 1
  18    6   12 ar
  19    7    8 1
  20    7   13 1
  21    8    9 ar
  22    9   10 ar
  23    9   21 1
  24   10   12 ar
  25   10   22 1
  26   11   12 1

#	End of record

