#	Name: ASD01240023
#	Creating user name:	WinNT
#	Creation time:	15. 06. 2019 19:15

#	Modifying user name:	WinNT
#	Modification time:	15. 06. 2019 19:15

#	Program:	/corina/corina34_cracker 3.40 0067  02.08.2006

@<TRIPOS>MOLECULE
ASD01240023
  25   26    0    0    0
SMALL
NO_CHARGES


@<TRIPOS>ATOM
   1 C1            -0.0158     1.3810     0.0160 C.ar    
   2 C2            -0.0102     0.0023     0.1546 C.ar    
   3 C3             1.1668    -0.6579     0.4617 C.ar    
   4 C4             2.3402     0.0555     0.6316 C.ar    
   5 C5             2.3423     1.4317     0.4953 C.ar    
   6 C6             1.1655     2.1000     0.1865 C.ar    
   7 O7            -1.1710     2.0306    -0.2914 O.3     
   8 S8             1.1654     3.8533     0.0110 S.3     
   9 C9             2.8732     4.2653     0.1468 C.ar    
  10 C10            3.7335     4.0395    -0.9258 C.ar    
  11 C11            5.0757     4.3653    -0.8139 C.ar    
  12 C12            5.5595     4.9132     0.3615 C.ar    
  13 C13            4.7059     5.1372     1.4272 C.ar    
  14 C14            3.3638     4.8208     1.3205 C.ar    
  15 O15            3.2569     3.5001    -2.0802 O.3     
  16 Cl16           5.3194     5.8241     2.8987 Cl      
  17 Cl17           6.1508     4.0856    -2.1479 Cl      
  18 Cl18           3.8129    -0.7789     1.0172 Cl      
  19 Cl19          -1.4800    -0.8970    -0.0565 Cl      
  20 H20            1.1694    -1.7325     0.5693 H       
  21 H21            3.2594     1.9863     0.6287 H       
  22 H22           -1.6857     2.3041     0.4802 H       
  23 H23            6.6059     5.1661     0.4472 H       
  24 H24            2.6986     5.0010     2.1520 H       
  25 H25            2.9479     4.1543    -2.7218 H       
@<TRIPOS>BOND
   1    1    2 ar
   2    1    6 ar
   3    1    7 1
   4    2    3 ar
   5    2   19 1
   6    3    4 ar
   7    3   20 1
   8    4    5 ar
   9    4   18 1
  10    5    6 ar
  11    5   21 1
  12    6    8 1
  13    7   22 1
  14    8    9 1
  15    9   10 ar
  16    9   14 ar
  17   10   11 ar
  18   10   15 1
  19   11   12 ar
  20   11   17 1
  21   12   13 ar
  22   12   23 1
  23   13   14 ar
  24   13   16 1
  25   14   24 1
  26   15   25 1

#	End of record

