#	Name: ASD01028003
#	Creating user name:	WinNT
#	Creation time:	15. 06. 2019 18:56

#	Modifying user name:	WinNT
#	Modification time:	15. 06. 2019 18:56

#	Program:	/corina/corina34_cracker 3.40 0067  02.08.2006

@<TRIPOS>MOLECULE
ASD01028003
  66   70    0    0    0
SMALL
NO_CHARGES


@<TRIPOS>ATOM
   1 C1            -0.0031     1.4052     0.1301 C.ar    
   2 C2            -0.0070     0.0007    -0.0568 C.ar    
   3 C3             1.1787     2.1303    -0.0846 C.ar    
   4 C4             2.3110     1.4837    -0.4699 C.ar    
   5 C5             2.3178     0.0914    -0.6581 C.ar    
   6 C6             1.1633    -0.6511    -0.4523 C.ar    
   7 C7             3.5617    -0.5867    -1.0770 C.2     
   8 C8            -2.2292     1.3036     0.7152 C.ar    
   9 N9            -1.1389     2.0055     0.5160 N.ar    
  10 N10           -2.2841    -0.0075     0.5428 N.ar    
  11 C11           -1.2176    -0.7016     0.1685 C.ar    
  12 N12           -1.2847    -2.0690     0.0027 N.pl3   
  13 C13           -2.5143    -2.7284     0.1165 C.ar    
  14 C14           -3.6836    -2.0899    -0.2748 C.ar    
  15 C15           -4.8968    -2.7408    -0.1623 C.ar    
  16 C16           -4.9478    -4.0315     0.3417 C.ar    
  17 C17           -3.7793    -4.6711     0.7334 C.ar    
  18 C18           -2.5646    -4.0236     0.6157 C.ar    
  19 Cl19          -3.8440    -6.2871     1.3644 Cl      
  20 O20           -6.1429    -4.6711     0.4529 O.3     
  21 C21           -7.3045    -3.9533     0.0316 C.3     
  22 C22           -8.5256    -4.8145     0.2273 C.ar    
  23 C23           -9.2165    -4.7720     1.4237 C.ar    
  24 C24          -10.3367    -5.5620     1.6049 C.ar    
  25 C25          -10.7668    -6.3949     0.5898 C.ar    
  26 C26          -10.0757    -6.4381    -0.6095 C.ar    
  27 C27           -8.9575    -5.6425    -0.7917 C.ar    
  28 F28          -10.4954    -7.2521    -1.6026 F       
  29 C29            4.7583     0.0150    -1.3122 C.2     
  30 O30            3.7091    -1.9090    -1.2868 O.3     
  31 C31            4.9748    -2.1640    -1.6570 C.2     
  32 C32            5.6582    -1.0032    -1.6859 C.2     
  33 C33            5.5381    -3.5234    -1.9824 C.3     
  34 N34            6.0745    -4.1366    -0.7600 N.3     
  35 C35            6.6334    -5.4661    -1.0395 C.3     
  36 C36            7.1810    -6.0714     0.2546 C.3     
  37 S37            7.8711    -7.7131    -0.0905 S.o2    
  38 O38            6.8134    -8.5741    -0.4896 O.2     
  39 O39            8.9996    -7.5603    -0.9405 O.2     
  40 C40            8.4488    -8.2291     1.5498 C.3     
  41 H41            1.1889     3.2011     0.0557 H       
  42 H42            3.2172     2.0479    -0.6338 H       
  43 H43            1.1698    -1.7214    -0.5969 H       
  44 H44           -3.1252     1.8205     1.0258 H       
  45 H45           -0.4799    -2.5740    -0.1928 H       
  46 H46           -3.6446    -1.0844    -0.6668 H       
  47 H47           -5.8061    -2.2440    -0.4667 H       
  48 H48           -1.6555    -4.5208     0.9202 H       
  49 H49           -7.4034    -3.0430     0.6229 H       
  50 H50           -7.2085    -3.6932    -1.0225 H       
  51 H51           -8.8808    -4.1215     2.2178 H       
  52 H52          -10.8755    -5.5282     2.5402 H       
  53 H53          -11.6415    -7.0124     0.7318 H       
  54 H54           -8.4177    -5.6753    -1.7266 H       
  55 H55            4.9768     1.0694    -1.2290 H       
  56 H56            6.6987    -0.8769    -1.9462 H       
  57 H57            4.7491    -4.1556    -2.3899 H       
  58 H58            6.3364    -3.4196    -2.7173 H       
  59 H59            6.7627    -3.5386    -0.3276 H       
  60 H60            5.8520    -6.1117    -1.4404 H       
  61 H61            7.4393    -5.3757    -1.7678 H       
  62 H62            7.9624    -5.4258     0.6555 H       
  63 H63            6.3751    -6.1618     0.9829 H       
  64 H64            7.6056    -8.2561     2.2401 H       
  65 H65            8.8949    -9.2213     1.4824 H       
  66 H66            9.1928    -7.5200     1.9127 H       
@<TRIPOS>BOND
   1    1    2 ar
   2    1    3 ar
   3    1    9 ar
   4    2   11 ar
   5    2    6 ar
   6    3    4 ar
   7    3   41 1
   8    4    5 ar
   9    4   42 1
  10    5    6 ar
  11    5    7 1
  12    6   43 1
  13    7   29 2
  14    7   30 1
  15    8    9 ar
  16    8   10 ar
  17    8   44 1
  18   10   11 ar
  19   11   12 1
  20   12   13 1
  21   12   45 1
  22   13   14 ar
  23   13   18 ar
  24   14   15 ar
  25   14   46 1
  26   15   16 ar
  27   15   47 1
  28   16   17 ar
  29   16   20 1
  30   17   18 ar
  31   17   19 1
  32   18   48 1
  33   20   21 1
  34   21   22 1
  35   21   49 1
  36   21   50 1
  37   22   23 ar
  38   22   27 ar
  39   23   24 ar
  40   23   51 1
  41   24   25 ar
  42   24   52 1
  43   25   26 ar
  44   25   53 1
  45   26   27 ar
  46   26   28 1
  47   27   54 1
  48   29   32 1
  49   29   55 1
  50   30   31 1
  51   31   32 2
  52   31   33 1
  53   32   56 1
  54   33   34 1
  55   33   57 1
  56   33   58 1
  57   34   35 1
  58   34   59 1
  59   35   36 1
  60   35   60 1
  61   35   61 1
  62   36   37 1
  63   36   62 1
  64   36   63 1
  65   37   38 2
  66   37   39 2
  67   37   40 1
  68   40   64 1
  69   40   65 1
  70   40   66 1

#	End of record

