#	Name: ASD02408425
#	Creating user name:	WinNT
#	Creation time:	15. 06. 2019 20:21

#	Modifying user name:	WinNT
#	Modification time:	15. 06. 2019 20:21

#	Program:	/corina/corina34_cracker 3.40 0067  02.08.2006

@<TRIPOS>MOLECULE
ASD02408425
  40   43    0    0    0
SMALL
NO_CHARGES


@<TRIPOS>ATOM
   1 N1            -0.0824     1.5272     0.0076 N.am    
   2 C2            -0.1346     0.1718     0.0474 C.2     
   3 N3             0.9206    -0.5822    -0.0552 N.2     
   4 C4             2.1489    -0.0647    -0.2097 C.2     
   5 C5             2.3028     1.3299    -0.2626 C.2     
   6 C6             1.1044     2.1603    -0.1451 C.2     
   7 N7             3.3943    -0.5977    -0.3405 N.pl3   
   8 N8             4.3102     0.4536    -0.4730 N.2     
   9 C9             3.6755     1.5930    -0.4282 C.2     
  10 C10           -1.4772    -0.4908     0.2188 C.3     
  11 C11           -1.3171    -2.0074     0.0949 C.3     
  12 C12            3.7067    -1.9638    -0.3419 C.ar    
  13 C13            3.1843    -2.7975     0.6373 C.ar    
  14 C14            3.4938    -4.1438     0.6339 C.ar    
  15 C15            4.3237    -4.6622    -0.3443 C.ar    
  16 C16            4.8464    -3.8339    -1.3222 C.ar    
  17 C17            4.5356    -2.4875    -1.3270 C.ar    
  18 O18            1.1716     3.3761    -0.1839 O.2     
  19 C19           -2.6514    -2.7058     0.4101 C.3     
  20 C20           -3.0535    -3.4822    -0.8608 C.3     
  21 C21           -1.7150    -3.7099    -1.6062 C.3     
  22 C22           -0.9549    -2.3836    -1.3567 C.3     
  23 Cl23           5.1912    -1.4486    -2.5537 Cl      
  24 Cl24           4.7107    -6.3545    -0.3448 Cl      
  25 H25           -0.8993     2.0445     0.0849 H       
  26 H26            4.1267     2.5712    -0.5050 H       
  27 H27           -1.8798    -0.2471     1.2020 H       
  28 H28           -2.1599    -0.1334    -0.5522 H       
  29 H29           -0.5421    -2.3576     0.7766 H       
  30 H30            2.5367    -2.3938     1.4015 H       
  31 H31            3.0877    -4.7925     1.3960 H       
  32 H32            5.4943    -4.2409    -2.0845 H       
  33 H33           -2.5238    -3.3957     1.2443 H       
  34 H34           -3.4131    -1.9644     0.6514 H       
  35 H35           -3.5102    -4.4360    -0.5968 H       
  36 H36           -3.7339    -2.8884    -1.4713 H       
  37 H37           -1.1727    -4.5526    -1.1775 H       
  38 H38           -1.8873    -3.8618    -2.6718 H       
  39 H39           -1.2963    -1.6125    -2.0472 H       
  40 H40            0.1200    -2.5358    -1.4545 H       
@<TRIPOS>BOND
   1    1    2 1
   2    1    6 am
   3    1   25 1
   4    2    3 2
   5    2   10 1
   6    3    4 1
   7    4    5 2
   8    4    7 1
   9    5    6 1
  10    5    9 1
  11    6   18 2
  12    7    8 1
  13    7   12 1
  14    8    9 2
  15    9   26 1
  16   10   11 1
  17   10   27 1
  18   10   28 1
  19   11   19 1
  20   11   22 1
  21   11   29 1
  22   12   13 ar
  23   12   17 ar
  24   13   14 ar
  25   13   30 1
  26   14   15 ar
  27   14   31 1
  28   15   16 ar
  29   15   24 1
  30   16   17 ar
  31   16   32 1
  32   17   23 1
  33   19   20 1
  34   19   33 1
  35   19   34 1
  36   20   21 1
  37   20   35 1
  38   20   36 1
  39   21   22 1
  40   21   37 1
  41   21   38 1
  42   22   39 1
  43   22   40 1

#	End of record

