#	Name: ASD01885839
#	Creating user name:	WinNT
#	Creation time:	15. 06. 2019 19:50

#	Modifying user name:	WinNT
#	Modification time:	15. 06. 2019 19:50

#	Program:	/corina/corina34_cracker 3.40 0067  02.08.2006

@<TRIPOS>MOLECULE
ASD01885839
  42   45    0    0    0
SMALL
NO_CHARGES


@<TRIPOS>ATOM
   1 C1            -0.0172     1.4139     0.0098 C.ar    
   2 C2             0.0021    -0.0041     0.0020 C.ar    
   3 C3            -1.2279    -0.7095     0.0099 C.ar    
   4 C4            -2.4017     0.0314     0.0251 C.ar    
   5 C5            -2.3345     1.4293     0.0320 C.ar    
   6 N6            -1.1794     2.0672     0.0189 N.ar    
   7 C7             2.3774     1.4228    -0.0130 C.ar    
   8 C8             2.3911     0.0296    -0.0214 C.ar    
   9 C9             1.2282    -0.6810    -0.0137 C.ar    
  10 C10           -1.2593    -2.1898     0.0017 C.ar    
  11 C11           -3.5930     2.2133     0.0411 C.2     
  12 C12            3.6819     2.1773    -0.0219 C.3     
  13 C13            4.1021     2.4372    -1.4456 C.ar    
  14 C14            3.7041     3.5902    -2.1038 C.ar    
  15 N15            4.0925     3.7845    -3.3538 N.ar    
  16 C16            4.8476     2.8984    -3.9717 C.ar    
  17 N17            5.2451     1.7912    -3.3776 N.ar    
  18 C18            4.9007     1.5318    -2.1264 C.ar    
  19 C19            1.2049     2.1130     0.0019 C.ar    
  20 C20           -2.0407    -2.8784     0.9300 C.ar    
  21 C21           -2.0670    -4.2573     0.9180 C.ar    
  22 C22           -1.3184    -4.9588    -0.0139 C.ar    
  23 C23           -0.5401    -4.2794    -0.9378 C.ar    
  24 C24           -0.5120    -2.9005    -0.9379 C.ar    
  25 F25           -1.3470    -6.3095    -0.0214 F       
  26 N26           -3.5479     3.5603     0.0360 N.am    
  27 O27           -4.6650     1.6414     0.0531 O.2     
  28 H28           -3.3597    -0.4672     0.0311 H       
  29 H29            3.3356    -0.4940    -0.0346 H       
  30 H30            1.2520    -1.7607    -0.0194 H       
  31 H31            3.5562     3.1265     0.4989 H       
  32 H32            4.4472     1.5857     0.4806 H       
  33 H33            3.0850     4.3201    -1.6033 H       
  34 H34            5.1485     3.0846    -4.9921 H       
  35 H35            5.2335     0.6248    -1.6439 H       
  36 H36            1.2116     3.1930     0.0073 H       
  37 H37           -2.6238    -2.3326     1.6569 H       
  38 H38           -2.6716    -4.7912     1.6361 H       
  39 H39            0.0420    -4.8306    -1.6615 H       
  40 H40            0.0945    -2.3720    -1.6585 H       
  41 H41           -2.6922     4.0169     0.0264 H       
  42 H42           -4.3712     4.0732     0.0419 H       
@<TRIPOS>BOND
   1    1    2 ar
   2    1   19 ar
   3    1    6 ar
   4    2    9 ar
   5    2    3 ar
   6    3   10 1
   7    3    4 ar
   8    4    5 ar
   9    4   28 1
  10    5   11 1
  11    5    6 ar
  12    7   12 1
  13    7    8 ar
  14    7   19 ar
  15    8    9 ar
  16    8   29 1
  17    9   30 1
  18   10   20 ar
  19   10   24 ar
  20   11   26 am
  21   11   27 2
  22   12   13 1
  23   12   31 1
  24   12   32 1
  25   13   14 ar
  26   13   18 ar
  27   14   15 ar
  28   14   33 1
  29   15   16 ar
  30   16   17 ar
  31   16   34 1
  32   17   18 ar
  33   18   35 1
  34   19   36 1
  35   20   21 ar
  36   20   37 1
  37   21   22 ar
  38   21   38 1
  39   22   23 ar
  40   22   25 1
  41   23   24 ar
  42   23   39 1
  43   24   40 1
  44   26   41 1
  45   26   42 1

#	End of record

