#	Name: ASD00311224
#	Creating user name:	WinNT
#	Creation time:	15. 06. 2019 18:34

#	Modifying user name:	WinNT
#	Modification time:	15. 06. 2019 18:34

#	Program:	/corina/corina34_cracker 3.40 0067  02.08.2006

@<TRIPOS>MOLECULE
ASD00311224
  40   43    0    0    0
SMALL
NO_CHARGES


@<TRIPOS>ATOM
   1 C1            -0.0187     1.3823     0.1476 C.2     
   2 C2            -0.0031     0.0022     0.1874 C.2     
   3 C3             1.2509    -0.6757     0.1238 C.2     
   4 C4             2.4231     0.0623     0.0236 C.2     
   5 C5             2.3546     1.4695    -0.0135 C.2     
   6 N6             1.1670     2.0916     0.0470 N.am    
   7 C7            -1.3461    -0.5632     0.2943 C.2     
   8 C8            -2.3218     0.3412     0.3329 C.2     
   9 S9            -1.6758     1.9683     0.2486 S.3     
  10 O10            3.3793     2.1249    -0.1009 O.2     
  11 O11            1.2975    -2.0275     0.1611 O.3     
  12 C12            3.7342    -0.6237    -0.0431 C.ar    
  13 C13            4.5162    -0.5291    -1.1941 C.ar    
  14 C14            5.7366    -1.1704    -1.2502 C.ar    
  15 C15            6.1848    -1.9065    -0.1679 C.ar    
  16 C16            5.4135    -2.0045     0.9763 C.ar    
  17 C17            4.1943    -1.3622     1.0470 C.ar    
  18 C18           -1.6007    -2.0220     0.3541 C.ar    
  19 C19           -2.4208    -2.5491     1.3509 C.ar    
  20 C20           -2.6541    -3.9082     1.4016 C.ar    
  21 C21           -2.0761    -4.7474     0.4659 C.ar    
  22 C22           -1.2615    -4.2302    -0.5255 C.ar    
  23 C23           -1.0255    -2.8721    -0.5897 C.ar    
  24 C24            1.1269     3.4383     0.0093 C.2     
  25 O25            2.1589     4.0783     0.0542 O.2     
  26 N26           -0.0577     4.0750    -0.0782 N.am    
  27 H27           -3.3726     0.1039     0.4101 H       
  28 H28            2.1920    -2.3916     0.1122 H       
  29 H29            4.1670     0.0447    -2.0398 H       
  30 H30            6.3430    -1.0979    -2.1409 H       
  31 H31            7.1406    -2.4070    -0.2167 H       
  32 H32            5.7683    -2.5812     1.8177 H       
  33 H33            3.5952    -1.4354     1.9426 H       
  34 H34           -2.8722    -1.8950     2.0822 H       
  35 H35           -3.2889    -4.3176     2.1735 H       
  36 H36           -2.2613    -5.8105     0.5097 H       
  37 H37           -0.8128    -4.8902    -1.2530 H       
  38 H38           -0.3930    -2.4690    -1.3668 H       
  39 H39           -0.8720     3.5672    -0.2191 H       
  40 H40           -0.0959     5.0411    -0.0002 H       
@<TRIPOS>BOND
   1    1    2 2
   2    1    6 1
   3    1    9 1
   4    2    3 1
   5    2    7 1
   6    3    4 2
   7    3   11 1
   8    4    5 1
   9    4   12 1
  10    5    6 am
  11    5   10 2
  12    6   24 am
  13    7    8 2
  14    7   18 1
  15    8    9 1
  16    8   27 1
  17   11   28 1
  18   12   13 ar
  19   12   17 ar
  20   13   14 ar
  21   13   29 1
  22   14   15 ar
  23   14   30 1
  24   15   16 ar
  25   15   31 1
  26   16   17 ar
  27   16   32 1
  28   17   33 1
  29   18   19 ar
  30   18   23 ar
  31   19   20 ar
  32   19   34 1
  33   20   21 ar
  34   20   35 1
  35   21   22 ar
  36   21   36 1
  37   22   23 ar
  38   22   37 1
  39   23   38 1
  40   24   25 2
  41   24   26 am
  42   26   39 1
  43   26   40 1

#	End of record

