#	Name: ASD01410750
#	Creating user name:	WinNT
#	Creation time:	15. 06. 2019 19:18

#	Modifying user name:	WinNT
#	Modification time:	15. 06. 2019 19:18

#	Program:	/corina/corina34_cracker 3.40 0067  02.08.2006

@<TRIPOS>MOLECULE
ASD01410750
 110  117    0    0    0
SMALL
NO_CHARGES


@<TRIPOS>ATOM
   1 O1             1.1947     3.8816    -2.3785 O.3     
   2 C2             1.3886     0.3151    -1.2724 C.3     
   3 C3             1.0099     1.4779    -2.2166 C.3     
   4 N4             2.0986     1.4776    -3.2130 N.am    
   5 C5             2.4106     0.0697    -3.4886 C.3     
   6 C6             1.9854    -0.7337    -2.2424 C.3     
   7 O7             2.3655     0.7355    -0.3180 O.3     
   8 C8             1.6391    -0.4026    -4.6940 C.2     
   9 O9             0.8955     0.3595    -5.2748 O.2     
  10 N10            1.7754    -1.6717    -5.1265 N.am    
  11 C11            1.0189     2.8021    -1.4611 C.3     
  12 C12            2.4548     3.9053    -3.0491 C.3     
  13 C13            2.6992     2.5699    -3.7115 C.2     
  14 O14            3.4268     2.4858    -4.6781 O.2     
  15 C15            0.9396    -2.1655    -6.2237 C.3     
  16 C16           -0.5461    -2.1375    -5.9724 C.2     
  17 N17           -1.0262    -2.3997    -4.7407 N.am    
  18 O18           -1.3096    -1.8790    -6.8786 O.2     
  19 S19           -2.6606    -2.4981    -4.4928 S.o2    
  20 C20           -3.1786    -3.9438    -5.4583 C.3     
  21 C21            1.4196    -1.9002    -7.6520 C.3     
  22 C22            1.4913    -3.3143    -7.0703 C.3     
  23 C23           -4.6772    -4.2427    -5.5339 C.3     
  24 C24           -3.9452    -3.6878    -6.7575 C.3     
  25 O25           -2.7891    -2.7557    -3.1012 O.2     
  26 O26           -3.1747    -1.3044    -5.0673 O.2     
  27 C27            0.3705    -1.6314    -8.7000 C.2     
  28 C28            0.3716    -0.4948    -9.3515 C.2     
  29 C29            2.4436     0.0273     0.8359 C.ar    
  30 C30            3.3586     0.3919     1.8511 C.ar    
  31 C31            1.6343    -1.0572     1.0516 C.ar    
  32 C32            1.7346    -1.7726     2.2527 C.ar    
  33 N33            2.5970    -1.4265     3.1934 N.ar    
  34 C34            3.4082    -0.3750     3.0413 C.ar    
  35 C35            0.8559    -2.9403     2.4730 C.2     
  36 C36            4.3213    -0.0174     4.0487 C.ar    
  37 C37            5.1452     1.0706     3.8648 C.ar    
  38 C38            5.0832     1.8229     2.6883 C.ar    
  39 C39            4.2115     1.4943     1.6959 C.ar    
  40 Cl40           4.4092    -0.9413     5.5158 Cl      
  41 O41            6.0279     1.4169     4.8379 O.3     
  42 C42            6.8553     2.5550     4.5882 C.3     
  43 N43            0.8466    -3.6888     3.5389 N.2     
  44 C44           -0.0038    -4.6864     3.5606 C.2     
  45 C45           -0.7727    -4.8216     2.4724 C.2     
  46 S46           -0.3524    -3.5388     1.3391 S.3     
  47 C47           -0.1093    -5.6228     4.7366 C.3     
  48 C48           -1.2257    -5.1475     5.6686 C.3     
  49 C49           -0.4273    -7.0339     4.2380 C.3     
  50 C50            7.7768     2.7884     5.7870 C.3     
  51 C51            2.4467     5.0071    -4.1108 C.3     
  52 C52            1.4218     4.6642    -5.1937 C.3     
  53 C53            2.0738     6.3403    -3.4593 C.3     
  54 N54            8.7032     1.6562     5.9203 N.3     
  55 C55            9.7538     1.9483     6.9064 C.3     
  56 C56            9.2925     1.3018     4.6209 C.3     
  57 C57           10.2027     0.0831     4.7948 C.3     
  58 O58           11.1983     0.3746     5.7793 O.3     
  59 C59           10.6594     0.7232     7.0574 C.3     
  60 H60            0.5046    -0.0782    -0.7704 H       
  61 H61            0.0455     1.2973    -2.6913 H       
  62 H62            3.4804    -0.0481    -3.6608 H       
  63 H63            2.8511    -1.2179    -1.7905 H       
  64 H64            1.2320    -1.4750    -2.5087 H       
  65 H65            2.4269    -2.2583    -4.7113 H       
  66 H66            1.8366     2.8024    -0.7404 H       
  67 H67            0.0728     2.9249    -0.9340 H       
  68 H68            3.2469     4.1029    -2.3269 H       
  69 H69           -0.4145    -2.5307    -3.9994 H       
  70 H70           -2.4964    -4.7936    -5.4351 H       
  71 H71            2.3573    -1.3583    -7.7753 H       
  72 H72            2.4763    -3.7025    -6.8112 H       
  73 H73            0.7798    -4.0496    -7.4459 H       
  74 H74           -4.9809    -5.2892    -5.5608 H       
  75 H75           -5.3519    -3.5707    -5.0034 H       
  76 H76           -4.1382    -2.6508    -7.0320 H       
  77 H77           -3.7673    -4.3693    -7.5894 H       
  78 H78           -0.3822    -2.3757    -8.9139 H       
  79 H79           -0.3802    -0.3022   -10.1025 H       
  80 H80            1.1243     0.2495    -9.1375 H       
  81 H81            0.9213    -1.3594     0.2988 H       
  82 H82            5.7378     2.6728     2.5636 H       
  83 H83            4.1741     2.0839     0.7918 H       
  84 H84            7.4568     2.3782     3.6965 H       
  85 H85            6.2284     3.4334     4.4353 H       
  86 H86           -1.5236    -5.5824     2.3180 H       
  87 H87            0.8364    -5.6335     5.2785 H       
  88 H88           -2.1714    -5.1369     5.1267 H       
  89 H89           -1.3019    -5.8249     6.5192 H       
  90 H90           -0.9991    -4.1423     6.0238 H       
  91 H91            0.3680    -7.3725     3.5740 H       
  92 H92           -0.5036    -7.7112     5.0886 H       
  93 H93           -1.3730    -7.0232     3.6961 H       
  94 H94            8.3446     3.7065     5.6355 H       
  95 H95            7.1783     2.8768     6.6936 H       
  96 H96            3.4368     5.0864    -4.5596 H       
  97 H97            0.4317     4.5849    -4.7449 H       
  98 H98            1.4160     5.4491    -5.9500 H       
  99 H99            1.6875     3.7144    -5.6578 H       
 100 H100           2.8468     6.6246    -2.7454 H       
 101 H101           1.9884     7.1088    -4.2276 H       
 102 H102           1.1205     6.2373    -2.9409 H       
 103 H103          10.3453     2.7986     6.5669 H       
 104 H104           9.2959     2.1831     7.8673 H       
 105 H105           8.4979     1.0646     3.9135 H       
 106 H106           9.8767     2.1417     4.2449 H       
 107 H107           9.6089    -0.7713     5.1195 H       
 108 H108          10.6862    -0.1485     3.8457 H       
 109 H109          11.4731     0.9545     7.7447 H       
 110 H110          10.0789    -0.1127     7.4479 H       
@<TRIPOS>BOND
   1    1   11 1
   2    1   12 1
   3    2    3 1
   4    2    7 1
   5    2    6 1
   6    2   60 1
   7    3    4 1
   8    3   11 1
   9    3   61 1
  10    4    5 1
  11    4   13 am
  12    5    6 1
  13    5    8 1
  14    5   62 1
  15    6   63 1
  16    6   64 1
  17    7   29 1
  18    8    9 2
  19    8   10 am
  20   10   15 1
  21   10   65 1
  22   11   66 1
  23   11   67 1
  24   12   13 1
  25   12   51 1
  26   12   68 1
  27   13   14 2
  28   15   16 1
  29   15   21 1
  30   15   22 1
  31   16   17 am
  32   16   18 2
  33   17   19 am
  34   17   69 1
  35   19   20 1
  36   19   25 2
  37   19   26 2
  38   20   23 1
  39   20   24 1
  40   20   70 1
  41   21   22 1
  42   21   27 1
  43   21   71 1
  44   22   72 1
  45   22   73 1
  46   23   24 1
  47   23   74 1
  48   23   75 1
  49   24   76 1
  50   24   77 1
  51   27   28 2
  52   27   78 1
  53   28   79 1
  54   28   80 1
  55   29   30 ar
  56   29   31 ar
  57   30   34 ar
  58   30   39 ar
  59   31   32 ar
  60   31   81 1
  61   32   33 ar
  62   32   35 1
  63   33   34 ar
  64   34   36 ar
  65   35   43 2
  66   35   46 1
  67   36   37 ar
  68   36   40 1
  69   37   38 ar
  70   37   41 1
  71   38   39 ar
  72   38   82 1
  73   39   83 1
  74   41   42 1
  75   42   50 1
  76   42   84 1
  77   42   85 1
  78   43   44 1
  79   44   45 2
  80   44   47 1
  81   45   46 1
  82   45   86 1
  83   47   48 1
  84   47   49 1
  85   47   87 1
  86   48   88 1
  87   48   89 1
  88   48   90 1
  89   49   91 1
  90   49   92 1
  91   49   93 1
  92   50   54 1
  93   50   94 1
  94   50   95 1
  95   51   52 1
  96   51   53 1
  97   51   96 1
  98   52   97 1
  99   52   98 1
 100   52   99 1
 101   53  100 1
 102   53  101 1
 103   53  102 1
 104   54   55 1
 105   54   56 1
 106   55   59 1
 107   55  103 1
 108   55  104 1
 109   56   57 1
 110   56  105 1
 111   56  106 1
 112   57   58 1
 113   57  107 1
 114   57  108 1
 115   58   59 1
 116   59  109 1
 117   59  110 1

#	End of record

