#	Name: ASD03081184
#	Creating user name:	WinNT
#	Creation time:	15. 06. 2019 20:27

#	Modifying user name:	WinNT
#	Modification time:	15. 06. 2019 20:27

#	Program:	/corina/corina34_cracker 3.40 0067  02.08.2006

@<TRIPOS>MOLECULE
ASD03081184
  25   26    0    0    0
SMALL
NO_CHARGES


@<TRIPOS>ATOM
   1 N1            -0.0179     1.4702     0.0101 N.3     
   2 C2             0.2293     0.0238    -0.1336 C.3     
   3 C3             1.7555    -0.1895    -0.0530 C.3     
   4 C4             2.2459     1.0758     0.6990 C.3     
   5 C5             1.2830     2.1584     0.1510 C.3     
   6 N6             2.0707    -1.4032     0.7121 N.3     
   7 C7            -0.4694     3.2393    -1.5769 C.ar    
   8 C8            -0.7315     1.9673    -1.0833 C.ar    
   9 C9            -1.7157     1.1949    -1.6951 C.ar    
  10 C10           -2.3957     1.7313    -2.7764 C.ar    
  11 C11           -2.0780     3.0049    -3.2095 C.ar    
  12 N12           -1.1403     3.7111    -2.6084 N.ar    
  13 H13           -0.2640    -0.5187     0.6730 H       
  14 H14           -0.1431    -0.3220    -1.0979 H       
  15 H15            2.1911    -0.2377    -1.0510 H       
  16 H16            2.1298     0.9592     1.7765 H       
  17 H17            3.2798     1.3066     0.4420 H       
  18 H18            1.6287     2.5184    -0.8180 H       
  19 H19            1.2005     2.9851     0.8565 H       
  20 H20            3.0679    -1.5470     0.7675 H       
  21 H21            1.6588    -1.3677     1.6325 H       
  22 H22            0.2885     3.8491    -1.1078 H       
  23 H23           -1.9431     0.2021    -1.3356 H       
  24 H24           -3.1650     1.1607    -3.2754 H       
  25 H25           -2.6049     3.4276    -4.0522 H       
@<TRIPOS>BOND
   1    1    2 1
   2    1    5 1
   3    1    8 1
   4    2    3 1
   5    2   13 1
   6    2   14 1
   7    3    4 1
   8    3    6 1
   9    3   15 1
  10    4    5 1
  11    4   16 1
  12    4   17 1
  13    5   18 1
  14    5   19 1
  15    6   20 1
  16    6   21 1
  17    7    8 ar
  18    7   12 ar
  19    7   22 1
  20    8    9 ar
  21    9   10 ar
  22    9   23 1
  23   10   11 ar
  24   10   24 1
  25   11   12 ar
  26   11   25 1

#	End of record

