#	Name: ASD04882202
#	Creating user name:	WinNT
#	Creation time:	15. 06. 2019 20:54

#	Modifying user name:	WinNT
#	Modification time:	15. 06. 2019 20:54

#	Program:	/corina/corina34_cracker 3.40 0067  02.08.2006

@<TRIPOS>MOLECULE
ASD04882202
  73   77    0    0    0
SMALL
NO_CHARGES


@<TRIPOS>ATOM
   1 C1             0.1258     1.4833    -0.4337 C.2     
   2 C2             0.1461     0.0186    -0.4842 C.2     
   3 N3             1.1860    -0.6594     0.0404 N.am    
   4 C4             1.1515    -2.0588     0.0998 C.ar    
   5 C5             2.3302    -2.7945    -0.0510 C.ar    
   6 C6             2.2974    -4.1831     0.0077 C.ar    
   7 C7             1.1040    -4.8387     0.2140 C.ar    
   8 C8            -0.0785    -4.1091     0.3657 C.ar    
   9 C9            -0.0473    -2.7127     0.3132 C.ar    
  10 N10            3.5390    -2.1358    -0.2608 N.3     
  11 C11            3.5457    -1.4484    -1.5597 C.3     
  12 C12            4.6713    -3.0666    -0.1549 C.3     
  13 C13            5.9817    -2.2916    -0.3121 C.3     
  14 N14            5.9884    -1.6042    -1.6110 N.3     
  15 C15            4.8561    -0.6735    -1.7169 C.3     
  16 C16            7.2008    -0.9435    -1.8214 C.ar    
  17 C17            7.9953    -1.2769    -2.9108 C.ar    
  18 C18            7.6121     0.0527    -0.9447 C.ar    
  19 C19            8.8114     0.7039    -1.1556 C.ar    
  20 C20            9.6026     0.3657    -2.2384 C.ar    
  21 C21            9.1938    -0.6216    -3.1158 C.ar    
  22 C22           -1.3568    -4.8116     0.5862 C.2     
  23 N23           -1.3850    -6.1580     0.6416 N.am    
  24 O24           -2.3850    -4.1761     0.7180 O.2     
  25 O25           -0.7763    -0.5853    -0.9999 O.2     
  26 S26            1.3687     2.5156     0.2696 S.3     
  27 C27            0.4665     3.9053    -0.1515 C.2     
  28 N28           -0.6321     3.5661    -0.7492 N.2     
  29 C29           -0.8504     2.2871    -0.9254 C.2     
  30 C30            7.5506    -2.3529    -3.8676 C.3     
  31 Cl31           0.9532     5.5393     0.1753 Cl      
  32 C32           -2.6545    -6.8556     0.8606 C.3     
  33 C33           -2.4096    -8.3658     0.8808 C.3     
  34 C34           -3.7354    -9.0944     1.1096 C.3     
  35 N35           -3.5009   -10.5404     1.1289 N.am    
  36 C36           -3.1868   -11.3123     2.3370 C.3     
  37 C37           -2.6058   -12.6513     1.8311 C.3     
  38 C38           -3.2455   -12.7624     0.4278 C.3     
  39 C39           -3.5515   -11.3315     0.0434 C.2     
  40 O40           -3.7990   -10.9523    -1.0817 O.2     
  41 H41            1.9583    -0.1786     0.3768 H       
  42 H42            3.2098    -4.7490    -0.1092 H       
  43 H43            1.0817    -5.9176     0.2584 H       
  44 H44           -0.9594    -2.1462     0.4304 H       
  45 H45            3.4593    -2.1830    -2.3603 H       
  46 H46            2.7054    -0.7559    -1.6089 H       
  47 H47            4.6516    -3.5537     0.8200 H       
  48 H48            4.5977    -3.8195    -0.9395 H       
  49 H49            6.0680    -1.5570     0.4885 H       
  50 H50            6.8219    -2.9842    -0.2629 H       
  51 H51            4.8757    -0.1863    -2.6918 H       
  52 H52            4.9297     0.0795    -0.9323 H       
  53 H53            6.9944     0.3178    -0.0994 H       
  54 H54            9.1317     1.4784    -0.4745 H       
  55 H55           10.5398     0.8771    -2.4015 H       
  56 H56            9.8140    -0.8833    -3.9604 H       
  57 H57           -0.5648    -6.6650     0.5365 H       
  58 H58           -1.7353     1.9046    -1.4123 H       
  59 H59            6.9595    -1.9064    -4.6672 H       
  60 H60            8.4252    -2.8447    -4.2934 H       
  61 H61            6.9453    -3.0859    -3.3342 H       
  62 H62           -3.0806    -6.5439     1.8142 H       
  63 H63           -3.3473    -6.6107     0.0556 H       
  64 H64           -1.9835    -8.6776    -0.0727 H       
  65 H65           -1.7168    -8.6108     1.6859 H       
  66 H66           -4.1615    -8.7826     2.0631 H       
  67 H67           -4.4282    -8.8494     0.3045 H       
  68 H68           -2.4482   -10.7845     2.9404 H       
  69 H69           -4.0923   -11.4893     2.9175 H       
  70 H70           -1.5190   -12.6035     1.7617 H       
  71 H71           -2.9185   -13.4780     2.4690 H       
  72 H72           -2.5437   -13.2080    -0.2772 H       
  73 H73           -4.1649   -13.3462     0.4728 H       
@<TRIPOS>BOND
   1    1    2 1
   2    1   26 1
   3    1   29 2
   4    2    3 am
   5    2   25 2
   6    3    4 1
   7    3   41 1
   8    4    5 ar
   9    4    9 ar
  10    5    6 ar
  11    5   10 1
  12    6    7 ar
  13    6   42 1
  14    7    8 ar
  15    7   43 1
  16    8    9 ar
  17    8   22 1
  18    9   44 1
  19   10   11 1
  20   10   12 1
  21   11   15 1
  22   11   45 1
  23   11   46 1
  24   12   13 1
  25   12   47 1
  26   12   48 1
  27   13   14 1
  28   13   49 1
  29   13   50 1
  30   14   15 1
  31   14   16 1
  32   15   51 1
  33   15   52 1
  34   16   17 ar
  35   16   18 ar
  36   17   30 1
  37   17   21 ar
  38   18   19 ar
  39   18   53 1
  40   19   20 ar
  41   19   54 1
  42   20   21 ar
  43   20   55 1
  44   21   56 1
  45   22   23 am
  46   22   24 2
  47   23   32 1
  48   23   57 1
  49   26   27 1
  50   27   28 2
  51   27   31 1
  52   28   29 1
  53   29   58 1
  54   30   59 1
  55   30   60 1
  56   30   61 1
  57   32   33 1
  58   32   62 1
  59   32   63 1
  60   33   34 1
  61   33   64 1
  62   33   65 1
  63   34   35 1
  64   34   66 1
  65   34   67 1
  66   35   36 1
  67   35   39 am
  68   36   37 1
  69   36   68 1
  70   36   69 1
  71   37   38 1
  72   37   70 1
  73   37   71 1
  74   38   39 1
  75   38   72 1
  76   38   73 1
  77   39   40 2

#	End of record

