#	Name: ASD04882241
#	Creating user name:	WinNT
#	Creation time:	15. 06. 2019 20:54

#	Modifying user name:	WinNT
#	Modification time:	15. 06. 2019 20:54

#	Program:	/corina/corina34_cracker 3.40 0067  02.08.2006

@<TRIPOS>MOLECULE
ASD04882241
  74   79    0    0    0
SMALL
NO_CHARGES


@<TRIPOS>ATOM
   1 N1            -0.1365     1.5554    -0.0362 N.am    
   2 C2            -0.0764     0.1558    -0.0457 C.ar    
   3 C3            -1.2527    -0.5953     0.0295 C.ar    
   4 C4            -1.1946    -1.9842     0.0202 C.ar    
   5 C5             0.0216    -2.6251    -0.0630 C.ar    
   6 C6             1.2018    -1.8801    -0.1380 C.ar    
   7 C7             1.1457    -0.4835    -0.1351 C.ar    
   8 N8            -2.4846     0.0485     0.1142 N.3     
   9 C9            -2.6118     0.7769     1.3842 C.3     
  10 C10           -3.5899    -0.9048    -0.0559 C.3     
  11 C11           -4.9202    -0.1483    -0.0359 C.3     
  12 N12           -5.0475     0.5801     1.2341 N.3     
  13 C13           -3.9421     1.5335     1.4042 C.3     
  14 C14            2.5044    -2.5669    -0.2266 C.2     
  15 O15            3.5307    -1.9180    -0.2918 O.2     
  16 C16            0.8450     2.2680     0.5514 C.2     
  17 O17            1.7290     1.6972     1.1630 O.2     
  18 C18            0.8479     3.7311     0.4538 C.2     
  19 N19            2.5570    -3.9136    -0.2354 N.am    
  20 C20           -6.2831     1.2259     1.3191 C.ar    
  21 C21           -6.6352     2.1817     0.3749 C.ar    
  22 C22           -7.1649     0.9094     2.3449 C.ar    
  23 C23           -8.3856     1.5498     2.4260 C.ar    
  24 C24           -8.7309     2.5049     1.4872 C.ar    
  25 C25           -7.8578     2.8185     0.4620 C.ar    
  26 C26            1.7773     4.5699     0.9992 C.2     
  27 C27            1.3911     5.8758     0.6592 C.2     
  28 C28            0.2573     5.7783    -0.0695 C.2     
  29 O29           -0.0641     4.4841    -0.1953 O.3     
  30 C30           -6.7899    -0.1319     3.3677 C.3     
  31 C31            3.8506    -4.5956    -0.3234 C.3     
  32 C32            3.6338    -6.0869    -0.3149 C.ar    
  33 C33            3.4556    -6.7653    -1.5069 C.ar    
  34 C34            3.2561    -8.1343    -1.5066 C.ar    
  35 C35            3.2344    -8.8307    -0.3155 C.ar    
  36 C36            3.4139    -8.1523     0.8887 C.ar    
  37 C37            3.6192    -6.7741     0.8821 C.ar    
  38 C38            3.3911    -8.8955     2.1727 C.2     
  39 N39            3.4559    -8.3545     3.4063 N.2     
  40 C40            3.4093    -9.3072     4.2948 C.2     
  41 N41            3.3128   -10.4961     3.6602 N.pl3   
  42 C42            3.2952   -10.2430     2.3171 C.2     
  43 H43           -0.8824     2.0117    -0.4561 H       
  44 H44           -2.1052    -2.5620     0.0788 H       
  45 H45            0.0634    -3.7043    -0.0700 H       
  46 H46            2.0560     0.0948    -0.1929 H       
  47 H47           -2.5830     0.0700     2.2133 H       
  48 H48           -1.7891     1.4853     1.4811 H       
  49 H49           -3.4802    -1.4225    -1.0088 H       
  50 H50           -3.5722    -1.6309     0.7569 H       
  51 H51           -4.9490     0.5586    -0.8651 H       
  52 H52           -5.7429    -0.8567    -0.1329 H       
  53 H53           -4.0518     2.0511     2.3571 H       
  54 H54           -3.9598     2.2595     0.5914 H       
  55 H55            1.7384    -4.4313    -0.1834 H       
  56 H56           -5.9537     2.4271    -0.4261 H       
  57 H57           -9.0716     1.3043     3.2232 H       
  58 H58           -9.6866     3.0038     1.5525 H       
  59 H59           -8.1306     3.5649    -0.2694 H       
  60 H60            2.6420     4.2838     1.5796 H       
  61 H61            1.9036     6.7873     0.9295 H       
  62 H62           -0.2965     6.6071    -0.4851 H       
  63 H63           -6.2774     0.3466     4.2022 H       
  64 H64           -7.6912    -0.6263     3.7302 H       
  65 H65           -6.1300    -0.8691     2.9105 H       
  66 H66            4.3516    -4.3065    -1.2473 H       
  67 H67            4.4688    -4.3135     0.5288 H       
  68 H68            3.4719    -6.2242    -2.4415 H       
  69 H69            3.1168    -8.6589    -2.4402 H       
  70 H70            3.0782    -9.8993    -0.3163 H       
  71 H71            3.7592    -6.2435     1.8123 H       
  72 H72            3.4431    -9.1686     5.3653 H       
  73 H73            3.2617   -11.3688     4.0806 H       
  74 H74            3.2255   -10.9731     1.5242 H       
@<TRIPOS>BOND
   1    1    2 1
   2    1   16 am
   3    1   43 1
   4    2    3 ar
   5    2    7 ar
   6    3    4 ar
   7    3    8 1
   8    4    5 ar
   9    4   44 1
  10    5    6 ar
  11    5   45 1
  12    6    7 ar
  13    6   14 1
  14    7   46 1
  15    8    9 1
  16    8   10 1
  17    9   13 1
  18    9   47 1
  19    9   48 1
  20   10   11 1
  21   10   49 1
  22   10   50 1
  23   11   12 1
  24   11   51 1
  25   11   52 1
  26   12   13 1
  27   12   20 1
  28   13   53 1
  29   13   54 1
  30   14   15 2
  31   14   19 am
  32   16   17 2
  33   16   18 1
  34   18   26 2
  35   18   29 1
  36   19   31 1
  37   19   55 1
  38   20   21 ar
  39   20   22 ar
  40   21   25 ar
  41   21   56 1
  42   22   23 ar
  43   22   30 1
  44   23   24 ar
  45   23   57 1
  46   24   25 ar
  47   24   58 1
  48   25   59 1
  49   26   27 1
  50   26   60 1
  51   27   28 2
  52   27   61 1
  53   28   29 1
  54   28   62 1
  55   30   63 1
  56   30   64 1
  57   30   65 1
  58   31   32 1
  59   31   66 1
  60   31   67 1
  61   32   33 ar
  62   32   37 ar
  63   33   34 ar
  64   33   68 1
  65   34   35 ar
  66   34   69 1
  67   35   36 ar
  68   35   70 1
  69   36   37 ar
  70   36   38 1
  71   37   71 1
  72   38   39 1
  73   38   42 2
  74   39   40 2
  75   40   41 1
  76   40   72 1
  77   41   42 1
  78   41   73 1
  79   42   74 1

#	End of record

