#	Name: ASD00170048
#	Creating user name:	WinNT
#	Creation time:	15. 06. 2019 18:31

#	Modifying user name:	WinNT
#	Modification time:	15. 06. 2019 18:31

#	Program:	/corina/corina34_cracker 3.40 0067  02.08.2006

@<TRIPOS>MOLECULE
ASD00170048
  48   49    0    0    0
SMALL
NO_CHARGES


@<TRIPOS>ATOM
   1 C1             3.3332     1.4450    -3.6808 C.ar    
   2 C2             3.3715     0.0603    -3.6903 C.ar    
   3 C3             3.5103    -0.6424    -2.5047 C.ar    
   4 C4             3.6107     0.0336    -1.3071 C.ar    
   5 C5             3.5727     1.4292    -1.2911 C.ar    
   6 C6             3.4332     2.1320    -2.4894 C.ar    
   7 Cl7            3.2445    -0.7977    -5.1941 Cl      
   8 C8             4.9682     4.3194    -0.0722 C.2     
   9 C9             3.7612     3.6219    -0.0060 C.2     
  10 C10            3.6794     2.1599    -0.0102 C.2     
  11 O11            3.6993     1.5460     1.0411 O.2     
  12 C12            4.8219     5.6574    -0.0504 C.2     
  13 S13            3.1203     6.0801     0.0499 S.3     
  14 C14            2.6519     4.4400     0.0639 C.2     
  15 N15            1.3508     3.9952     0.1344 N.pl3   
  16 C16            5.8986     6.6001    -0.1012 C.1     
  17 C17            6.7814     7.3730    -0.1428 C.1     
  18 C18            6.3101     3.6383    -0.1540 C.3     
  19 C19            7.8581     8.3157    -0.1935 C.ar    
  20 C20            7.5923     9.6882    -0.1647 C.ar    
  21 C21            8.6345    10.5898    -0.2140 C.ar    
  22 C22            9.9408    10.1393    -0.2923 C.ar    
  23 C23           10.2119     8.7824    -0.3218 C.ar    
  24 C24            9.1809     7.8684    -0.2664 C.ar    
  25 H25            3.2293     1.9876    -4.6088 H       
  26 H26            3.5395    -1.7219    -2.5184 H       
  27 H27            3.7182    -0.5154    -0.3832 H       
  28 H28            3.4035     3.2116    -2.4833 H       
  29 H29            0.6273     4.6295     0.2572 H       
  30 H30            1.1576     3.0474     0.0613 H       
  31 H31            6.5740     3.4799    -1.1996 H       
  32 H32            7.0652     4.2652     0.3204 H       
  33 H33            6.2616     2.6774     0.3582 H       
  34 H34            6.5734    10.0413    -0.1043 H       
  35 H35            8.4309    11.6502    -0.1918 H       
  36 H36           10.7528    10.8503    -0.3310 H       
  37 H37           11.2338     8.4385    -0.3836 H       
  38 H38            9.3943     6.8098    -0.2846 H       
  39 C39           18.9320    19.7760     6.9675 C.3     
  40 C40           18.9524    18.2692     6.9592 C.2     
  41 C41           17.8296    17.6004     6.9663 C.1     
  42 C42           16.7067    16.9315     6.9734 C.2     
  43 H43           19.9546    20.1533     6.9597 H       
  44 H44           18.4048    20.1371     6.0844 H       
  45 H45           18.4218    20.1276     7.8642 H       
  46 H46           19.8949    17.7420     6.9473 H       
  47 H47           16.2517    16.6502     7.9116 H       
  48 H48           16.2338    16.6602     6.0411 H       
@<TRIPOS>BOND
   1    1    2 ar
   2    1    6 ar
   3    1   25 1
   4    2    3 ar
   5    2    7 1
   6    3    4 ar
   7    3   26 1
   8    4    5 ar
   9    4   27 1
  10    5    6 ar
  11    5   10 1
  12    6   28 1
  13    8   18 1
  14    8    9 1
  15    8   12 2
  16    9   10 1
  17    9   14 2
  18   10   11 2
  19   12   13 1
  20   12   16 1
  21   13   14 1
  22   14   15 1
  23   15   29 1
  24   15   30 1
  25   16   17 3
  26   17   19 1
  27   18   31 1
  28   18   32 1
  29   18   33 1
  30   19   20 ar
  31   19   24 ar
  32   20   21 ar
  33   20   34 1
  34   21   22 ar
  35   21   35 1
  36   22   23 ar
  37   22   36 1
  38   23   24 ar
  39   23   37 1
  40   24   38 1
  41   39   40 1
  42   39   43 1
  43   39   44 1
  44   39   45 1
  45   40   41 2
  46   40   46 1
  47   41   42 2
  48   42   47 1
  49   42   48 1

#	End of record

