#	Name: ASD00960256
#	Creating user name:	WinNT
#	Creation time:	15. 06. 2019 18:53

#	Modifying user name:	WinNT
#	Modification time:	15. 06. 2019 18:53

#	Program:	/corina/corina34_cracker 3.40 0067  02.08.2006

@<TRIPOS>MOLECULE
ASD00960256
  35   37    0    0    0
SMALL
NO_CHARGES


@<TRIPOS>ATOM
   1 C1            -0.0167     1.3810     0.0096 C.2     
   2 C2             0.0021    -0.0041     0.0020 C.2     
   3 N3             1.2826     1.8094    -0.0005 N.pl3   
   4 C4             2.1017     0.7112     0.0002 C.2     
   5 C5             1.3466    -0.4000    -0.0055 C.2     
   6 N6             1.8010     3.1129     0.0020 N.2     
   7 C7             3.0816     3.2717    -0.2219 C.2     
   8 N8             3.9068     2.1949    -0.5229 N.pl3   
   9 C9             3.6067     0.8569     0.0184 C.3     
  10 N10            4.1064     0.7478     1.3955 N.3     
  11 C11            3.6449     4.5866    -0.1552 C.1     
  12 N12            4.0917     5.6297    -0.1024 N.1     
  13 C13           -1.2082     2.2305     0.0202 C.2     
  14 O14           -2.3149     1.7259     0.0234 O.2     
  15 O15           -1.0791     3.5734     0.0263 O.3     
  16 C16           -2.2844     4.3409     0.0365 C.3     
  17 C17           -1.9450     5.8092     0.0422 C.ar    
  18 C18           -1.7955     6.4887    -1.1523 C.ar    
  19 C19           -1.4841     7.8355    -1.1471 C.ar    
  20 C20           -1.3225     8.5029     0.0526 C.ar    
  21 C21           -1.4729     7.8236     1.2472 C.ar    
  22 C22           -1.7886     6.4778     1.2420 C.ar    
  23 H23           -0.8584    -0.6568     0.0024 H       
  24 H24            1.7106    -1.4168    -0.0138 H       
  25 H25            4.6826     2.3241    -1.0907 H       
  26 H26            4.0634     0.0901    -0.6073 H       
  27 H27            5.1049     0.8891     1.4301 H       
  28 H28            3.6285     1.3937     2.0058 H       
  29 H29           -2.8715     4.1072    -0.8516 H       
  30 H30           -2.8622     4.0982     0.9283 H       
  31 H31           -1.9217     5.9673    -2.0896 H       
  32 H32           -1.3666     8.3662    -2.0803 H       
  33 H33           -1.0785     9.5550     0.0567 H       
  34 H34           -1.3463     8.3450     2.1845 H       
  35 H35           -1.9097     5.9479     2.1752 H       
@<TRIPOS>BOND
   1    1    2 2
   2    1    3 1
   3    1   13 1
   4    2    5 1
   5    2   23 1
   6    3    4 1
   7    3    6 1
   8    4    5 2
   9    4    9 1
  10    5   24 1
  11    6    7 2
  12    7    8 1
  13    7   11 1
  14    8    9 1
  15    8   25 1
  16    9   10 1
  17    9   26 1
  18   10   27 1
  19   10   28 1
  20   11   12 3
  21   13   14 2
  22   13   15 1
  23   15   16 1
  24   16   17 1
  25   16   29 1
  26   16   30 1
  27   17   18 ar
  28   17   22 ar
  29   18   19 ar
  30   18   31 1
  31   19   20 ar
  32   19   32 1
  33   20   21 ar
  34   20   33 1
  35   21   22 ar
  36   21   34 1
  37   22   35 1

#	End of record

