#	Name: ASD04840052
#	Creating user name:	WinNT
#	Creation time:	15. 06. 2019 20:52

#	Modifying user name:	WinNT
#	Modification time:	15. 06. 2019 20:52

#	Program:	/corina/corina34_cracker 3.40 0067  02.08.2006

@<TRIPOS>MOLECULE
ASD04840052
  41   42    0    0    0
SMALL
NO_CHARGES


@<TRIPOS>ATOM
   1 C1             0.0584     1.5939    -1.1964 C.ar    
   2 C2            -0.0359     0.2167    -1.0535 C.ar    
   3 C3             1.0400    -0.5187    -0.6061 C.ar    
   4 C4             2.2338     0.1232    -0.2944 C.ar    
   5 C5             2.3245     1.5196    -0.4416 C.ar    
   6 C6             1.2218     2.2450    -0.8960 C.ar    
   7 N7             3.4556    -0.3171     0.1631 N.pl3   
   8 C8             4.3075     0.7437     0.3088 C.2     
   9 C9             3.6859     1.8813    -0.0397 C.2     
  10 C10            4.2767     3.2676    -0.0211 C.3     
  11 C11            4.2224     3.8260     1.4023 C.3     
  12 P12            5.0978     5.4239     1.4619 P.3     
  13 O13            4.5257     6.3381     0.4483 O.2     
  14 O14            4.9305     6.0733     2.9256 O.3     
  15 O15            6.6608     5.1914     1.1535 O.3     
  16 C16            3.7930    -1.7132     0.4514 C.3     
  17 C17            4.9630    -2.1484    -0.4333 C.3     
  18 C18            4.1884    -1.8489     1.9232 C.3     
  19 P19            2.4837     4.0670     1.8946 P.3     
  20 O20            1.8355     5.0196     0.9658 O.2     
  21 O21            1.7105     2.6558     1.8419 O.3     
  22 O22            2.4265     4.6547     3.3924 O.3     
  23 H23           -0.7930     2.1551    -1.5523 H       
  24 H24           -0.9621    -0.2837    -1.2949 H       
  25 H25            0.9565    -1.5900    -0.4974 H       
  26 H26            1.2880     3.3169    -1.0101 H       
  27 H27            5.3288     0.6758     0.6536 H       
  28 H28            5.3133     3.2253    -0.3555 H       
  29 H29            3.7061     3.9146    -0.6873 H       
  30 H30            4.6998     3.1244     2.0863 H       
  31 H31            4.0124     6.2413     3.1788 H       
  32 H32            6.8420     4.8737     0.2583 H       
  33 H33            2.9287    -2.3454     0.2477 H       
  34 H34            5.2140    -3.1871    -0.2188 H       
  35 H35            4.6812    -2.0517    -1.4818 H       
  36 H36            5.8272    -1.5162    -0.2295 H       
  37 H37            3.3549    -1.5389     2.5534 H       
  38 H38            4.4394    -2.8877     2.1377 H       
  39 H39            5.0527    -1.2167     2.1269 H       
  40 H40            2.0820     1.9817     2.4273 H       
  41 H41            1.5300     4.8081     3.7208 H       
@<TRIPOS>BOND
   1    1    2 ar
   2    1    6 ar
   3    1   23 1
   4    2    3 ar
   5    2   24 1
   6    3    4 ar
   7    3   25 1
   8    4    5 ar
   9    4    7 1
  10    5    6 ar
  11    5    9 1
  12    6   26 1
  13    7    8 1
  14    7   16 1
  15    8    9 2
  16    8   27 1
  17    9   10 1
  18   10   11 1
  19   10   28 1
  20   10   29 1
  21   11   12 1
  22   11   19 1
  23   11   30 1
  24   12   13 2
  25   12   14 1
  26   12   15 1
  27   14   31 1
  28   15   32 1
  29   16   17 1
  30   16   18 1
  31   16   33 1
  32   17   34 1
  33   17   35 1
  34   17   36 1
  35   18   37 1
  36   18   38 1
  37   18   39 1
  38   19   20 2
  39   19   21 1
  40   19   22 1
  41   21   40 1
  42   22   41 1

#	End of record

