#	Name: ASD00311315
#	Creating user name:	WinNT
#	Creation time:	15. 06. 2019 18:34

#	Modifying user name:	WinNT
#	Modification time:	15. 06. 2019 18:34

#	Program:	/corina/corina34_cracker 3.40 0067  02.08.2006

@<TRIPOS>MOLECULE
ASD00311315
  44   47    0    0    0
SMALL
NO_CHARGES


@<TRIPOS>ATOM
   1 C1            -0.0167     1.3781     0.0096 C.2     
   2 C2             0.0021    -0.0041     0.0020 C.2     
   3 C3             1.2588    -0.6765    -0.0133 C.2     
   4 C4             2.4315     0.0676    -0.0202 C.2     
   5 C5             2.3575     1.4755    -0.0120 C.2     
   6 N6             1.1649     2.0908     0.0022 N.am    
   7 C7            -1.3431    -0.5748     0.0123 C.2     
   8 C8            -2.3221     0.3255     0.0268 C.2     
   9 S9            -1.6795     1.9560     0.0358 S.3     
  10 O10            3.3824     2.1375    -0.0176 O.2     
  11 C11            3.7477    -0.6116    -0.0357 C.ar    
  12 C12            4.5937    -0.4742    -1.1360 C.ar    
  13 C13            5.8185    -1.1095    -1.1445 C.ar    
  14 C14            6.2080    -1.8815    -0.0645 C.ar    
  15 C15            5.3733    -2.0216     1.0298 C.ar    
  16 C16            4.1484    -1.3866     1.0525 C.ar    
  17 O17            1.3089    -2.0290    -0.0206 O.3     
  18 C18           -1.5956    -2.0355     0.0070 C.ar    
  19 C19           -1.2001    -2.8199     1.0960 C.ar    
  20 C20           -1.4387    -4.1830     1.0850 C.ar    
  21 C21           -2.0684    -4.7688    -0.0039 C.ar    
  22 C22           -2.4610    -3.9914    -1.0848 C.ar    
  23 C23           -2.2324    -2.6305    -1.0799 C.ar    
  24 O24           -2.3010    -6.1078    -0.0123 O.3     
  25 C25           -2.9533    -6.6457    -1.1643 C.3     
  26 O26           -0.5831    -2.2448     2.1614 O.3     
  27 C27           -0.2077    -3.1075     3.2370 C.3     
  28 H28            1.1328     3.0602     0.0077 H       
  29 H29           -3.3746     0.0835     0.0354 H       
  30 H30            4.2905     0.1279    -1.9798 H       
  31 H31            6.4744    -1.0041    -1.9960 H       
  32 H32            7.1675    -2.3770    -0.0759 H       
  33 H33            5.6828    -2.6256     1.8699 H       
  34 H34            3.4995    -1.4931     1.9092 H       
  35 H35            2.2062    -2.3893    -0.0309 H       
  36 H36           -1.1342    -4.7911     1.9240 H       
  37 H37           -2.9505    -4.4523    -1.9300 H       
  38 H38           -2.5431    -2.0275    -1.9204 H       
  39 H39           -3.0775    -7.7217    -1.0423 H       
  40 H40           -3.9310    -6.1779    -1.2799 H       
  41 H41           -2.3489    -6.4479    -2.0496 H       
  42 H42            0.4857    -3.8645     2.8705 H       
  43 H43            0.2739    -2.5226     4.0207 H       
  44 H44           -1.0962    -3.5933     3.6402 H       
@<TRIPOS>BOND
   1    1    2 2
   2    1    6 1
   3    1    9 1
   4    2    3 1
   5    2    7 1
   6    3    4 2
   7    3   17 1
   8    4    5 1
   9    4   11 1
  10    5    6 am
  11    5   10 2
  12    6   28 1
  13    7    8 2
  14    7   18 1
  15    8    9 1
  16    8   29 1
  17   11   12 ar
  18   11   16 ar
  19   12   13 ar
  20   12   30 1
  21   13   14 ar
  22   13   31 1
  23   14   15 ar
  24   14   32 1
  25   15   16 ar
  26   15   33 1
  27   16   34 1
  28   17   35 1
  29   18   19 ar
  30   18   23 ar
  31   19   20 ar
  32   19   26 1
  33   20   21 ar
  34   20   36 1
  35   21   22 ar
  36   21   24 1
  37   22   23 ar
  38   22   37 1
  39   23   38 1
  40   24   25 1
  41   25   39 1
  42   25   40 1
  43   25   41 1
  44   26   27 1
  45   27   42 1
  46   27   43 1
  47   27   44 1

#	End of record

