#	Name: ASD07000014
#	Creating user name:	WinNT
#	Creation time:	15. 06. 2019 21:08

#	Modifying user name:	WinNT
#	Modification time:	15. 06. 2019 21:08

#	Program:	/corina/corina34_cracker 3.40 0067  02.08.2006

@<TRIPOS>MOLECULE
ASD07000014
  33   33    0    0    0
SMALL
NO_CHARGES


@<TRIPOS>ATOM
   1 C1            -1.1121     3.2591    -0.8038 C.ar    
   2 C2             0.2362     3.5578    -0.8650 C.ar    
   3 C3             0.6627     4.6968    -1.5220 C.ar    
   4 C4            -0.2591     5.5369    -2.1182 C.ar    
   5 C5            -1.6073     5.2377    -2.0578 C.ar    
   6 C6            -2.0339     4.0995    -1.3996 C.ar    
   7 C7            -1.5765     2.0142    -0.0929 C.3     
   8 C8            -1.7133     2.3023     1.4035 C.3     
   9 C9            -2.8325     3.3215     1.6264 C.3     
  10 C10           -1.0431     0.0141     1.8252 C.3     
  11 N11           -2.0357     1.0577     2.1143 N.3     
  12 C12           -2.1481     1.2913     3.5602 C.3     
  13 C13           -2.7151     0.0634     4.2248 C.2     
  14 C14           -2.0681    -0.5049     5.2121 C.2     
  15 H15            0.9564     2.9015    -0.3991 H       
  16 H16            1.7161     4.9306    -1.5691 H       
  17 H17            0.0741     6.4272    -2.6309 H       
  18 H18           -2.3275     5.8945    -2.5230 H       
  19 H19           -3.0873     3.8661    -1.3518 H       
  20 H20           -2.5423     1.7060    -0.4934 H       
  21 H21           -0.8492     1.2165    -0.2444 H       
  22 H22           -0.7743     2.7048     1.7833 H       
  23 H23           -3.7715     2.9189     1.2466 H       
  24 H24           -2.9299     3.5267     2.6924 H       
  25 H25           -2.5933     4.2449     1.0990 H       
  26 H26           -0.0430     0.3982     2.0263 H       
  27 H27           -1.2331    -0.8531     2.4575 H       
  28 H28           -1.1166    -0.2770     0.7774 H       
  29 H29           -1.1615     1.5044     3.9717 H       
  30 H30           -2.8081     2.1398     3.7410 H       
  31 H31           -3.6548    -0.3482     3.8873 H       
  32 H32           -1.1284    -0.0933     5.5496 H       
  33 H33           -2.4744    -1.3849     5.6884 H       
@<TRIPOS>BOND
   1    1    2 ar
   2    1    6 ar
   3    1    7 1
   4    2    3 ar
   5    2   15 1
   6    3    4 ar
   7    3   16 1
   8    4    5 ar
   9    4   17 1
  10    5    6 ar
  11    5   18 1
  12    6   19 1
  13    7    8 1
  14    7   20 1
  15    7   21 1
  16    8    9 1
  17    8   11 1
  18    8   22 1
  19    9   23 1
  20    9   24 1
  21    9   25 1
  22   10   11 1
  23   10   26 1
  24   10   27 1
  25   10   28 1
  26   11   12 1
  27   12   13 1
  28   12   29 1
  29   12   30 1
  30   13   14 2
  31   13   31 1
  32   14   32 1
  33   14   33 1

#	End of record

