#	Name: ASD04910133
#	Creating user name:	WinNT
#	Creation time:	15. 06. 2019 20:55

#	Modifying user name:	WinNT
#	Modification time:	15. 06. 2019 20:55

#	Program:	/corina/corina34_cracker 3.40 0067  02.08.2006

@<TRIPOS>MOLECULE
ASD04910133
  25   25    0    0    0
SMALL
NO_CHARGES


@<TRIPOS>ATOM
   1 C1            -0.0187     1.5258     0.0104 C.3     
   2 C2             0.0021    -0.0041     0.0020 C.3     
   3 C3            -1.4333    -0.5336     0.0129 C.3     
   4 C4            -1.4126    -2.0635     0.0045 C.3     
   5 O5             1.3220     2.0204     0.0003 O.3     
   6 C6            -2.8264    -2.5851     0.0152 C.ar    
   7 C7            -3.5236    -2.7203    -1.1737 C.ar    
   8 C8            -4.8220    -3.2000    -1.1629 C.ar    
   9 C9            -5.4215    -3.5437     0.0352 C.ar    
  10 C10           -4.7239    -3.4076     1.2218 C.ar    
  11 C11           -3.4251    -2.9339     1.2107 C.ar    
  12 F12           -2.9371    -2.3839    -2.3433 F       
  13 Br13          -7.1952    -4.1990     0.0511 Br      
  14 H14           -0.5459     1.8868    -0.8726 H       
  15 H15           -0.5289     1.8773     0.9072 H       
  16 H16            0.5123    -0.3556    -0.8948 H       
  17 H17            0.5293    -0.3651     0.8851 H       
  18 H18           -1.9435    -0.1821     0.9097 H       
  19 H19           -1.9605    -0.1726    -0.8702 H       
  20 H20           -0.9024    -2.4150    -0.8923 H       
  21 H21           -0.8854    -2.4246     0.8875 H       
  22 H22            1.3852     2.9853     0.0049 H       
  23 H23           -5.3668    -3.3055    -2.0894 H       
  24 H24           -5.1926    -3.6757     2.1571 H       
  25 H25           -2.8797    -2.8326     2.1373 H       
@<TRIPOS>BOND
   1    1    2 1
   2    1    5 1
   3    1   14 1
   4    1   15 1
   5    2    3 1
   6    2   16 1
   7    2   17 1
   8    3    4 1
   9    3   18 1
  10    3   19 1
  11    4    6 1
  12    4   20 1
  13    4   21 1
  14    5   22 1
  15    6    7 ar
  16    6   11 ar
  17    7    8 ar
  18    7   12 1
  19    8    9 ar
  20    8   23 1
  21    9   10 ar
  22    9   13 1
  23   10   11 ar
  24   10   24 1
  25   11   25 1

#	End of record

