#	Name: ASD01915446
#	Creating user name:	WinNT
#	Creation time:	15. 06. 2019 20:05

#	Modifying user name:	WinNT
#	Modification time:	15. 06. 2019 20:05

#	Program:	/corina/corina34_cracker 3.40 0067  02.08.2006

@<TRIPOS>MOLECULE
ASD01915446
  46   48    0    0    0
SMALL
NO_CHARGES


@<TRIPOS>ATOM
   1 N1             2.3056     2.2349    -0.3616 N.pl3   
   2 N2             1.6610     1.1462     0.2328 N.2     
   3 C3             2.4624     0.1209     0.2793 C.2     
   4 C4             3.7319     0.5246    -0.3168 C.ar    
   5 C5             3.5789     1.8730    -0.7062 C.ar    
   6 N6             4.5811     2.5212    -1.2860 N.ar    
   7 C7             4.9472    -0.1265    -0.5448 C.ar    
   8 C8             5.9722     0.5935    -1.1562 C.ar    
   9 C9             5.7442     1.9392    -1.5182 C.ar    
  10 C10            7.2386    -0.0232    -1.4142 C.1     
  11 N11            8.2432    -0.5124    -1.6190 N.1     
  12 C12            6.8275     2.7114    -2.1691 C.ar    
  13 C13            6.5221     3.6619    -3.1431 C.ar    
  14 C14            7.5358     4.3782    -3.7459 C.ar    
  15 C15            8.8528     4.1551    -3.3860 C.ar    
  16 C16            9.1621     3.2137    -2.4206 C.ar    
  17 C17            8.1569     2.4952    -1.8064 C.ar    
  18 C18            2.1378    -1.2370     0.8467 C.3     
  19 C19            0.6902    -1.2501     1.3419 C.3     
  20 C20            2.3148    -2.2994    -0.2400 C.3     
  21 C21            3.0790    -1.5400     2.0143 C.3     
  22 C22            5.1439    -1.5650    -0.1411 C.3     
  23 C23            5.1915    -2.4440    -1.3925 C.3     
  24 C24            5.4162    -3.9012    -0.9839 C.3     
  25 F25            4.3676    -4.3212    -0.1586 F       
  26 F26            5.4597    -4.7050    -2.1281 F       
  27 F27            6.6269    -4.0099    -0.2914 F       
  28 H28            1.9107     3.1084    -0.5101 H       
  29 H29            5.4943     3.8367    -3.4251 H       
  30 H30            7.3006     5.1142    -4.5004 H       
  31 H31            9.6428     4.7180    -3.8609 H       
  32 H32           10.1922     3.0440    -2.1438 H       
  33 H33            8.3992     1.7637    -1.0498 H       
  34 H34            0.0197    -1.0342     0.5100 H       
  35 H35            0.4555    -2.2322     1.7523 H       
  36 H36            0.5642    -0.4932     2.1160 H       
  37 H37            3.2045    -2.0733    -0.8277 H       
  38 H38            2.4255    -3.2793     0.2245 H       
  39 H39            1.4405    -2.3025    -0.8909 H       
  40 H40            2.7125    -1.0459     2.9141 H       
  41 H41            3.1166    -2.6166     2.1807 H       
  42 H42            4.0784    -1.1734     1.7800 H       
  43 H43            6.0804    -1.6634     0.4079 H       
  44 H44            4.3159    -1.8808     0.4935 H       
  45 H45            4.2482    -2.3593    -1.9320 H       
  46 H46            6.0085    -2.1168    -2.0355 H       
@<TRIPOS>BOND
   1    1    2 1
   2    1    5 1
   3    1   28 1
   4    2    3 2
   5    3    4 1
   6    3   18 1
   7    4    7 ar
   8    4    5 ar
   9    5    6 ar
  10    6    9 ar
  11    7    8 ar
  12    7   22 1
  13    8    9 ar
  14    8   10 1
  15    9   12 1
  16   10   11 3
  17   12   13 ar
  18   12   17 ar
  19   13   14 ar
  20   13   29 1
  21   14   15 ar
  22   14   30 1
  23   15   16 ar
  24   15   31 1
  25   16   17 ar
  26   16   32 1
  27   17   33 1
  28   18   19 1
  29   18   20 1
  30   18   21 1
  31   19   34 1
  32   19   35 1
  33   19   36 1
  34   20   37 1
  35   20   38 1
  36   20   39 1
  37   21   40 1
  38   21   41 1
  39   21   42 1
  40   22   23 1
  41   22   43 1
  42   22   44 1
  43   23   24 1
  44   23   45 1
  45   23   46 1
  46   24   25 1
  47   24   26 1
  48   24   27 1

#	End of record

