#	Name: ASD03091170
#	Creating user name:	WinNT
#	Creation time:	15. 06. 2019 20:30

#	Modifying user name:	WinNT
#	Modification time:	15. 06. 2019 20:30

#	Program:	/corina/corina34_cracker 3.40 0067  02.08.2006

@<TRIPOS>MOLECULE
ASD03091170
  64   68    0    0    0
SMALL
NO_CHARGES


@<TRIPOS>ATOM
   1 C1            -0.0259     1.4655     0.0342 C.2     
   2 C2             0.0074    -0.0410     0.0127 C.3     
   3 O3             1.0108     2.0950     0.0362 O.2     
   4 N4            -1.2077     2.1133     0.0455 N.am    
   5 C5            -1.2400     3.5778     0.0664 C.3     
   6 C6            -1.1282     4.1108    -1.3634 C.3     
   7 C7            -2.5572     4.0501     0.6852 C.3     
   8 N8             3.3342    -1.0136     1.2329 N.2     
   9 C9             2.0911    -0.6125     1.1726 C.2     
  10 N10            1.3990    -0.4985    -0.0029 N.am    
  11 C11            1.9928    -0.8065    -1.1796 C.2     
  12 C12            3.3908    -1.2604    -1.1358 C.ar    
  13 C13            4.0884    -1.6009    -2.2923 C.ar    
  14 C14            5.4036    -2.0227    -2.1926 C.ar    
  15 C15            6.0257    -2.1065    -0.9468 C.ar    
  16 C16            5.3547    -1.7766     0.1954 C.ar    
  17 C17            4.0258    -1.3470     0.1243 C.ar    
  18 O18            1.3921    -0.7117    -2.2341 O.2     
  19 C19            1.4011    -0.2650     2.4328 C.ar    
  20 C20            0.1924    -0.8806     2.7626 C.ar    
  21 C21           -0.4479    -0.5522     3.9409 C.ar    
  22 C22            0.1059     0.3862     4.7951 C.ar    
  23 C23            1.3049     1.0012     4.4736 C.ar    
  24 C24            1.9583     0.6756     3.3000 C.ar    
  25 F25            1.8391     1.9166     5.3113 F       
  26 Cl26          -1.9510    -1.3172     4.3521 Cl      
  27 N27            7.1103    -2.0678    -6.1190 N.3     
  28 C28            5.9266    -2.8690    -5.7722 C.3     
  29 C29            5.2462    -2.3128    -4.5311 C.3     
  30 N30            6.1119    -2.3670    -3.3470 N.3     
  31 C31            7.2853    -1.4999    -3.5232 C.3     
  32 C32            8.4603    -2.3003    -4.0647 C.3     
  33 C33            8.3145    -2.6683    -5.5274 C.3     
  34 C34            7.0135    -0.6443    -5.8768 C.3     
  35 C35            6.9044    -0.3182    -4.3963 C.3     
  36 H36           -0.4924    -0.4281     0.9007 H       
  37 H37           -0.5042    -0.4031    -0.8791 H       
  38 H38           -2.0368     1.6099     0.0399 H       
  39 H39           -0.4054     3.9513     0.6596 H       
  40 H40           -1.9629     3.7373    -1.9567 H       
  41 H41           -1.1523     5.2004    -1.3479 H       
  42 H42           -0.1898     3.7743    -1.8043 H       
  43 H43           -2.6369     3.6704     1.7038 H       
  44 H44           -2.5813     5.1397     0.7007 H       
  45 H45           -3.3919     3.6766     0.0919 H       
  46 H46            3.6081    -1.5368    -3.2575 H       
  47 H47            7.0520    -2.4372    -0.8850 H       
  48 H48            5.8496    -1.8472     1.1527 H       
  49 H49           -0.2413    -1.6123     2.0971 H       
  50 H50           -0.3990     0.6400     5.7155 H       
  51 H51            2.8954     1.1519     3.0522 H       
  52 H52            5.2241    -2.8509    -6.6054 H       
  53 H53            6.2323    -3.8981    -5.5834 H       
  54 H54            4.9663    -1.2759    -4.7167 H       
  55 H55            4.3430    -2.8906    -4.3348 H       
  56 H56            7.5647    -1.1079    -2.5453 H       
  57 H57            9.3700    -1.7127    -3.9411 H       
  58 H58            8.5573    -3.2163    -3.4819 H       
  59 H59            8.2521    -3.7528    -5.6170 H       
  60 H60            9.1913    -2.3174    -6.0718 H       
  61 H61            7.8996    -0.1557    -6.2820 H       
  62 H62            6.1329    -0.2575    -6.3897 H       
  63 H63            5.8779    -0.0284    -4.1720 H       
  64 H64            7.5649     0.5183    -4.1682 H       
@<TRIPOS>BOND
   1    1    2 1
   2    1    3 2
   3    1    4 am
   4    2   10 1
   5    2   36 1
   6    2   37 1
   7    4    5 1
   8    4   38 1
   9    5    6 1
  10    5    7 1
  11    5   39 1
  12    6   40 1
  13    6   41 1
  14    6   42 1
  15    7   43 1
  16    7   44 1
  17    7   45 1
  18    8    9 2
  19    8   17 1
  20    9   10 1
  21    9   19 1
  22   10   11 am
  23   11   12 1
  24   11   18 2
  25   12   13 ar
  26   12   17 ar
  27   13   14 ar
  28   13   46 1
  29   14   15 ar
  30   14   30 1
  31   15   16 ar
  32   15   47 1
  33   16   17 ar
  34   16   48 1
  35   19   20 ar
  36   19   24 ar
  37   20   21 ar
  38   20   49 1
  39   21   22 ar
  40   21   26 1
  41   22   23 ar
  42   22   50 1
  43   23   24 ar
  44   23   25 1
  45   24   51 1
  46   27   28 1
  47   27   33 1
  48   27   34 1
  49   28   29 1
  50   28   52 1
  51   28   53 1
  52   29   30 1
  53   29   54 1
  54   29   55 1
  55   30   31 1
  56   31   32 1
  57   31   35 1
  58   31   56 1
  59   32   33 1
  60   32   57 1
  61   32   58 1
  62   33   59 1
  63   33   60 1
  64   34   35 1
  65   34   61 1
  66   34   62 1
  67   35   63 1
  68   35   64 1

#	End of record

