#	Name: ASD07930466
#	Creating user name:	WinNT
#	Creation time:	15. 06. 2019 21:12

#	Modifying user name:	WinNT
#	Modification time:	15. 06. 2019 21:12

#	Program:	/corina/corina34_cracker 3.40 0067  02.08.2006

@<TRIPOS>MOLECULE
ASD07930466
  55   58    0    0    0
SMALL
NO_CHARGES


@<TRIPOS>ATOM
   1 C1            -0.0222     1.5415    -0.0108 C.3     
   2 N2             2.1315     1.2385     2.0338 N.2     
   3 N3             2.7634     3.3787     1.3398 N.pl3   
   4 C4             3.6748     3.8760     0.3039 C.3     
   5 C5             2.8966     4.0681    -1.0051 C.3     
   6 S6             2.1113     2.4844    -1.4404 S.o2    
   7 N7             1.3518     2.0495    -0.0224 N.am    
   8 C8             2.0850     2.1927     1.1470 C.2     
   9 C9             4.8007     2.8634     0.0850 C.3     
  10 C10            4.2603     5.1945     0.7394 C.ar    
  11 C11            3.8295     5.7879     1.9095 C.ar    
  12 C12            4.3694     7.0032     2.3104 C.ar    
  13 C13            5.3416     7.6188     1.5333 C.ar    
  14 C14            5.7697     7.0218     0.3636 C.ar    
  15 C15            5.2342     5.8076    -0.0313 C.ar    
  16 N16            3.9339     7.6064     3.4956 N.am    
  17 C17            4.8016     8.3046     4.2547 C.2     
  18 O18            5.9810     8.3295     3.9626 O.2     
  19 O19            1.0522     2.6843    -2.3664 O.2     
  20 O20            3.0906     1.4753    -1.6454 O.2     
  21 F21            5.6546     5.2251    -1.1755 F       
  22 C22            4.3176     9.0416     5.4450 C.ar    
  23 N23            3.0284     9.0106     5.7590 N.ar    
  24 C24            2.5580     9.6506     6.8073 C.ar    
  25 C25            3.3978    10.3862     7.6279 C.ar    
  26 C26            4.7519    10.4455     7.3365 C.ar    
  27 C27            5.2205     9.7568     6.2290 C.ar    
  28 C28           -0.0005     0.0117    -0.0282 C.3     
  29 C29           -1.3408    -0.7153     0.0988 C.3     
  30 C30           -0.6086    -0.6897    -1.2444 C.3     
  31 C31            2.8446    11.1153     8.8252 C.3     
  32 F32            1.4641    10.9028     8.9037 F       
  33 F33            3.4572    10.6350     9.9876 F       
  34 F34            3.0990    12.4848     8.6958 F       
  35 H35           -0.5300     1.8875     0.8895 H       
  36 H36           -0.5523     1.9073    -0.8902 H       
  37 H37            2.6491     1.3558     2.8457 H       
  38 H38            2.6408     3.8807     2.1607 H       
  39 H39            2.1315     4.8324    -0.8690 H       
  40 H40            3.5806     4.3693    -1.7985 H       
  41 H41            4.3761     1.9108    -0.2319 H       
  42 H42            5.4777     3.2335    -0.6849 H       
  43 H43            5.3505     2.7244     1.0159 H       
  44 H44            3.0730     5.3075     2.5122 H       
  45 H45            5.7625     8.5640     1.8431 H       
  46 H46            6.5256     7.5005    -0.2413 H       
  47 H47            3.0076     7.5221     3.7707 H       
  48 H48            1.5026     9.6023     7.0315 H       
  49 H49            5.4268    11.0122     7.9607 H       
  50 H50            6.2693     9.7806     5.9726 H       
  51 H51            0.8693    -0.4514     0.4376 H       
  52 H52           -1.3526    -1.6569     0.6478 H       
  53 H53           -2.2380    -0.1038     0.1947 H       
  54 H54           -1.0241    -0.0613    -2.0322 H       
  55 H55           -0.1387    -1.6145    -1.5791 H       
@<TRIPOS>BOND
   1    1   28 1
   2    1    7 1
   3    1   35 1
   4    1   36 1
   5    2    8 2
   6    2   37 1
   7    3    4 1
   8    3    8 1
   9    3   38 1
  10    4    5 1
  11    4    9 1
  12    4   10 1
  13    5    6 1
  14    5   39 1
  15    5   40 1
  16    6    7 am
  17    6   19 2
  18    6   20 2
  19    7    8 1
  20    9   41 1
  21    9   42 1
  22    9   43 1
  23   10   11 ar
  24   10   15 ar
  25   11   12 ar
  26   11   44 1
  27   12   13 ar
  28   12   16 1
  29   13   14 ar
  30   13   45 1
  31   14   15 ar
  32   14   46 1
  33   15   21 1
  34   16   17 am
  35   16   47 1
  36   17   18 2
  37   17   22 1
  38   22   23 ar
  39   22   27 ar
  40   23   24 ar
  41   24   25 ar
  42   24   48 1
  43   25   26 ar
  44   25   31 1
  45   26   27 ar
  46   26   49 1
  47   27   50 1
  48   28   29 1
  49   28   30 1
  50   28   51 1
  51   29   30 1
  52   29   52 1
  53   29   53 1
  54   30   54 1
  55   30   55 1
  56   31   32 1
  57   31   33 1
  58   31   34 1

#	End of record

