#	Name: ASD01917002
#	Creating user name:	WinNT
#	Creation time:	15. 06. 2019 20:08

#	Modifying user name:	WinNT
#	Modification time:	15. 06. 2019 20:08

#	Program:	/corina/corina34_cracker 3.40 0067  02.08.2006

@<TRIPOS>MOLECULE
ASD01917002
  57   61    0    0    0
SMALL
NO_CHARGES


@<TRIPOS>ATOM
   1 C1            -0.2051     1.3912     1.0277 C.ar    
   2 C2            -0.2633     0.1039     1.5366 C.ar    
   3 C3             0.9025    -0.5684     1.8662 C.ar    
   4 C4             2.1270     0.0422     1.6885 C.ar    
   5 C5             2.1901     1.3365     1.1765 C.ar    
   6 C6             1.0152     2.0090     0.8464 C.ar    
   7 C7             3.5049     1.9974     0.9842 C.2     
   8 N8             4.6954     1.4554     1.2636 N.2     
   9 N9             3.6887     3.2091     0.5059 N.2     
  10 N10            5.0742     3.4371     0.4921 N.pl3   
  11 C11            5.6520     2.3121     0.9742 C.2     
  12 C12            7.1038     2.0855     1.1466 C.ar    
  13 C13            5.7591     4.6511     0.0412 C.3     
  14 C14            5.8381     5.6355     1.1796 C.2     
  15 O15            5.3686     5.3510     2.2610 O.2     
  16 N16            6.4306     6.8320     0.9959 N.am    
  17 C17            6.5186     7.8073     2.0933 C.3     
  18 C18            7.9747     8.2676     2.2199 C.3     
  19 N19            8.4459     8.7549     0.9167 N.3     
  20 C20            8.4432     7.6816    -0.0863 C.3     
  21 C21            7.0117     7.1948    -0.3057 C.3     
  22 C22            9.7007     9.3286     1.0258 C.ar    
  23 C23            7.9775     3.1707     1.2227 C.ar    
  24 N24           10.5965     8.8017     1.8458 N.ar    
  25 C25           10.0191    10.4641     0.2611 C.ar    
  26 C26           11.2945    11.0262     0.3883 C.ar    
  27 C27           12.1884    10.4364     1.2647 C.ar    
  28 C28           11.8033     9.3165     1.9795 C.ar    
  29 F29           -1.4603    -0.4974     1.7126 F       
  30 C30            9.3300     2.9541     1.3834 C.ar    
  31 C31            9.8218     1.6612     1.4688 C.ar    
  32 C32            8.9582     0.5799     1.3934 C.ar    
  33 C33            7.6032     0.7860     1.2394 C.ar    
  34 F34           11.1476     1.4543     1.6258 F       
  35 C35            9.0563    11.0351    -0.6320 C.1     
  36 N36            8.2926    11.4881    -1.3405 N.1     
  37 H37           -1.1161     1.9101     0.7682 H       
  38 H38            0.8526    -1.5716     2.2630 H       
  39 H39            3.0352    -0.4823     1.9463 H       
  40 H40            1.0597     3.0123     0.4493 H       
  41 H41            6.7659     4.3982    -0.2910 H       
  42 H42            5.2046     5.0954    -0.7854 H       
  43 H43            5.8815     8.6640     1.8737 H       
  44 H44            6.2000     7.3398     3.0250 H       
  45 H45            8.0397     9.0710     2.9537 H       
  46 H46            8.5943     7.4303     2.5409 H       
  47 H47            8.8481     8.0598    -1.0249 H       
  48 H48            9.0563     6.8523     0.2668 H       
  49 H49            7.0175     6.3240    -0.9613 H       
  50 H50            6.4190     7.9913    -0.7554 H       
  51 H51            7.5953     4.1786     1.1555 H       
  52 H52           11.5743    11.8985    -0.1837 H       
  53 H53           13.1807    10.8450     1.3866 H       
  54 H54           12.5025     8.8577     2.6630 H       
  55 H55           10.0071     3.7934     1.4424 H       
  56 H56            9.3464    -0.4257     1.4598 H       
  57 H57            6.9310    -0.0573     1.1810 H       
@<TRIPOS>BOND
   1    1    2 ar
   2    1    6 ar
   3    1   37 1
   4    2    3 ar
   5    2   29 1
   6    3    4 ar
   7    3   38 1
   8    4    5 ar
   9    4   39 1
  10    5    6 ar
  11    5    7 1
  12    6   40 1
  13    7    8 1
  14    7    9 2
  15    8   11 2
  16    9   10 1
  17   10   11 1
  18   10   13 1
  19   11   12 1
  20   12   23 ar
  21   12   33 ar
  22   13   14 1
  23   13   41 1
  24   13   42 1
  25   14   15 2
  26   14   16 am
  27   16   17 1
  28   16   21 1
  29   17   18 1
  30   17   43 1
  31   17   44 1
  32   18   19 1
  33   18   45 1
  34   18   46 1
  35   19   20 1
  36   19   22 1
  37   20   21 1
  38   20   47 1
  39   20   48 1
  40   21   49 1
  41   21   50 1
  42   22   25 ar
  43   22   24 ar
  44   23   30 ar
  45   23   51 1
  46   24   28 ar
  47   25   26 ar
  48   25   35 1
  49   26   27 ar
  50   26   52 1
  51   27   28 ar
  52   27   53 1
  53   28   54 1
  54   30   31 ar
  55   30   55 1
  56   31   32 ar
  57   31   34 1
  58   32   33 ar
  59   32   56 1
  60   33   57 1
  61   35   36 3

#	End of record

