#	Name: ASD01420344
#	Creating user name:	WinNT
#	Creation time:	15. 06. 2019 19:20

#	Modifying user name:	WinNT
#	Modification time:	15. 06. 2019 19:20

#	Program:	/corina/corina34_cracker 3.40 0067  02.08.2006

@<TRIPOS>MOLECULE
ASD01420344
  83   87    0    0    0
SMALL
NO_CHARGES


@<TRIPOS>ATOM
   1 C1            -0.0144     1.2120     0.0087 C.2     
   2 O2             0.2425     0.1772     0.5938 O.2     
   3 C3             2.3276     1.3992    -0.8859 C.3     
   4 N4             0.9261     1.8083    -0.7504 N.am    
   5 C5             0.7434     2.9899    -1.5992 C.3     
   6 C6             2.0668     3.2920    -2.2557 C.ar    
   7 C7             2.4379     4.2894    -3.1399 C.ar    
   8 C8             3.7418     4.3538    -3.6067 C.ar    
   9 C9             4.6732     3.4158    -3.1852 C.ar    
  10 C10            4.2987     2.4223    -2.3030 C.ar    
  11 C11            2.9958     2.3594    -1.8376 C.ar    
  12 C12            5.3102     1.4034    -1.8451 C.3     
  13 O13            4.1066     5.3331    -4.4755 O.3     
  14 C14            5.4665     5.3376    -4.9142 C.3     
  15 C15            5.6870     6.5035    -5.8801 C.3     
  16 N16            5.5055     7.7734    -5.1643 N.3     
  17 C17            6.5500     7.9590    -4.1482 C.3     
  18 C18            5.4742     8.9054    -6.1000 C.3     
  19 C19           -1.3558     1.8104     0.1249 C.ar    
  20 C20           -2.4979     0.9967     0.0520 C.ar    
  21 C21           -3.7586     1.5595     0.1607 C.ar    
  22 C22           -3.8981     2.9254     0.3415 C.ar    
  23 C23           -2.7615     3.7461     0.4159 C.ar    
  24 C24           -1.4935     3.1862     0.3132 C.ar    
  25 C25           -2.9129     5.2029     0.6083 C.2     
  26 C26           -3.3071     5.9677    -0.4009 C.2     
  27 C27           -2.6195     5.8201     1.9515 C.3     
  28 O28           -5.1353     3.4714     0.4464 O.3     
  29 C29           -6.2478     2.5786     0.3615 C.3     
  30 C30           -7.5298     3.3590     0.4981 C.ar    
  31 C31           -8.1506     3.8706    -0.6261 C.ar    
  32 C32           -9.3265     4.5865    -0.5008 C.ar    
  33 C33           -9.8818     4.7903     0.7485 C.ar    
  34 C34           -9.2615     4.2779     1.8726 C.ar    
  35 C35           -8.0879     3.5583     1.7469 C.ar    
  36 O36           -2.3663    -0.3415    -0.1255 O.3     
  37 C37           -3.5700    -1.1088    -0.1906 C.3     
  38 C38           -3.2286    -2.5631    -0.3891 C.ar    
  39 C39           -3.0380    -3.3841     0.7066 C.ar    
  40 C40           -2.7248    -4.7182     0.5245 C.ar    
  41 C41           -2.6026    -5.2313    -0.7533 C.ar    
  42 C42           -2.7941    -4.4104    -1.8490 C.ar    
  43 C43           -3.1116    -3.0774    -1.6668 C.ar    
  44 H44            2.8199     1.4396     0.0858 H       
  45 H45            2.3799     0.3865    -1.2856 H       
  46 H46           -0.0087     2.7848    -2.3611 H       
  47 H47            0.4313     3.8379    -0.9897 H       
  48 H48            1.7112     5.0183    -3.4669 H       
  49 H49            5.6897     3.4627    -3.5470 H       
  50 H50            5.8071     1.7641    -0.9444 H       
  51 H51            4.8053     0.4618    -1.6292 H       
  52 H52            6.0498     1.2474    -2.6304 H       
  53 H53            6.1257     5.4493    -4.0533 H       
  54 H54            5.6877     4.3986    -5.4217 H       
  55 H55            6.6986     6.4551    -6.2832 H       
  56 H56            4.9672     6.4403    -6.6962 H       
  57 H57            7.5280     7.9658    -4.6295 H       
  58 H58            6.3918     8.9066    -3.6334 H       
  59 H59            6.5054     7.1422    -3.4278 H       
  60 H60            4.6474     8.7766    -6.7985 H       
  61 H61            5.3388     9.8330    -5.5438 H       
  62 H62            6.4132     8.9465    -6.6520 H       
  63 H63           -4.6354     0.9315     0.1039 H       
  64 H64           -0.6174     3.8148     0.3746 H       
  65 H65           -3.5174     5.5254    -1.3635 H       
  66 H66           -3.4178     7.0327    -0.2603 H       
  67 H67           -1.5691     6.1074     1.9977 H       
  68 H68           -3.2440     6.7026     2.0901 H       
  69 H69           -2.8332     5.0966     2.7382 H       
  70 H70           -6.2329     2.0701    -0.6025 H       
  71 H71           -6.1841     1.8416     1.1620 H       
  72 H72           -7.7167     3.7114    -1.6022 H       
  73 H73           -9.8111     4.9868    -1.3790 H       
  74 H74          -10.8002     5.3502     0.8465 H       
  75 H75           -9.6952     4.4374     2.8488 H       
  76 H76           -7.6052     3.1548     2.6248 H       
  77 H77           -4.1273    -0.9900     0.7386 H       
  78 H78           -4.1779    -0.7610    -1.0258 H       
  79 H79           -3.1335    -2.9833     1.7049 H       
  80 H80           -2.5752    -5.3594     1.3805 H       
  81 H81           -2.3572    -6.2733    -0.8956 H       
  82 H82           -2.6983    -4.8112    -2.8472 H       
  83 H83           -3.2648    -2.4370    -2.5229 H       
@<TRIPOS>BOND
   1    1    2 2
   2    1    4 am
   3    1   19 1
   4    3    4 1
   5    3   11 1
   6    3   44 1
   7    3   45 1
   8    4    5 1
   9    5    6 1
  10    5   46 1
  11    5   47 1
  12    6    7 ar
  13    6   11 ar
  14    7    8 ar
  15    7   48 1
  16    8    9 ar
  17    8   13 1
  18    9   10 ar
  19    9   49 1
  20   10   11 ar
  21   10   12 1
  22   12   50 1
  23   12   51 1
  24   12   52 1
  25   13   14 1
  26   14   15 1
  27   14   53 1
  28   14   54 1
  29   15   16 1
  30   15   55 1
  31   15   56 1
  32   16   17 1
  33   16   18 1
  34   17   57 1
  35   17   58 1
  36   17   59 1
  37   18   60 1
  38   18   61 1
  39   18   62 1
  40   19   20 ar
  41   19   24 ar
  42   20   21 ar
  43   20   36 1
  44   21   22 ar
  45   21   63 1
  46   22   23 ar
  47   22   28 1
  48   23   24 ar
  49   23   25 1
  50   24   64 1
  51   25   26 2
  52   25   27 1
  53   26   65 1
  54   26   66 1
  55   27   67 1
  56   27   68 1
  57   27   69 1
  58   28   29 1
  59   29   30 1
  60   29   70 1
  61   29   71 1
  62   30   31 ar
  63   30   35 ar
  64   31   32 ar
  65   31   72 1
  66   32   33 ar
  67   32   73 1
  68   33   34 ar
  69   33   74 1
  70   34   35 ar
  71   34   75 1
  72   35   76 1
  73   36   37 1
  74   37   38 1
  75   37   77 1
  76   37   78 1
  77   38   39 ar
  78   38   43 ar
  79   39   40 ar
  80   39   79 1
  81   40   41 ar
  82   40   80 1
  83   41   42 ar
  84   41   81 1
  85   42   43 ar
  86   42   82 1
  87   43   83 1

#	End of record

