#	Name: ASD05513025
#	Creating user name:	WinNT
#	Creation time:	15. 06. 2019 21:01

#	Modifying user name:	WinNT
#	Modification time:	15. 06. 2019 21:01

#	Program:	/corina/corina34_cracker 3.40 0067  02.08.2006

@<TRIPOS>MOLECULE
ASD05513025
  34   36    0    0    0
SMALL
NO_CHARGES


@<TRIPOS>ATOM
   1 C1            -0.0067     1.4284     0.3278 C.2     
   2 C2             0.0021    -0.0041     0.0020 C.2     
   3 C3             1.1834    -0.6674    -0.1155 C.2     
   4 C4             2.3846    -0.5240     0.7325 C.ar    
   5 C5             3.3413    -1.4137     0.2219 C.ar    
   6 N6             2.8095    -2.0867    -0.8736 N.am    
   7 C7             1.5463    -1.7003    -1.1214 C.2     
   8 C8             2.6812     0.2700     1.8393 C.ar    
   9 C9             3.9250     0.1776     2.4341 C.ar    
  10 C10            4.8707    -0.6996     1.9312 C.ar    
  11 C11            4.5859    -1.4908     0.8351 C.ar    
  12 O12            0.8316    -2.1153    -2.0122 O.2     
  13 O13            1.0364     2.0544     0.3466 O.2     
  14 C14           -1.2810     2.1092     0.6261 C.ar    
  15 Cl15           1.4938     1.3698     2.4670 Cl      
  16 C16           -1.2917     3.4732     0.9366 C.ar    
  17 C17           -2.4829     4.1044     1.2138 C.ar    
  18 C18           -3.6748     3.3882     1.1857 C.ar    
  19 C19           -3.6688     2.0319     0.8780 C.ar    
  20 C20           -2.4828     1.3939     0.5938 C.ar    
  21 O21           -4.8469     4.0145     1.4596 O.3     
  22 C22           -6.0335     3.2196     1.4130 C.3     
  23 H23           -0.9296    -0.5303    -0.1441 H       
  24 H24            3.2884    -2.7532    -1.3906 H       
  25 H25            4.1598     0.7906     3.2917 H       
  26 H26            5.8411    -0.7660     2.4006 H       
  27 H27            5.3329    -2.1710     0.4535 H       
  28 H28           -0.3666     4.0300     0.9590 H       
  29 H29           -2.4920     5.1573     1.4539 H       
  30 H30           -4.5966     1.4795     0.8576 H       
  31 H31           -2.4790     0.3407     0.3549 H       
  32 H32           -6.8967     3.8411     1.6512 H       
  33 H33           -6.1516     2.8013     0.4135 H       
  34 H34           -5.9573     2.4101     2.1390 H       
@<TRIPOS>BOND
   1    1    2 1
   2    1   13 2
   3    1   14 1
   4    2    3 2
   5    2   23 1
   6    3    4 1
   7    3    7 1
   8    4    5 ar
   9    4    8 ar
  10    5    6 1
  11    5   11 ar
  12    6    7 am
  13    6   24 1
  14    7   12 2
  15    8    9 ar
  16    8   15 1
  17    9   10 ar
  18    9   25 1
  19   10   11 ar
  20   10   26 1
  21   11   27 1
  22   14   16 ar
  23   14   20 ar
  24   16   17 ar
  25   16   28 1
  26   17   18 ar
  27   17   29 1
  28   18   19 ar
  29   18   21 1
  30   19   20 ar
  31   19   30 1
  32   20   31 1
  33   21   22 1
  34   22   32 1
  35   22   33 1
  36   22   34 1

#	End of record

