#	Name: ASD01912737
#	Creating user name:	WinNT
#	Creation time:	15. 06. 2019 20:00

#	Modifying user name:	WinNT
#	Modification time:	15. 06. 2019 20:00

#	Program:	/corina/corina34_cracker 3.40 0067  02.08.2006

@<TRIPOS>MOLECULE
ASD01912737
  45   48    0    0    0
SMALL
NO_CHARGES


@<TRIPOS>ATOM
   1 C1            -0.0165     1.3669     0.0096 C.2     
   2 N2             0.0021    -0.0041     0.0020 N.pl3   
   3 C3            -1.2021    -0.6918     0.0094 C.2     
   4 C4            -2.3630    -0.0492     0.0231 C.2     
   5 N5            -2.4358     1.3306     0.0307 N.am    
   6 C6            -1.3019     2.0667     0.0309 C.2     
   7 C7             1.3015     1.7836    -0.0008 C.2     
   8 C8             2.0550     0.6111    -0.0143 C.2     
   9 N9             1.2243    -0.4045    -0.0118 N.2     
  10 O10           -1.3489     3.2837     0.0376 O.2     
  11 C11           -3.6842     1.9664     0.0443 C.ar    
  12 C12            3.5595     0.5250    -0.0291 C.3     
  13 O13            4.1121     1.8428    -0.0273 O.3     
  14 C14            5.4673     1.9436    -0.0397 C.ar    
  15 C15            6.0712     3.1926    -0.0388 C.ar    
  16 C16            7.4490     3.2924    -0.0514 C.ar    
  17 C17            8.2260     2.1488    -0.0650 C.ar    
  18 C18            7.6265     0.9028    -0.0664 C.ar    
  19 C19            6.2492     0.7977    -0.0476 C.ar    
  20 C20           -4.3032     2.2807     1.2529 C.ar    
  21 C21           -5.5353     2.9088     1.2179 C.ar    
  22 N22           -5.4925     2.8957    -1.1393 N.ar    
  23 C23           -4.3175     2.2966    -1.1451 C.ar    
  24 C24           -6.1106     3.2035    -0.0113 C.ar    
  25 C25           -3.6553     1.9676    -2.4582 C.3     
  26 O26           -7.3195     3.8193    -0.0555 O.3     
  27 C27           -7.8596     4.0961    -1.3492 C.3     
  28 H28           -1.1950    -1.7718     0.0035 H       
  29 H29           -3.2786    -0.6220     0.0281 H       
  30 H30            1.6685     2.7994     0.0012 H       
  31 H31            3.9013    -0.0135     0.8548 H       
  32 H32            3.8843    -0.0040    -0.9251 H       
  33 H33            5.4647     4.0862    -0.0285 H       
  34 H34            7.9195     4.2645    -0.0511 H       
  35 H35            9.3030     2.2289    -0.0749 H       
  36 H36            8.2356     0.0110    -0.0778 H       
  37 H37            5.7814    -0.1758    -0.0487 H       
  38 H38           -3.8323     2.0392     2.1943 H       
  39 H39           -6.0436     3.1666     2.1352 H       
  40 H40           -3.0288     2.8037    -2.7688 H       
  41 H41           -3.0393     1.0759    -2.3411 H       
  42 H42           -4.4187     1.7850    -3.2145 H       
  43 H43           -8.8262     4.5883    -1.2417 H       
  44 H44           -7.1784     4.7486    -1.8954 H       
  45 H45           -7.9863     3.1626    -1.8974 H       
@<TRIPOS>BOND
   1    1    2 1
   2    1    7 2
   3    1    6 1
   4    2    3 1
   5    2    9 1
   6    3    4 2
   7    3   28 1
   8    4    5 1
   9    4   29 1
  10    5    6 am
  11    5   11 1
  12    6   10 2
  13    7    8 1
  14    7   30 1
  15    8    9 2
  16    8   12 1
  17   11   20 ar
  18   11   23 ar
  19   12   13 1
  20   12   31 1
  21   12   32 1
  22   13   14 1
  23   14   15 ar
  24   14   19 ar
  25   15   16 ar
  26   15   33 1
  27   16   17 ar
  28   16   34 1
  29   17   18 ar
  30   17   35 1
  31   18   19 ar
  32   18   36 1
  33   19   37 1
  34   20   21 ar
  35   20   38 1
  36   21   24 ar
  37   21   39 1
  38   22   23 ar
  39   22   24 ar
  40   23   25 1
  41   24   26 1
  42   25   40 1
  43   25   41 1
  44   25   42 1
  45   26   27 1
  46   27   43 1
  47   27   44 1
  48   27   45 1

#	End of record

