#	Name: ASD01900892
#	Creating user name:	WinNT
#	Creation time:	15. 06. 2019 19:52

#	Modifying user name:	WinNT
#	Modification time:	15. 06. 2019 19:52

#	Program:	/corina/corina34_cracker 3.40 0067  02.08.2006

@<TRIPOS>MOLECULE
ASD01900892
  37   39    0    0    0
SMALL
NO_CHARGES


@<TRIPOS>ATOM
   1 C1            -0.0167     1.3800     0.0096 C.ar    
   2 C2             0.0021    -0.0041     0.0020 C.ar    
   3 C3            -1.1879    -0.7122     0.0095 C.ar    
   4 C4            -2.3940    -0.0375     0.0246 C.ar    
   5 C5            -2.4140     1.3444     0.0318 C.ar    
   6 C6            -1.2252     2.0546     0.0306 C.ar    
   7 F7            -1.2450     3.4054     0.0381 F       
   8 C8             1.2777     2.1517     0.0014 C.3     
   9 S9             1.7807     2.4706    -1.7120 S.o2    
  10 C10            3.2897     3.3686    -1.5674 C.2     
  11 O11            2.1537     1.2599    -2.3557 O.2     
  12 O12            0.8869     3.3848    -2.3322 O.2     
  13 C13            4.5141     2.8404    -1.5133 C.2     
  14 N14            5.4886     3.7239    -1.4051 N.2     
  15 C15            5.1460     4.9736    -1.3651 C.2     
  16 S16            3.4463     5.1210    -1.4766 S.3     
  17 N17            6.0311     6.0379    -1.2537 N.am    
  18 C18            7.3568     5.8069    -1.1787 C.2     
  19 O19            7.7776     4.6672    -1.2084 O.2     
  20 C20            8.3008     6.9420    -1.0599 C.ar    
  21 N21            7.8353     8.1846    -1.0279 N.ar    
  22 C22            8.6394     9.2201    -0.9228 C.ar    
  23 C23           10.0120     9.0499    -0.8412 C.ar    
  24 C24           10.5410     7.7688    -0.8710 C.ar    
  25 C25            9.6699     6.6962    -0.9769 C.ar    
  26 F26            1.1809    -0.6638    -0.0132 F       
  27 H27           -1.1735    -1.7920     0.0032 H       
  28 H28           -3.3216    -0.5906     0.0305 H       
  29 H29           -3.3571     1.8706     0.0429 H       
  30 H30            1.1389     3.0994     0.5217 H       
  31 H31            2.0504     1.5706     0.5048 H       
  32 H32            4.6930     1.7761    -1.5547 H       
  33 H33            5.6953     6.9476    -1.2300 H       
  34 H34            8.2240    10.2168    -0.9003 H       
  35 H35           10.6636     9.9069    -0.7555 H       
  36 H36           11.6075     7.6100    -0.8092 H       
  37 H37           10.0473     5.6846    -1.0029 H       
@<TRIPOS>BOND
   1    1    2 ar
   2    1    8 1
   3    1    6 ar
   4    2    3 ar
   5    2   26 1
   6    3    4 ar
   7    3   27 1
   8    4    5 ar
   9    4   28 1
  10    5    6 ar
  11    5   29 1
  12    6    7 1
  13    8    9 1
  14    8   30 1
  15    8   31 1
  16    9   10 1
  17    9   11 2
  18    9   12 2
  19   10   13 2
  20   10   16 1
  21   13   14 1
  22   13   32 1
  23   14   15 2
  24   15   16 1
  25   15   17 1
  26   17   18 am
  27   17   33 1
  28   18   19 2
  29   18   20 1
  30   20   21 ar
  31   20   25 ar
  32   21   22 ar
  33   22   23 ar
  34   22   34 1
  35   23   24 ar
  36   23   35 1
  37   24   25 ar
  38   24   36 1
  39   25   37 1

#	End of record

