#	Name: ASD01917491
#	Creating user name:	WinNT
#	Creation time:	15. 06. 2019 20:09

#	Modifying user name:	WinNT
#	Modification time:	15. 06. 2019 20:09

#	Program:	/corina/corina34_cracker 3.40 0067  02.08.2006

@<TRIPOS>MOLECULE
ASD01917491
  47   50    0    0    0
SMALL
NO_CHARGES


@<TRIPOS>ATOM
   1 S1            -0.0218     1.7567     0.0117 S.3     
   2 C2             0.0021    -0.0041     0.0020 C.2     
   3 N3             1.2427    -0.4104    -0.0120 N.2     
   4 C4             2.1514     0.5291    -0.0156 C.2     
   5 C5             1.6885     1.7890    -0.0045 C.2     
   6 C6            -1.1843    -0.8763     0.0091 C.2     
   7 O7            -2.2981    -0.3879     0.0228 O.2     
   8 N8            -1.0360    -2.2158     0.0004 N.am    
   9 C9            -2.2163    -3.0836     0.0075 C.3     
  10 C10           -3.1092    -2.8549     1.2396 C.3     
  11 C11           -4.4202    -3.6216     1.0546 C.3     
  12 C12           -4.1385    -5.1038     0.8010 C.3     
  13 C13           -3.2014    -5.2356    -0.4124 C.3     
  14 C14           -3.7363    -4.2929    -1.5150 C.3     
  15 C15           -3.1010    -2.8956    -1.2465 C.3     
  16 C16           -1.8504    -4.5913    -0.0038 C.3     
  17 C17           -4.1569    -7.3078    -1.2670 C.2     
  18 O18           -5.2505    -6.7784    -1.2444 O.2     
  19 N19           -3.0674    -6.6207    -0.8705 N.am    
  20 C20           -4.0214    -8.7084    -1.7303 C.ar    
  21 C21           -5.1473    -9.4212    -2.1410 C.ar    
  22 N22           -2.8246    -9.2879    -1.7610 N.ar    
  23 N23           -5.0213   -10.6695    -2.5537 N.ar    
  24 C24           -3.8306   -11.2420    -2.5774 C.ar    
  25 C25           -2.7078   -10.5340    -2.1742 C.ar    
  26 C26           -1.3519   -11.1908    -2.2091 C.3     
  27 H27            3.2080     0.3057    -0.0266 H       
  28 H28            2.2983     2.6804    -0.0062 H       
  29 H29           -0.1477    -2.6054    -0.0105 H       
  30 H30           -2.5984    -3.2161     2.1322 H       
  31 H31           -3.3207    -1.7908     1.3443 H       
  32 H32           -5.0282    -3.5186     1.9534 H       
  33 H33           -4.9635    -3.2072     0.2054 H       
  34 H34           -3.6620    -5.5399     1.6789 H       
  35 H35           -5.0748    -5.6232     0.5967 H       
  36 H36           -3.4359    -4.6572    -2.4974 H       
  37 H37           -4.8226    -4.2257    -1.4558 H       
  38 H38           -3.8808    -2.1602    -1.0481 H       
  39 H39           -2.4906    -2.5764    -2.0912 H       
  40 H40           -1.0688    -4.7984    -0.7348 H       
  41 H41           -1.5538    -4.9290     0.9893 H       
  42 H42           -2.1944    -7.0432    -0.8885 H       
  43 H43           -6.1206    -8.9535    -2.1213 H       
  44 H44           -3.7307   -12.2629    -2.9153 H       
  45 H45           -1.1611   -11.6812    -1.2545 H       
  46 H46           -1.3270   -11.9307    -3.0091 H       
  47 H47           -0.5868   -10.4355    -2.3888 H       
@<TRIPOS>BOND
   1    1    2 1
   2    1    5 1
   3    2    3 2
   4    2    6 1
   5    3    4 1
   6    4    5 2
   7    4   27 1
   8    5   28 1
   9    6    7 2
  10    6    8 am
  11    8    9 1
  12    8   29 1
  13    9   10 1
  14    9   15 1
  15    9   16 1
  16   10   11 1
  17   10   30 1
  18   10   31 1
  19   11   12 1
  20   11   32 1
  21   11   33 1
  22   12   13 1
  23   12   34 1
  24   12   35 1
  25   13   14 1
  26   13   16 1
  27   13   19 1
  28   14   15 1
  29   14   36 1
  30   14   37 1
  31   15   38 1
  32   15   39 1
  33   16   40 1
  34   16   41 1
  35   17   18 2
  36   17   19 am
  37   17   20 1
  38   19   42 1
  39   20   21 ar
  40   20   22 ar
  41   21   23 ar
  42   21   43 1
  43   22   25 ar
  44   23   24 ar
  45   24   25 ar
  46   24   44 1
  47   25   26 1
  48   26   45 1
  49   26   46 1
  50   26   47 1

#	End of record

