#	Name: ASD02500108
#	Creating user name:	WinNT
#	Creation time:	15. 06. 2019 20:22

#	Modifying user name:	WinNT
#	Modification time:	15. 06. 2019 20:22

#	Program:	/corina/corina34_cracker 3.40 0067  02.08.2006

@<TRIPOS>MOLECULE
ASD02500108
  65   69    0    0    0
SMALL
NO_CHARGES


@<TRIPOS>ATOM
   1 N1            -3.4627     6.0432    -2.0689 N.ar    
   2 C2            -4.0535     6.6770    -3.0526 C.ar    
   3 C3            -5.4416     6.7496    -3.1493 C.ar    
   4 C4            -6.2231     6.1499    -2.2032 C.ar    
   5 C5            -5.5852     5.4698    -1.1485 C.ar    
   6 C6            -6.3222     4.8300    -0.1394 C.ar    
   7 C7            -5.6679     4.1828     0.8643 C.ar    
   8 C8            -4.2757     4.1474     0.9037 C.ar    
   9 C9            -3.5301     4.7569    -0.0581 C.ar    
  10 C10           -4.1690     5.4351    -1.1105 C.ar    
  11 S11           -1.7707     4.6969     0.0163 S.o2    
  12 O12           -1.3151     6.0280    -0.1838 O.2     
  13 O13           -1.4437     3.9280     1.1657 O.2     
  14 N14           -1.2541     3.8241    -1.2927 N.am    
  15 C15           -1.5920     2.4803    -1.4095 C.ar    
  16 C16           -2.0781     1.9892    -2.6175 C.ar    
  17 C17           -2.4137     0.6584    -2.7363 C.ar    
  18 C18           -2.2649    -0.1991    -1.6403 C.ar    
  19 C19           -1.7761     0.2989    -0.4288 C.ar    
  20 C20           -1.4377     1.6281    -0.3192 C.ar    
  21 C21           -2.6233    -1.6241    -1.7628 C.2     
  22 O22           -3.7364    -1.9412    -2.1359 O.2     
  23 N23           -1.7172    -2.5751    -1.4613 N.am    
  24 C24           -2.0518    -3.9241    -1.6778 C.3     
  25 C25           -1.9544    -4.7266    -0.3554 C.3     
  26 N26           -0.5550    -4.8907    -0.0187 N.3     
  27 C27           -0.0044    -3.8729     0.9003 C.3     
  28 C28           -0.4422    -2.4474     0.5679 C.3     
  29 C29           -0.4055    -2.1637    -0.9208 C.3     
  30 C30           -0.3012    -6.1833     0.4543 C.ar    
  31 C31            0.5411    -7.0350    -0.2579 C.ar    
  32 C32            0.7890    -8.3125     0.2150 C.ar    
  33 C33            0.2010    -8.7412     1.3914 C.ar    
  34 C34           -0.6349    -7.8974     2.0981 C.ar    
  35 C35           -0.8828    -6.6180     1.6359 C.ar    
  36 O36            1.1180    -6.6125    -1.4148 O.3     
  37 C37            1.9697    -7.5393    -2.0913 C.3     
  38 Cl38          -3.0207     0.0460    -4.2431 Cl      
  39 H39           -3.4483     7.1560    -3.8080 H       
  40 H40           -5.8992     7.2799    -3.9714 H       
  41 H41           -7.3005     6.1965    -2.2624 H       
  42 H42           -7.4018     4.8512    -0.1588 H       
  43 H43           -6.2356     3.6909     1.6402 H       
  44 H44           -3.7801     3.6281     1.7106 H       
  45 H45           -0.7158     4.2502    -1.9779 H       
  46 H46           -2.1928     2.6521    -3.4624 H       
  47 H47           -1.6601    -0.3601     0.4189 H       
  48 H48           -1.0559     2.0119     0.6153 H       
  49 H49           -3.0703    -3.9849    -2.0613 H       
  50 H50           -1.3664    -4.3518    -2.4095 H       
  51 H51           -2.4613    -4.1823     0.4414 H       
  52 H52           -2.4168    -5.7050    -0.4859 H       
  53 H53           -0.3259    -4.1088     1.9147 H       
  54 H54            1.0838    -3.9212     0.8623 H       
  55 H55           -1.4584    -2.2964     0.9323 H       
  56 H56            0.2205    -1.7472     1.0765 H       
  57 H57            0.3894    -2.7419    -1.3920 H       
  58 H58           -0.2475    -1.0996    -1.0964 H       
  59 H59            1.4414    -8.9746    -0.3349 H       
  60 H60            0.3953    -9.7382     1.7584 H       
  61 H61           -1.0924    -8.2367     3.0157 H       
  62 H62           -1.5328    -5.9591     2.1924 H       
  63 H63            2.7957    -7.8179    -1.4369 H       
  64 H64            1.3998    -8.4298    -2.3564 H       
  65 H65            2.3634    -7.0770    -2.9965 H       
@<TRIPOS>BOND
   1    1    2 ar
   2    1   10 ar
   3    2    3 ar
   4    2   39 1
   5    3    4 ar
   6    3   40 1
   7    4    5 ar
   8    4   41 1
   9    5    6 ar
  10    5   10 ar
  11    6    7 ar
  12    6   42 1
  13    7    8 ar
  14    7   43 1
  15    8    9 ar
  16    8   44 1
  17    9   10 ar
  18    9   11 1
  19   11   12 2
  20   11   13 2
  21   11   14 am
  22   14   15 1
  23   14   45 1
  24   15   16 ar
  25   15   20 ar
  26   16   17 ar
  27   16   46 1
  28   17   18 ar
  29   17   38 1
  30   18   19 ar
  31   18   21 1
  32   19   20 ar
  33   19   47 1
  34   20   48 1
  35   21   22 2
  36   21   23 am
  37   23   24 1
  38   23   29 1
  39   24   25 1
  40   24   49 1
  41   24   50 1
  42   25   26 1
  43   25   51 1
  44   25   52 1
  45   26   27 1
  46   26   30 1
  47   27   28 1
  48   27   53 1
  49   27   54 1
  50   28   29 1
  51   28   55 1
  52   28   56 1
  53   29   57 1
  54   29   58 1
  55   30   31 ar
  56   30   35 ar
  57   31   32 ar
  58   31   36 1
  59   32   33 ar
  60   32   59 1
  61   33   34 ar
  62   33   60 1
  63   34   35 ar
  64   34   61 1
  65   35   62 1
  66   36   37 1
  67   37   63 1
  68   37   64 1
  69   37   65 1

#	End of record

