#	Name: ASD05430047
#	Creating user name:	WinNT
#	Creation time:	15. 06. 2019 20:59

#	Modifying user name:	WinNT
#	Modification time:	15. 06. 2019 20:59

#	Program:	/corina/corina34_cracker 3.40 0067  02.08.2006

@<TRIPOS>MOLECULE
ASD05430047
  61   67    0    0    0
SMALL
NO_CHARGES


@<TRIPOS>ATOM
   1 C1            -0.0005     1.3002     0.0422 C.ar    
   2 C2             0.0297    -0.0485    -0.3153 C.ar    
   3 C3             1.2401    -0.6781    -0.5739 C.ar    
   4 C4             2.4192     0.0267    -0.4787 C.ar    
   5 C5             2.3956     1.3776    -0.1216 C.ar    
   6 C6             1.1700     2.0108     0.1391 C.ar    
   7 O7             4.9125     0.1142     0.2252 O.3     
   8 C8             4.8301     1.4797     0.0698 C.2     
   9 C9             3.6532     2.1348    -0.0182 C.2     
  10 C10            5.9139    -0.3422     1.1351 C.3     
  11 C11            7.3347     0.0917     0.7642 C.3     
  12 N12            7.3030     1.5134     0.4238 N.pl3   
  13 C13            6.1408     2.1725     0.0072 C.2     
  14 C14           -1.5609    -1.5564    -1.4655 C.2     
  15 N15           -1.1669    -0.7708    -0.4132 N.pl3   
  16 C16           -2.7678    -2.0606    -1.1454 C.2     
  17 N17           -3.1063    -1.5989     0.0676 N.2     
  18 C18           -2.1557    -0.8254     0.5167 C.2     
  19 C19           -3.5955    -2.9836    -2.0022 C.3     
  20 C20            8.3621     2.5186     0.4500 C.3     
  21 O21            7.8219     3.5875    -0.3562 O.3     
  22 N22            6.4202     3.3568    -0.4138 N.2     
  23 C23            8.6135     2.9899     1.8591 C.ar    
  24 C24            9.6457     1.9672    -0.1739 C.3     
  25 O25           10.6951     2.9264    -0.0306 O.3     
  26 C26            8.2966     2.1722     2.9278 C.ar    
  27 C27            9.1662     4.2373     2.0819 C.ar    
  28 C28            9.3981     4.6703     3.3737 C.ar    
  29 C29            9.0762     3.8543     4.4450 C.ar    
  30 C30            8.5272     2.6032     4.2205 C.ar    
  31 F31            9.3025     4.2765     5.7082 F       
  32 C32            0.4567     3.2787     0.5265 C.3     
  33 C33           -0.8419     2.4919     0.4154 C.3     
  34 C34            5.5652    -0.0879     2.6087 C.3     
  35 O35            4.9835    -1.4078     2.5779 O.3     
  36 C36            5.8025    -1.8366     1.4703 C.3     
  37 H37            1.2567    -1.7221    -0.8498 H       
  38 H38            3.3604    -0.4636    -0.6793 H       
  39 H39            3.6345     3.2146    -0.0126 H       
  40 H40            8.0014    -0.0689     1.6115 H       
  41 H41            7.6832    -0.4841    -0.0932 H       
  42 H42           -1.0109    -1.7333    -2.3780 H       
  43 H43           -2.1552    -0.3146     1.4682 H       
  44 H44           -3.3403    -4.0182    -1.7732 H       
  45 H45           -4.6533    -2.8168    -1.7991 H       
  46 H46           -3.3915    -2.7833    -3.0540 H       
  47 H47            9.9269     1.0429     0.3307 H       
  48 H48            9.4784     1.7670    -1.2322 H       
  49 H49           11.5407     2.6431    -0.4046 H       
  50 H50            7.8684     1.1964     2.7525 H       
  51 H51            9.4172     4.8736     1.2461 H       
  52 H52            9.8306     5.6445     3.5475 H       
  53 H53            8.2754     1.9660     5.0553 H       
  54 H54            0.6813     3.6140     1.5390 H       
  55 H55            0.5472     4.0739    -0.2135 H       
  56 H56           -1.4939     2.8370    -0.3871 H       
  57 H57           -1.3638     2.3748     1.3651 H       
  58 H58            6.4352    -0.0041     3.2600 H       
  59 H59            4.8391     0.7110     2.7590 H       
  60 H60            5.2636    -2.4178     0.7220 H       
  61 H61            6.7458    -2.2933     1.7697 H       
@<TRIPOS>BOND
   1    1    2 ar
   2    1    6 ar
   3    1   33 1
   4    2    3 ar
   5    2   15 1
   6    3    4 ar
   7    3   37 1
   8    4    5 ar
   9    4   38 1
  10    5    6 ar
  11    5    9 1
  12    6   32 1
  13    7    8 1
  14    7   10 1
  15    8    9 2
  16    8   13 1
  17    9   39 1
  18   10   11 1
  19   10   34 1
  20   10   36 1
  21   11   12 1
  22   11   40 1
  23   11   41 1
  24   12   13 1
  25   12   20 1
  26   13   22 2
  27   14   15 1
  28   14   16 2
  29   14   42 1
  30   15   18 1
  31   16   17 1
  32   16   19 1
  33   17   18 2
  34   18   43 1
  35   19   44 1
  36   19   45 1
  37   19   46 1
  38   20   21 1
  39   20   23 1
  40   20   24 1
  41   21   22 1
  42   23   26 ar
  43   23   27 ar
  44   24   25 1
  45   24   47 1
  46   24   48 1
  47   25   49 1
  48   26   30 ar
  49   26   50 1
  50   27   28 ar
  51   27   51 1
  52   28   29 ar
  53   28   52 1
  54   29   30 ar
  55   29   31 1
  56   30   53 1
  57   32   33 1
  58   32   54 1
  59   32   55 1
  60   33   56 1
  61   33   57 1
  62   34   35 1
  63   34   58 1
  64   34   59 1
  65   35   36 1
  66   36   60 1
  67   36   61 1

#	End of record

