#	Name: ASD04880700
#	Creating user name:	WinNT
#	Creation time:	15. 06. 2019 20:53

#	Modifying user name:	WinNT
#	Modification time:	15. 06. 2019 20:53

#	Program:	/corina/corina34_cracker 3.40 0067  02.08.2006

@<TRIPOS>MOLECULE
ASD04880700
  58   61    0    0    0
SMALL
NO_CHARGES


@<TRIPOS>ATOM
   1 O1            -0.0173     1.4248     0.0099 O.3     
   2 C2             0.0021    -0.0041     0.0020 C.3     
   3 C3             0.2081     5.5976     0.0301 C.3     
   4 O4             0.0804     4.1743     0.0302 O.3     
   5 C5             1.2319     3.4511     0.0088 C.ar    
   6 C6             1.1853     2.0583     0.0018 C.ar    
   7 C7             2.4577     4.0937    -0.0118 C.ar    
   8 C8             3.6267     3.3416    -0.0294 C.ar    
   9 C9             3.5868     1.9415    -0.0187 C.ar    
  10 C10            2.3530     1.3136    -0.0129 C.ar    
  11 C11            4.9573     3.9775    -0.0702 C.2     
  12 C12            6.1872     3.1668     0.3326 C.3     
  13 C13            6.0835     1.8585    -0.4504 C.3     
  14 C14            4.8341     1.1044     0.0005 C.3     
  15 N15            5.3215     5.1483    -0.4201 N.2     
  16 N16            6.7068     5.3219    -0.4683 N.am    
  17 C17            7.3569     4.0449    -0.1160 C.3     
  18 C18            8.3524     4.2438     1.0287 C.3     
  19 C19            8.0505     3.4376    -1.3370 C.3     
  20 C20            7.3442     6.4665    -0.7846 C.2     
  21 C21            6.5507     7.7015    -1.1252 C.3     
  22 O22            8.5568     6.5025    -0.7952 O.2     
  23 C23            5.7763     8.1512     0.0869 C.ar    
  24 C24            4.4627     7.7545     0.2542 C.ar    
  25 C25            3.7524     8.1670     1.3660 C.ar    
  26 C26            4.3558     8.9759     2.3108 C.ar    
  27 C27            5.6697     9.3718     2.1439 C.ar    
  28 C28            6.3814     8.9558     1.0343 C.ar    
  29 O29            7.4408     8.7417    -1.5347 O.3     
  30 C30            6.8738     9.6547    -2.4765 C.3     
  31 H31           -1.0205    -0.3814     0.0098 H       
  32 H32            0.5123    -0.3556    -0.8948 H       
  33 H33            0.5293    -0.3651     0.8851 H       
  34 H34            0.7365     5.9149    -0.8689 H       
  35 H35           -0.7829     6.0513     0.0483 H       
  36 H36            0.7679     5.9122     0.9108 H       
  37 H37            2.5056     5.1726    -0.0146 H       
  38 H38            2.3005     0.2349    -0.0195 H       
  39 H39            6.2071     2.9824     1.4067 H       
  40 H40            6.0131     2.0762    -1.5162 H       
  41 H41            6.9664     1.2484    -0.2594 H       
  42 H42            4.9940     0.7401     1.0153 H       
  43 H43            4.6886     0.2466    -0.6561 H       
  44 H44            8.7397     3.2756     1.3457 H       
  45 H45            9.1764     4.8711     0.6887 H       
  46 H46            7.8503     4.7265     1.8671 H       
  47 H47            7.3368     3.3551    -2.1567 H       
  48 H48            8.8793     4.0775    -1.6398 H       
  49 H49            8.4296     2.4473    -1.0843 H       
  50 H50            5.8579     7.4761    -1.9359 H       
  51 H51            3.9913     7.1225    -0.4839 H       
  52 H52            2.7259     7.8576     1.4964 H       
  53 H53            3.8007     9.2987     3.1791 H       
  54 H54            6.1410    10.0040     2.8819 H       
  55 H55            7.4090     9.2621     0.9058 H       
  56 H56            7.6119    10.4134    -2.7367 H       
  57 H57            6.5775     9.1128    -3.3747 H       
  58 H58            5.9994    10.1342    -2.0365 H       
@<TRIPOS>BOND
   1    1    2 1
   2    1    6 1
   3    2   31 1
   4    2   32 1
   5    2   33 1
   6    3    4 1
   7    3   34 1
   8    3   35 1
   9    3   36 1
  10    4    5 1
  11    5    7 ar
  12    5    6 ar
  13    6   10 ar
  14    7    8 ar
  15    7   37 1
  16    8   11 1
  17    8    9 ar
  18    9   10 ar
  19    9   14 1
  20   10   38 1
  21   11   15 2
  22   11   12 1
  23   12   13 1
  24   12   17 1
  25   12   39 1
  26   13   14 1
  27   13   40 1
  28   13   41 1
  29   14   42 1
  30   14   43 1
  31   15   16 1
  32   16   17 1
  33   16   20 am
  34   17   18 1
  35   17   19 1
  36   18   44 1
  37   18   45 1
  38   18   46 1
  39   19   47 1
  40   19   48 1
  41   19   49 1
  42   20   22 2
  43   20   21 1
  44   21   23 1
  45   21   29 1
  46   21   50 1
  47   23   24 ar
  48   23   28 ar
  49   24   25 ar
  50   24   51 1
  51   25   26 ar
  52   25   52 1
  53   26   27 ar
  54   26   53 1
  55   27   28 ar
  56   27   54 1
  57   28   55 1
  58   29   30 1
  59   30   56 1
  60   30   57 1
  61   30   58 1

#	End of record

