#	Name: ASD00061058
#	Creating user name:	WinNT
#	Creation time:	15. 06. 2019 18:29

#	Modifying user name:	WinNT
#	Modification time:	15. 06. 2019 18:29

#	Program:	/corina/corina34_cracker 3.40 0067  02.08.2006

@<TRIPOS>MOLECULE
ASD00061058
  48   51    0    0    0
SMALL
NO_CHARGES


@<TRIPOS>ATOM
   1 C1            -0.0184     1.5028     0.0103 C.ar    
   2 C2             0.0021    -0.0041     0.0020 C.3     
   3 C3            -0.7002    -0.5305     1.2552 C.3     
   4 C4            -0.5729    -2.0312     1.3094 C.2     
   5 O5             0.0210    -2.6214     0.4322 O.2     
   6 C6            -1.1691    -2.7800     2.4264 C.ar    
   7 C7            -1.0494    -4.1659     2.4729 C.ar    
   8 C8            -1.6189    -4.8694     3.5379 C.ar    
   9 C9            -2.3074    -4.1619     4.5510 C.ar    
  10 C10           -2.4137    -2.7694     4.4828 C.ar    
  11 C11           -1.8515    -2.0920     3.4439 C.ar    
  12 C12           -0.7241    -0.5171    -1.2431 C.3     
  13 C13            1.1693     2.2102     0.0028 C.ar    
  14 C14            1.1505     3.5924     0.0104 C.ar    
  15 C15           -0.0559     4.2672     0.0251 C.ar    
  16 C16           -1.2435     3.5598     0.0318 C.ar    
  17 C17           -1.2248     2.1776     0.0197 C.ar    
  18 C18           -2.8980    -4.9174     5.6593 C.ar    
  19 C19           -2.7638    -6.3233     5.6843 C.ar    
  20 C20           -2.0672    -6.9943     4.6522 C.ar    
  21 C21           -1.5149    -6.3224     3.6213 C.ar    
  22 C22           -3.5886    -4.2690     6.6872 C.ar    
  23 C23           -4.1279    -4.9990     7.7070 C.ar    
  24 C24           -3.9977    -6.3827     7.7355 C.ar    
  25 C25           -3.3305    -7.0437     6.7467 C.ar    
  26 C26            0.0370    -0.1013    -2.4756 C.2     
  27 O27            1.0557     0.5396    -2.3690 O.2     
  28 O28           -0.4168    -0.4430    -3.6917 O.3     
  29 H29            1.0345    -0.3534    -0.0097 H       
  30 H30           -0.2382    -0.0945     2.1409 H       
  31 H31           -1.7547    -0.2563     1.2231 H       
  32 H32           -0.5211    -4.6934     1.6924 H       
  33 H33           -2.9396    -2.2301     5.2567 H       
  34 H34           -1.9340    -1.0161     3.3997 H       
  35 H35           -0.7871    -1.6046    -1.2047 H       
  36 H36           -1.7288    -0.0959    -1.2772 H       
  37 H37            2.1118     1.6830    -0.0087 H       
  38 H38            2.0784     4.1450     0.0052 H       
  39 H39           -0.0705     5.3471     0.0318 H       
  40 H40           -2.1860     4.0870     0.0436 H       
  41 H41           -2.1526     1.6249     0.0249 H       
  42 H42           -1.9756    -8.0697     4.6904 H       
  43 H43           -0.9897    -6.8656     2.8497 H       
  44 H44           -3.6949    -3.1943     6.6748 H       
  45 H45           -4.6611    -4.4962     8.5002 H       
  46 H46           -4.4314    -6.9419     8.5513 H       
  47 H47           -3.2372    -8.1190     6.7821 H       
  48 H48            0.1054    -0.1536    -4.4524 H       
@<TRIPOS>BOND
   1    1    2 1
   2    1   13 ar
   3    1   17 ar
   4    2    3 1
   5    2   12 1
   6    2   29 1
   7    3    4 1
   8    3   30 1
   9    3   31 1
  10    4    5 2
  11    4    6 1
  12    6    7 ar
  13    6   11 ar
  14    7    8 ar
  15    7   32 1
  16    8    9 ar
  17    8   21 ar
  18    9   10 ar
  19    9   18 ar
  20   10   11 ar
  21   10   33 1
  22   11   34 1
  23   12   26 1
  24   12   35 1
  25   12   36 1
  26   13   14 ar
  27   13   37 1
  28   14   15 ar
  29   14   38 1
  30   15   16 ar
  31   15   39 1
  32   16   17 ar
  33   16   40 1
  34   17   41 1
  35   18   19 ar
  36   18   22 ar
  37   19   20 ar
  38   19   25 ar
  39   20   21 ar
  40   20   42 1
  41   21   43 1
  42   22   23 ar
  43   22   44 1
  44   23   24 ar
  45   23   45 1
  46   24   25 ar
  47   24   46 1
  48   25   47 1
  49   26   27 2
  50   26   28 1
  51   28   48 1

#	End of record

