#	Name: ASD02390004
#	Creating user name:	WinNT
#	Creation time:	15. 06. 2019 20:20

#	Modifying user name:	WinNT
#	Modification time:	15. 06. 2019 20:20

#	Program:	/corina/corina34_cracker 3.40 0067  02.08.2006

@<TRIPOS>MOLECULE
ASD02390004
  45   47    0    0    0
SMALL
NO_CHARGES


@<TRIPOS>ATOM
   1 C1            -0.0165     1.3624     0.0095 C.2     
   2 C2             0.0021    -0.0041     0.0020 C.2     
   3 C3            -1.3253    -0.6003     0.0137 C.2     
   4 C4            -2.2946     0.3183     0.0249 C.2     
   5 S5            -1.6163     1.9411     0.0353 S.3     
   6 C6             1.2366    -0.7911    -0.0160 C.2     
   7 O7             1.7924    -1.1469    -1.1924 O.3     
   8 O8             1.7610    -1.1240     1.0299 O.2     
   9 C9             3.0159    -1.9268    -1.1343 C.3     
  10 N10            1.1118     2.1655     0.0031 N.am    
  11 C11            0.9839     3.5072     0.0115 C.2     
  12 O12           -0.1218     4.0124     0.0248 O.2     
  13 C13            2.1869     4.3636     0.0046 C.ar    
  14 C14            3.4934    -2.2330    -2.5552 C.3     
  15 C15            2.0573     5.7543     0.0133 C.ar    
  16 C16            3.1836     6.5488     0.0073 C.ar    
  17 C17            4.4435     5.9700    -0.0073 C.ar    
  18 C18            4.5779     4.5899    -0.0165 C.ar    
  19 C19            3.4585     3.7858    -0.0048 C.ar    
  20 F20            5.5441     6.7534    -0.0132 F       
  21 C21           -1.5577    -2.1015     0.0228 C.3     
  22 C22           -2.9022    -2.4278    -0.6202 C.3     
  23 C23           -3.9950    -2.4254     0.4465 C.3     
  24 C24           -4.0981    -1.0404     1.0793 C.3     
  25 C25           -3.7795     0.0197     0.0265 C.3     
  26 H26            3.7834    -1.3599    -0.6073 H       
  27 H27            2.8265    -2.8609    -0.6053 H       
  28 H28            1.9940     1.7625    -0.0075 H       
  29 H29            4.4118    -2.8185    -2.5116 H       
  30 H30            2.7259    -2.7999    -3.0822 H       
  31 H31            3.6827    -1.2990    -3.0841 H       
  32 H32            1.0765     6.2062     0.0244 H       
  33 H33            3.0845     7.6243     0.0137 H       
  34 H34            5.5616     4.1443    -0.0283 H       
  35 H35            3.5644     2.7110    -0.0115 H       
  36 H36           -0.7613    -2.5940    -0.5352 H       
  37 H37           -1.5521    -2.4620     1.0514 H       
  38 H38           -3.1332    -1.6791    -1.3780 H       
  39 H39           -2.8523    -3.4118    -1.0863 H       
  40 H40           -4.9490    -2.6862    -0.0116 H       
  41 H41           -3.7517    -3.1580     1.2160 H       
  42 H42           -5.1093    -0.8868     1.4561 H       
  43 H43           -3.3868    -0.9621     1.9015 H       
  44 H44           -4.3317     0.9318     0.2529 H       
  45 H45           -4.0759    -0.3461    -0.9565 H       
@<TRIPOS>BOND
   1    1    2 2
   2    1   10 1
   3    1    5 1
   4    2    3 1
   5    2    6 1
   6    3    4 2
   7    3   21 1
   8    4    5 1
   9    4   25 1
  10    6    7 1
  11    6    8 2
  12    7    9 1
  13    9   14 1
  14    9   26 1
  15    9   27 1
  16   10   11 am
  17   10   28 1
  18   11   12 2
  19   11   13 1
  20   13   15 ar
  21   13   19 ar
  22   14   29 1
  23   14   30 1
  24   14   31 1
  25   15   16 ar
  26   15   32 1
  27   16   17 ar
  28   16   33 1
  29   17   18 ar
  30   17   20 1
  31   18   19 ar
  32   18   34 1
  33   19   35 1
  34   21   22 1
  35   21   36 1
  36   21   37 1
  37   22   23 1
  38   22   38 1
  39   22   39 1
  40   23   24 1
  41   23   40 1
  42   23   41 1
  43   24   25 1
  44   24   42 1
  45   24   43 1
  46   25   44 1
  47   25   45 1

#	End of record

