#	Name: ASD01208692
#	Creating user name:	WinNT
#	Creation time:	15. 06. 2019 19:10

#	Modifying user name:	WinNT
#	Modification time:	15. 06. 2019 19:10

#	Program:	/corina/corina34_cracker 3.40 0067  02.08.2006

@<TRIPOS>MOLECULE
ASD01208692
  57   61    0    0    0
SMALL
NO_CHARGES


@<TRIPOS>ATOM
   1 C1            -0.5126     1.4587     1.4863 C.2     
   2 C2            -0.3529     0.1484     0.8208 C.ar    
   3 C3            -1.4370    -0.7252     0.7263 C.ar    
   4 C4            -1.2829    -1.9519     0.1020 C.ar    
   5 C5            -0.0524    -2.3128    -0.4288 C.ar    
   6 C6             1.0277    -1.4474    -0.3371 C.ar    
   7 C7             0.8807    -0.2160     0.2803 C.ar    
   8 O8             0.4329     2.2183     1.5676 O.2     
   9 N9            -1.7079     1.8134     1.9980 N.am    
  10 S10           -3.3116     3.6212     3.3143 S.3     
  11 C11           -1.8580     3.0445     2.6233 C.2     
  12 N12           -0.9161     3.9234     2.7683 N.2     
  13 C13           -1.2345     5.0434     3.3899 C.2     
  14 C14           -2.5059     5.1142     3.7891 C.2     
  15 O15            2.2306    -1.8059    -0.8581 O.3     
  16 C16            2.3099    -3.0875    -1.4854 C.3     
  17 C17            3.7304    -3.3128    -2.0073 C.3     
  18 C18            4.7372    -3.4209    -0.8353 C.3     
  19 C19            5.8970    -4.2184    -1.4050 C.2     
  20 C20            5.3583    -5.0336    -2.5621 C.3     
  21 C21            3.8560    -4.7029    -2.6810 C.3     
  22 O22            7.0377    -4.2048    -1.0091 O.2     
  23 O23           -2.3379    -2.8034     0.0094 O.3     
  24 C24           -3.1557    -2.6906    -1.0691 C.ar    
  25 C25           -2.8399    -1.8005    -2.0879 C.ar    
  26 C26           -3.6671    -1.6831    -3.1838 C.ar    
  27 C27           -4.8237    -2.4607    -3.2696 C.ar    
  28 C28           -5.1374    -3.3546    -2.2439 C.ar    
  29 C29           -4.3027    -3.4697    -1.1534 C.ar    
  30 O30           -6.8556    -3.0218    -4.6557 O.3     
  31 C31           -5.7137    -2.3376    -4.4428 C.2     
  32 N32           -5.5400    -1.5412    -5.4719 N.2     
  33 N33           -6.5112    -1.7008    -6.3005 N.2     
  34 C34           -7.3363    -2.5975    -5.8375 C.2     
  35 C35           -8.6008    -3.0724    -6.5058 C.3     
  36 H36           -2.3947    -0.4453     1.1398 H       
  37 H37            0.0646    -3.2704    -0.9144 H       
  38 H38            1.7210     0.4592     0.3470 H       
  39 H39           -2.4634     1.2088     1.9295 H       
  40 H40           -0.5237     5.8381     3.5616 H       
  41 H41           -2.9614     5.9422     4.3119 H       
  42 H42            2.0619    -3.8628    -0.7604 H       
  43 H43            1.6064    -3.1291    -2.3169 H       
  44 H44            4.0196    -2.5179    -2.6948 H       
  45 H45            5.0712    -2.4300    -0.5277 H       
  46 H46            4.2878    -3.9500     0.0051 H       
  47 H47            5.8739    -4.7599    -3.4826 H       
  48 H48            5.4910    -6.0969    -2.3624 H       
  49 H49            3.2578    -5.4421    -2.1482 H       
  50 H50            3.5573    -4.6495    -3.7279 H       
  51 H51           -1.9451    -1.1994    -2.0207 H       
  52 H52           -3.4214    -0.9904    -3.9751 H       
  53 H53           -6.0314    -3.9574    -2.3065 H       
  54 H54           -4.5427    -4.1636    -0.3613 H       
  55 H55           -9.4365    -2.4497    -6.1864 H       
  56 H56           -8.4883    -3.0023    -7.5877 H       
  57 H57           -8.7922    -4.1085    -6.2268 H       
@<TRIPOS>BOND
   1    1    2 1
   2    1    8 2
   3    1    9 am
   4    2    3 ar
   5    2    7 ar
   6    3    4 ar
   7    3   36 1
   8    4    5 ar
   9    4   23 1
  10    5    6 ar
  11    5   37 1
  12    6    7 ar
  13    6   15 1
  14    7   38 1
  15    9   11 1
  16    9   39 1
  17   10   11 1
  18   10   14 1
  19   11   12 2
  20   12   13 1
  21   13   14 2
  22   13   40 1
  23   14   41 1
  24   15   16 1
  25   16   17 1
  26   16   42 1
  27   16   43 1
  28   17   18 1
  29   17   21 1
  30   17   44 1
  31   18   19 1
  32   18   45 1
  33   18   46 1
  34   19   20 1
  35   19   22 2
  36   20   21 1
  37   20   47 1
  38   20   48 1
  39   21   49 1
  40   21   50 1
  41   23   24 1
  42   24   25 ar
  43   24   29 ar
  44   25   26 ar
  45   25   51 1
  46   26   27 ar
  47   26   52 1
  48   27   28 ar
  49   27   31 1
  50   28   29 ar
  51   28   53 1
  52   29   54 1
  53   30   31 1
  54   30   34 1
  55   31   32 2
  56   32   33 1
  57   33   34 2
  58   34   35 1
  59   35   55 1
  60   35   56 1
  61   35   57 1

#	End of record

