#	Name: ASD01141055
#	Creating user name:	WinNT
#	Creation time:	15. 06. 2019 19:01

#	Modifying user name:	WinNT
#	Modification time:	15. 06. 2019 19:01

#	Program:	/corina/corina34_cracker 3.40 0067  02.08.2006

@<TRIPOS>MOLECULE
ASD01141055
  39   40    0    0    0
SMALL
NO_CHARGES


@<TRIPOS>ATOM
   1 C1             0.0316     1.2798    -0.0482 C.2     
   2 C2            -0.4231    -0.0132     0.1364 C.2     
   3 C3             1.4721     1.5574    -0.0505 C.2     
   4 C4            -0.9263     2.3727    -0.2478 C.2     
   5 N5            -1.7403    -0.2464     0.3111 N.pl3   
   6 O6             2.1908     1.0368    -0.8833 O.2     
   7 C7             2.0507     2.4695     0.9588 C.ar    
   8 O8            -2.1106     2.1277    -0.3745 O.2     
   9 O9            -0.4936     3.6491    -0.2907 O.3     
  10 C10           -2.1911    -1.5424     0.5807 C.ar    
  11 C11            1.2485     2.9882     1.9773 C.ar    
  12 C12            3.4040     2.8119     0.9015 C.ar    
  13 C13           -3.5471    -1.7838     0.7608 C.ar    
  14 C14           -1.2841    -2.5913     0.6633 C.ar    
  15 C15            1.7945     3.8381     2.9159 C.ar    
  16 C16            3.9374     3.6645     1.8486 C.ar    
  17 C17           -3.9900    -3.0644     1.0271 C.ar    
  18 C18           -1.7322    -3.8712     0.9241 C.ar    
  19 C19            3.1349     4.1780     2.8509 C.ar    
  20 C20           -3.0834    -4.1076     1.1146 C.ar    
  21 F21           -3.5195    -5.3605     1.3701 F       
  22 H22           -2.3746     0.4848     0.2497 H       
  23 C23           -1.4783     4.6688    -0.6052 C.3     
  24 C24           -0.7844     6.0267    -0.7295 C.3     
  25 Cl25           4.4125     2.1675    -0.3560 Cl      
  26 H26            0.2763    -0.8361     0.1406 H       
  27 H27            0.2025     2.7246     2.0296 H       
  28 H28           -4.2544    -0.9705     0.6930 H       
  29 H29           -0.2294    -2.4060     0.5233 H       
  30 H30            1.1738     4.2430     3.7015 H       
  31 H31            4.9833     3.9302     1.8064 H       
  32 H32           -5.0442    -3.2525     1.1675 H       
  33 H33           -1.0274    -4.6870     0.9884 H       
  34 H34            3.5568     4.8441     3.5889 H       
  35 H35           -1.9674     4.4231    -1.5477 H       
  36 H36           -2.2226     4.7126     0.1899 H       
  37 H37           -1.5330     6.8051    -0.8777 H       
  38 H38           -0.2221     6.2322     0.1814 H       
  39 H39           -0.1038     6.0104    -1.5807 H       
@<TRIPOS>BOND
   1    1    2 2
   2    1    3 1
   3    1    4 1
   4    2    5 1
   5    2   26 1
   6    3    6 2
   7    3    7 1
   8    4    9 1
   9    4    8 2
  10    5   22 1
  11    5   10 1
  12    7   11 ar
  13    7   12 ar
  14    9   23 1
  15   10   13 ar
  16   10   14 ar
  17   11   15 ar
  18   11   27 1
  19   12   16 ar
  20   12   25 1
  21   13   17 ar
  22   13   28 1
  23   14   18 ar
  24   14   29 1
  25   15   19 ar
  26   15   30 1
  27   16   19 ar
  28   16   31 1
  29   17   20 ar
  30   17   32 1
  31   18   20 ar
  32   18   33 1
  33   19   34 1
  34   20   21 1
  35   23   24 1
  36   23   35 1
  37   23   36 1
  38   24   37 1
  39   24   38 1
  40   24   39 1

#	End of record

