#	Name: ASD00069105
#	Creating user name:	WinNT
#	Creation time:	15. 06. 2019 18:29

#	Modifying user name:	WinNT
#	Modification time:	15. 06. 2019 18:29

#	Program:	/corina/corina34_cracker 3.40 0067  02.08.2006

@<TRIPOS>MOLECULE
ASD00069105
  42   44    0    0    0
SMALL
NO_CHARGES


@<TRIPOS>ATOM
   1 C1            -0.0881     1.1823    -0.4267 C.2     
   2 N2            -0.0061    -0.0221     0.0976 N.2     
   3 C3             1.2319    -0.4847    -0.0593 C.2     
   4 C4             1.9619     0.4575    -0.7051 C.2     
   5 N5             1.1353     1.5113    -0.9397 N.pl3   
   6 C6            -1.2941     2.0286    -0.4604 C.2     
   7 O7            -1.2500     3.1298    -0.9749 O.2     
   8 N8            -2.4458     1.5823     0.0789 N.am    
   9 C9            -3.5582     2.4295     0.1540 C.ar    
  10 C10           -4.8447     1.9071     0.0209 C.ar    
  11 C11           -5.9442     2.7478     0.0962 C.ar    
  12 C12           -5.7669     4.1033     0.3030 C.ar    
  13 C13           -4.4877     4.6265     0.4355 C.ar    
  14 C14           -3.3832     3.7882     0.3666 C.ar    
  15 N15           -5.0256     0.5326    -0.1894 N.3     
  16 C16           -4.4935     0.1257    -1.4961 C.3     
  17 C17           -4.5754    -1.3966    -1.6301 C.3     
  18 C18           -6.0350    -1.8384    -1.4924 C.3     
  19 C19           -6.5796    -1.3603    -0.1436 C.3     
  20 C20           -6.4396     0.1609    -0.0527 C.3     
  21 N21           -4.0625    -1.8015    -2.9458 N.3     
  22 N22           -4.3118     5.9994     0.6444 N.pl3   
  23 H23            1.5936    -1.4469     0.2720 H       
  24 H24            3.0036     0.3851    -0.9807 H       
  25 H25            1.3693     2.3395    -1.3871 H       
  26 H26           -2.5042     0.6743     0.4149 H       
  27 H27           -6.9404     2.3437    -0.0072 H       
  28 H28           -6.6251     4.7564     0.3613 H       
  29 H29           -2.3885     4.1948     0.4745 H       
  30 H30           -5.0795     0.5920    -2.2881 H       
  31 H31           -3.4537     0.4422    -1.5795 H       
  32 H32           -3.9784    -1.8635    -0.8468 H       
  33 H33           -6.6250    -1.4027    -2.2987 H       
  34 H34           -6.0928    -2.9257    -1.5439 H       
  35 H35           -7.6310    -1.6348    -0.0578 H       
  36 H36           -6.0142    -1.8267     0.6631 H       
  37 H37           -6.8134     0.5030     0.9123 H       
  38 H38           -7.0165     0.6271    -0.8514 H       
  39 H39           -4.1062    -2.8032    -3.0584 H       
  40 H40           -4.5598    -1.3322    -3.6878 H       
  41 H41           -5.0835     6.5848     0.6965 H       
  42 H42           -3.4183     6.3653     0.7370 H       
@<TRIPOS>BOND
   1    1    2 2
   2    1    5 1
   3    1    6 1
   4    2    3 1
   5    3    4 2
   6    3   23 1
   7    4    5 1
   8    4   24 1
   9    5   25 1
  10    6    7 2
  11    6    8 am
  12    8    9 1
  13    8   26 1
  14    9   10 ar
  15    9   14 ar
  16   10   11 ar
  17   10   15 1
  18   11   12 ar
  19   11   27 1
  20   12   13 ar
  21   12   28 1
  22   13   14 ar
  23   13   22 1
  24   14   29 1
  25   15   16 1
  26   15   20 1
  27   16   17 1
  28   16   30 1
  29   16   31 1
  30   17   18 1
  31   17   21 1
  32   17   32 1
  33   18   19 1
  34   18   33 1
  35   18   34 1
  36   19   20 1
  37   19   35 1
  38   19   36 1
  39   20   37 1
  40   20   38 1
  41   21   39 1
  42   21   40 1
  43   22   41 1
  44   22   42 1

#	End of record

