#	Name: ASD03430530
#	Creating user name:	WinNT
#	Creation time:	15. 06. 2019 20:41

#	Modifying user name:	WinNT
#	Modification time:	15. 06. 2019 20:41

#	Program:	/corina/corina34_cracker 3.40 0067  02.08.2006

@<TRIPOS>MOLECULE
ASD03430530
  56   60    0    0    0
SMALL
NO_CHARGES


@<TRIPOS>ATOM
   1 N1             0.1561     1.8625     0.3529 N.am    
   2 C2             0.5565     0.8155     1.0937 C.2     
   3 C3             2.0652     0.8921     1.1946 C.3     
   4 C4             2.4239     2.1289     0.4035 C.ar    
   5 C5             3.6231     2.7404     0.1145 C.ar    
   6 C6             3.6434     3.8912    -0.6540 C.ar    
   7 C7             2.4580     4.4223    -1.1289 C.ar    
   8 C8             1.2552     3.8116    -0.8408 C.ar    
   9 C9             1.2267     2.6525    -0.0675 C.ar    
  10 O10           -0.1566    -0.0316     1.5888 O.2     
  11 O11            2.4692     1.0350     2.5578 O.3     
  12 C12            2.6982    -0.3298     0.5802 C.ar    
  13 C13            2.4573    -0.6406    -0.7499 C.ar    
  14 C14            3.0398    -1.7645    -1.3161 C.ar    
  15 C15            3.8611    -2.5755    -0.5540 C.ar    
  16 C16            4.1016    -2.2634     0.7778 C.ar    
  17 C17            3.5227    -1.1366     1.3407 C.ar    
  18 O18            4.9089    -3.0606     1.5283 O.3     
  19 C19            5.1121    -2.6794     2.8905 C.3     
  20 O20            1.6495     0.1567    -1.4988 O.3     
  21 F21            4.4287    -3.6710    -1.1046 F       
  22 C22           -1.2434     2.1395     0.0197 C.3     
  23 C23           -1.7642     1.0625    -0.8968 C.ar    
  24 C24           -2.8758     1.3017    -1.6828 C.ar    
  25 C25           -3.3535     0.3138    -2.5234 C.ar    
  26 C26           -2.7193    -0.9133    -2.5784 C.ar    
  27 C27           -1.6071    -1.1522    -1.7930 C.ar    
  28 C28           -1.1268    -0.1628    -0.9556 C.ar    
  29 C29           -2.0650     2.1648     1.2828 C.ar    
  30 C30           -2.3263     3.3669     1.9134 C.ar    
  31 C31           -3.0798     3.3901     3.0720 C.ar    
  32 C32           -3.5726     2.2113     3.5998 C.ar    
  33 C33           -3.3121     1.0093     2.9687 C.ar    
  34 C34           -2.5621     0.9866     1.8077 C.ar    
  35 H35            4.5467     2.3228     0.4874 H       
  36 H36            4.5825     4.3734    -0.8821 H       
  37 H37            2.4741     5.3205    -1.7283 H       
  38 H38            0.3338     4.2324    -1.2153 H       
  39 H39            2.2104     0.2954     3.1244 H       
  40 H40            2.8520    -2.0067    -2.3517 H       
  41 H41            3.7129    -0.8915     2.3752 H       
  42 H42            5.5637    -1.6881     2.9268 H       
  43 H43            4.1538    -2.6613     3.4096 H       
  44 H44            5.7737    -3.3981     3.3741 H       
  45 H45            2.1153     0.8709    -1.9550 H       
  46 H46           -1.3137     3.1062    -0.4789 H       
  47 H47           -3.3714     2.2604    -1.6398 H       
  48 H48           -4.2225     0.5005    -3.1370 H       
  49 H49           -3.0929    -1.6853    -3.2346 H       
  50 H50           -1.1117    -2.1110    -1.8357 H       
  51 H51           -0.2556    -0.3482    -0.3448 H       
  52 H52           -1.9413     4.2878     1.5011 H       
  53 H53           -3.2834     4.3292     3.5651 H       
  54 H54           -4.1608     2.2294     4.5054 H       
  55 H55           -3.6968     0.0883     3.3812 H       
  56 H56           -2.3617     0.0479     1.3126 H       
@<TRIPOS>BOND
   1    1    2 am
   2    1    9 1
   3    1   22 1
   4    2    3 1
   5    2   10 2
   6    3    4 1
   7    3   11 1
   8    3   12 1
   9    4    5 ar
  10    4    9 ar
  11    5    6 ar
  12    5   35 1
  13    6    7 ar
  14    6   36 1
  15    7    8 ar
  16    7   37 1
  17    8    9 ar
  18    8   38 1
  19   11   39 1
  20   12   13 ar
  21   12   17 ar
  22   13   14 ar
  23   13   20 1
  24   14   15 ar
  25   14   40 1
  26   15   16 ar
  27   15   21 1
  28   16   17 ar
  29   16   18 1
  30   17   41 1
  31   18   19 1
  32   19   42 1
  33   19   43 1
  34   19   44 1
  35   20   45 1
  36   22   23 1
  37   22   29 1
  38   22   46 1
  39   23   24 ar
  40   23   28 ar
  41   24   25 ar
  42   24   47 1
  43   25   26 ar
  44   25   48 1
  45   26   27 ar
  46   26   49 1
  47   27   28 ar
  48   27   50 1
  49   28   51 1
  50   29   30 ar
  51   29   34 ar
  52   30   31 ar
  53   30   52 1
  54   31   32 ar
  55   31   53 1
  56   32   33 ar
  57   32   54 1
  58   33   34 ar
  59   33   55 1
  60   34   56 1

#	End of record

