#	Name: ASD01910613
#	Creating user name:	WinNT
#	Creation time:	15. 06. 2019 19:56

#	Modifying user name:	WinNT
#	Modification time:	15. 06. 2019 19:56

#	Program:	/corina/corina34_cracker 3.40 0067  02.08.2006

@<TRIPOS>MOLECULE
ASD01910613
  47   50    0    0    0
SMALL
NO_CHARGES


@<TRIPOS>ATOM
   1 C1             0.0245     1.3043    -0.0724 C.ar    
   2 C2             0.0575    -0.0819    -0.0820 C.ar    
   3 C3             1.2702    -0.7518    -0.0865 C.ar    
   4 C4             2.4545    -0.0405    -0.0819 C.ar    
   5 C5             2.4258     1.3581    -0.0726 C.ar    
   6 C6             1.1993     2.0255    -0.0676 C.ar    
   7 C7             3.6872     2.1253    -0.0672 C.2     
   8 N8             3.8110     3.4415    -0.0584 N.2     
   9 C9             5.1319     3.6783    -0.0565 C.2     
  10 N10            5.7384     2.5280    -0.0639 N.2     
  11 O11            4.9316     1.6224    -0.0642 O.3     
  12 C12            5.7930     5.0326    -0.0477 C.3     
  13 C13            6.6648     5.1673     1.2028 C.3     
  14 C14            7.3107     6.5545     1.2293 C.3     
  15 C15            8.2047     6.7208    -0.0035 C.3     
  16 N16            7.4062     6.4499    -1.2067 N.am    
  17 C17            6.6698     5.1816    -1.2951 C.3     
  18 C18            7.3503     7.3478    -2.2103 C.2     
  19 C19            8.0191     8.6572    -2.0679 C.ar    
  20 O20            6.7494     7.0800    -3.2326 O.2     
  21 C21            9.3781     8.7193    -1.7536 C.ar    
  22 C22            9.9974     9.9440    -1.6224 C.ar    
  23 C23            9.2732    11.1125    -1.8015 C.ar    
  24 C24            7.9231    11.0565    -2.1134 C.ar    
  25 C25            7.2956     9.8375    -2.2530 C.ar    
  26 F26            9.8849    12.3100    -1.6714 F       
  27 F27           -1.0978    -0.7822    -0.0866 F       
  28 F28            3.6370    -0.6938    -0.0858 F       
  29 C29            5.8285     9.7782    -2.5923 C.3     
  30 H30           -0.9241     1.8204    -0.0731 H       
  31 H31            1.2897    -1.8316    -0.0933 H       
  32 H32            1.1711     3.1051    -0.0609 H       
  33 H33            5.0292     5.8102    -0.0443 H       
  34 H34            6.0474     5.0372     2.0916 H       
  35 H35            7.4433     4.4045     1.1867 H       
  36 H36            6.5330     7.3182     1.2204 H       
  37 H37            7.9129     6.6582     2.1320 H       
  38 H38            8.5887     7.7402    -0.0417 H       
  39 H39            9.0354     6.0170     0.0499 H       
  40 H40            7.3753     4.3523    -1.3470 H       
  41 H41            6.0410     5.1854    -2.1854 H       
  42 H42            9.9430     7.8096    -1.6132 H       
  43 H43           11.0485     9.9932    -1.3794 H       
  44 H44            7.3634    11.9698    -2.2511 H       
  45 H45            5.7023     9.8473    -3.6728 H       
  46 H46            5.4112     8.8359    -2.2374 H       
  47 H47            5.3106    10.6086    -2.1122 H       
@<TRIPOS>BOND
   1    1    2 ar
   2    1    6 ar
   3    1   30 1
   4    2    3 ar
   5    2   27 1
   6    3    4 ar
   7    3   31 1
   8    4    5 ar
   9    4   28 1
  10    5    6 ar
  11    5    7 1
  12    6   32 1
  13    7    8 2
  14    7   11 1
  15    8    9 1
  16    9   10 2
  17    9   12 1
  18   10   11 1
  19   12   13 1
  20   12   17 1
  21   12   33 1
  22   13   14 1
  23   13   34 1
  24   13   35 1
  25   14   15 1
  26   14   36 1
  27   14   37 1
  28   15   16 1
  29   15   38 1
  30   15   39 1
  31   16   17 1
  32   16   18 am
  33   17   40 1
  34   17   41 1
  35   18   19 1
  36   18   20 2
  37   19   21 ar
  38   19   25 ar
  39   21   22 ar
  40   21   42 1
  41   22   23 ar
  42   22   43 1
  43   23   24 ar
  44   23   26 1
  45   24   25 ar
  46   24   44 1
  47   25   29 1
  48   29   45 1
  49   29   46 1
  50   29   47 1

#	End of record

