#	Name: ASD01410049
#	Creating user name:	WinNT
#	Creation time:	15. 06. 2019 19:16

#	Modifying user name:	WinNT
#	Modification time:	15. 06. 2019 19:16

#	Program:	/corina/corina34_cracker 3.40 0067  02.08.2006

@<TRIPOS>MOLECULE
ASD01410049
  42   43    0    0    0
SMALL
NO_CHARGES


@<TRIPOS>ATOM
   1 C1             0.3791     1.1123    -0.0847 C.ar    
   2 C2             0.1378    -0.2437    -0.0368 C.ar    
   3 C3            -1.1802    -0.7170    -0.0013 C.ar    
   4 C4            -2.2466     0.1995    -0.0149 C.ar    
   5 C5            -1.9812     1.5624    -0.0634 C.ar    
   6 C6            -0.6778     2.0131    -0.0922 C.ar    
   7 N7            -3.5577    -0.2551     0.0194 N.pl3   
   8 C8            -4.6623     0.7017     0.1227 C.3     
   9 C9            -5.9722    -0.0433     0.1409 C.2     
  10 N10           -7.1327     0.6361     0.2313 N.am    
  11 C11           -8.3455    -0.0406     0.1289 C.ar    
  12 C12           -8.4171    -1.2434    -0.5602 C.ar    
  13 C13           -9.6206    -1.9126    -0.6606 C.ar    
  14 C14          -10.7638    -1.3915    -0.0770 C.ar    
  15 C15          -10.7121    -0.1985     0.6112 C.ar    
  16 C16           -9.5004     0.4873     0.7268 C.ar    
  17 C17           -9.4378     1.7633     1.4618 C.2     
  18 O18          -10.5271     2.2223     2.1089 O.3     
  19 O19           -8.4039     2.4013     1.4843 O.2     
  20 O20           -5.9821    -1.2542     0.0742 O.2     
  21 C21           -1.4460    -2.1583     0.0493 C.2     
  22 F22            1.6506     1.5678    -0.1190 F       
  23 C23           -0.3069    -3.1389    -0.0604 C.3     
  24 O24           -2.5828    -2.5613     0.1795 O.2     
  25 C25           -0.3990     3.4932    -0.1443 C.3     
  26 H26            0.9632    -0.9401    -0.0270 H       
  27 H27           -2.7967     2.2703    -0.0741 H       
  28 H28           -3.7426    -1.2063    -0.0250 H       
  29 H29           -4.5592     1.2778     1.0423 H       
  30 H30           -4.6399     1.3763    -0.7332 H       
  31 H31           -7.1231     1.5964     0.3678 H       
  32 H32           -7.5306    -1.6560    -1.0187 H       
  33 H33           -9.6711    -2.8481    -1.1979 H       
  34 H34          -11.7003    -1.9226    -0.1620 H       
  35 H35          -11.6063     0.2036     1.0641 H       
  36 H36          -10.4376     3.0637     2.5769 H       
  37 H37            0.0793    -3.3600     0.9346 H       
  38 H38           -0.6627    -4.0586    -0.5248 H       
  39 H39            0.4866    -2.7072    -0.6705 H       
  40 H40           -0.3208     3.8841     0.8702 H       
  41 H41            0.5374     3.6681    -0.6742 H       
  42 H42           -1.2118     3.9979    -0.6665 H       
@<TRIPOS>BOND
   1    1    2 ar
   2    1   22 1
   3    1    6 ar
   4    2    3 ar
   5    2   26 1
   6    3    4 ar
   7    3   21 1
   8    4    5 ar
   9    4    7 1
  10    5    6 ar
  11    5   27 1
  12    6   25 1
  13    7    8 1
  14    7   28 1
  15    8    9 1
  16    8   29 1
  17    8   30 1
  18    9   10 am
  19    9   20 2
  20   10   11 1
  21   10   31 1
  22   11   12 ar
  23   11   16 ar
  24   12   13 ar
  25   12   32 1
  26   13   14 ar
  27   13   33 1
  28   14   15 ar
  29   14   34 1
  30   15   16 ar
  31   15   35 1
  32   16   17 1
  33   17   18 1
  34   17   19 2
  35   18   36 1
  36   21   23 1
  37   21   24 2
  38   23   37 1
  39   23   38 1
  40   23   39 1
  41   25   40 1
  42   25   41 1
  43   25   42 1

#	End of record

