#	Name: ASD04942002
#	Creating user name:	WinNT
#	Creation time:	15. 06. 2019 20:56

#	Modifying user name:	WinNT
#	Modification time:	15. 06. 2019 20:56

#	Program:	/corina/corina34_cracker 3.40 0067  02.08.2006

@<TRIPOS>MOLECULE
ASD04942002
  53   56    0    0    0
SMALL
NO_CHARGES


@<TRIPOS>ATOM
   1 C1            -0.0303     1.3936     0.2173 C.ar    
   2 C2            -0.0141     0.0069     0.2332 C.ar    
   3 C3             1.1795    -0.6819     0.2119 C.ar    
   4 C4             2.3835     0.0143     0.1735 C.ar    
   5 C5             2.3649     1.4183     0.1570 C.ar    
   6 C6             1.1515     2.1016     0.1793 C.ar    
   7 N7             3.7019    -0.3954     0.1457 N.pl3   
   8 C8             4.5358     0.6807     0.1119 C.2     
   9 C9             3.7753     1.8478     0.1167 C.2     
  10 C10            4.2577     3.1755     0.0890 C.2     
  11 C11            3.2888     4.3297     0.0990 C.3     
  12 O12            4.0256     5.5804     0.0660 O.3     
  13 C13            3.3017     6.7172     0.0702 C.2     
  14 C14            3.9817     8.0234     0.0379 C.ar    
  15 O15            2.0880     6.6646     0.1006 O.2     
  16 O16            5.4534     3.3866     0.0571 O.2     
  17 C17            5.3745     8.0938     0.1306 C.ar    
  18 C18            6.0042     9.3187     0.0998 C.ar    
  19 C19            5.2640    10.4839    -0.0223 C.ar    
  20 C20            3.8882    10.4317    -0.1149 C.ar    
  21 C21            3.2351     9.2058    -0.0920 C.ar    
  22 N22            1.8510     9.1506    -0.1850 N.pl3   
  23 C23            1.0655    10.3871    -0.1645 C.3     
  24 C24           -0.4220    10.0483    -0.2805 C.3     
  25 O25           -0.8359     9.3183     0.8760 O.3     
  26 C26            6.0097     0.6201     0.0768 C.ar    
  27 C27            6.6552    -0.2725    -0.7827 C.ar    
  28 C28            8.0331    -0.3233    -0.8106 C.ar    
  29 C29            8.7762     0.5070     0.0101 C.ar    
  30 C30            8.1437     1.3933     0.8642 C.ar    
  31 C31            6.7665     1.4591     0.8986 C.ar    
  32 H32           -0.9729     1.9206     0.2302 H       
  33 H33           -0.9458    -0.5384     0.2630 H       
  34 H34            1.1803    -1.7618     0.2254 H       
  35 H35            1.1367     3.1815     0.1662 H       
  36 H36            3.9934    -1.3205     0.1497 H       
  37 H37            2.6400     4.2670    -0.7746 H       
  38 H38            2.6837     4.2882     1.0047 H       
  39 H39            5.9563     7.1890     0.2266 H       
  40 H40            7.0805     9.3711     0.1715 H       
  41 H41            5.7673    11.4392    -0.0447 H       
  42 H42            3.3189    11.3446    -0.2094 H       
  43 H43            1.4040     8.2933    -0.2635 H       
  44 H44            1.2457    10.9164     0.7712 H       
  45 H45            1.3607    11.0189    -1.0021 H       
  46 H46           -0.9997    10.9696    -0.3547 H       
  47 H47           -0.5882     9.4425    -1.1713 H       
  48 H48           -1.7704     9.0694     0.8705 H       
  49 H49            6.0765    -0.9213    -1.4235 H       
  50 H50            8.5335    -1.0130    -1.4742 H       
  51 H51            9.8550     0.4629    -0.0160 H       
  52 H52            8.7299     2.0378     1.5024 H       
  53 H53            6.2742     2.1546     1.5622 H       
@<TRIPOS>BOND
   1    1    2 ar
   2    1    6 ar
   3    1   32 1
   4    2    3 ar
   5    2   33 1
   6    3    4 ar
   7    3   34 1
   8    4    5 ar
   9    4    7 1
  10    5    6 ar
  11    5    9 1
  12    6   35 1
  13    7    8 1
  14    7   36 1
  15    8    9 2
  16    8   26 1
  17    9   10 1
  18   10   11 1
  19   10   16 2
  20   11   12 1
  21   11   37 1
  22   11   38 1
  23   12   13 1
  24   13   14 1
  25   13   15 2
  26   14   17 ar
  27   14   21 ar
  28   17   18 ar
  29   17   39 1
  30   18   19 ar
  31   18   40 1
  32   19   20 ar
  33   19   41 1
  34   20   21 ar
  35   20   42 1
  36   21   22 1
  37   22   23 1
  38   22   43 1
  39   23   24 1
  40   23   44 1
  41   23   45 1
  42   24   25 1
  43   24   46 1
  44   24   47 1
  45   25   48 1
  46   26   27 ar
  47   26   31 ar
  48   27   28 ar
  49   27   49 1
  50   28   29 ar
  51   28   50 1
  52   29   30 ar
  53   29   51 1
  54   30   31 ar
  55   30   52 1
  56   31   53 1

#	End of record

