#	Name: ASD07300159
#	Creating user name:	WinNT
#	Creation time:	15. 06. 2019 21:09

#	Modifying user name:	WinNT
#	Modification time:	15. 06. 2019 21:09

#	Program:	/corina/corina34_cracker 3.40 0067  02.08.2006

@<TRIPOS>MOLECULE
ASD07300159
  55   59    0    0    0
SMALL
NO_CHARGES


@<TRIPOS>ATOM
   1 C1            -0.6202     8.0677    -0.1344 C.2     
   2 C2            -0.8537     9.4521    -0.2197 C.2     
   3 C3             0.2060    10.3089    -0.2496 C.2     
   4 C4             1.5103     9.7990    -0.1949 C.2     
   5 C5             1.7142     8.4641    -0.1135 C.2     
   6 N6             0.6629     7.6032    -0.0828 N.pl3   
   7 N7            -1.4550     7.0299    -0.0950 N.2     
   8 C8            -0.7660     5.8988    -0.0131 C.2     
   9 C9             0.5909     6.2203    -0.0033 C.2     
  10 C10            1.6729     5.3199     0.0700 C.2     
  11 O11            1.4647     4.1219     0.1360 O.2     
  12 O12            2.9404     5.7858     0.0670 O.3     
  13 O13           -1.2892     4.6495     0.0460 O.3     
  14 C14           -2.6375     4.5275     0.1707 C.ar    
  15 C15           -3.4178     5.6527     0.3950 C.ar    
  16 C16           -4.7872     5.5294     0.5213 C.ar    
  17 C17           -5.3834     4.2792     0.4237 C.ar    
  18 C18           -4.6020     3.1536     0.1991 C.ar    
  19 C19           -3.2333     3.2787     0.0678 C.ar    
  20 C20           -7.6312     5.2269     0.7780 C.ar    
  21 C21           -8.9457     4.7798     0.8570 C.ar    
  22 C22           -9.9720     5.6727     1.0716 C.ar    
  23 C23           -9.6556     7.0199     1.2052 C.ar    
  24 C24           -8.3326     7.4062     1.1179 C.ar    
  25 N25           -7.3753     6.5252     0.9122 N.ar    
  26 N26           -6.7739     4.1534     0.5523 N.am    
  27 C27           -8.9007     3.2824     0.6675 C.3     
  28 C28           -7.4293     2.9834     0.4707 C.2     
  29 O29           -6.9350     1.8925     0.2798 O.2     
  30 C30           -9.4404     2.5681     1.9082 C.3     
  31 C31           -9.6939     2.8748    -0.5757 C.3     
  32 C32            3.9880     4.8169     0.1437 C.3     
  33 C33            5.3426     5.5280     0.1280 C.3     
  34 H34           -1.8635     9.8328    -0.2616 H       
  35 H35            0.0415    11.3742    -0.3153 H       
  36 H36            2.3540    10.4729    -0.2182 H       
  37 H37            2.7223     8.0787    -0.0721 H       
  38 H38           -2.9540     6.6250     0.4713 H       
  39 H39           -5.3945     6.4052     0.6963 H       
  40 H40           -5.0653     2.1810     0.1232 H       
  41 H41           -2.6259     2.4037    -0.1110 H       
  42 H42          -10.9960     5.3353     1.1341 H       
  43 H43          -10.4314     7.7520     1.3741 H       
  44 H44           -8.0780     8.4507     1.2202 H       
  45 H45          -10.4727     2.8718     2.0821 H       
  46 H46           -9.4000     1.4899     1.7530 H       
  47 H47           -8.8329     2.8336     2.7734 H       
  48 H48           -9.2644     3.3556    -1.4545 H       
  49 H49           -9.6500     1.7923    -0.6959 H       
  50 H50          -10.7324     3.1859    -0.4623 H       
  51 H51            3.8880     4.2460     1.0668 H       
  52 H52            3.9220     4.1422    -0.7098 H       
  53 H53            6.1416     4.7890     0.1865 H       
  54 H54            5.4426     6.0990    -0.7951 H       
  55 H55            5.4086     6.2028     0.9815 H       
@<TRIPOS>BOND
   1    1    2 1
   2    1    6 1
   3    1    7 2
   4    2    3 2
   5    2   34 1
   6    3    4 1
   7    3   35 1
   8    4    5 2
   9    4   36 1
  10    5    6 1
  11    5   37 1
  12    6    9 1
  13    7    8 1
  14    8    9 2
  15    8   13 1
  16    9   10 1
  17   10   11 2
  18   10   12 1
  19   12   32 1
  20   13   14 1
  21   14   15 ar
  22   14   19 ar
  23   15   16 ar
  24   15   38 1
  25   16   17 ar
  26   16   39 1
  27   17   18 ar
  28   17   26 1
  29   18   19 ar
  30   18   40 1
  31   19   41 1
  32   20   21 ar
  33   20   25 ar
  34   20   26 1
  35   21   22 ar
  36   21   27 1
  37   22   23 ar
  38   22   42 1
  39   23   24 ar
  40   23   43 1
  41   24   25 ar
  42   24   44 1
  43   26   28 am
  44   27   28 1
  45   27   30 1
  46   27   31 1
  47   28   29 2
  48   30   45 1
  49   30   46 1
  50   30   47 1
  51   31   48 1
  52   31   49 1
  53   31   50 1
  54   32   33 1
  55   32   51 1
  56   32   52 1
  57   33   53 1
  58   33   54 1
  59   33   55 1

#	End of record

