#	Name: ASD03730612
#	Creating user name:	WinNT
#	Creation time:	15. 06. 2019 20:44

#	Modifying user name:	WinNT
#	Modification time:	15. 06. 2019 20:44

#	Program:	/corina/corina34_cracker 3.40 0067  02.08.2006

@<TRIPOS>MOLECULE
ASD03730612
  60   65    0    0    0
SMALL
NO_CHARGES


@<TRIPOS>ATOM
   1 O1            -0.1601     1.3627     0.3355 O.3     
   2 C2            -0.1294    -0.0769     0.3430 C.3     
   3 O3             1.0766    -0.3969    -0.3753 O.3     
   4 C4             1.9063     0.6720    -0.1906 C.ar    
   5 C5             1.1451     1.7540     0.2452 C.ar    
   6 C6             3.2721     0.8109    -0.3606 C.ar    
   7 C7             3.8946     2.0281    -0.1008 C.ar    
   8 C8             3.1225     3.1042     0.3262 C.ar    
   9 C9             1.7614     2.9672     0.5020 C.ar    
  10 O10            5.2124     2.3690    -0.1870 O.3     
  11 C11            4.0633     4.2673     0.4937 C.3     
  12 C12            5.3294     3.8039    -0.2399 C.3     
  13 N13            3.4776     6.4363     0.9108 N.am    
  14 C14            3.5100     5.5349    -0.0910 C.2     
  15 C15            4.3346     4.5799     1.9352 C.ar    
  16 C16            4.8441     3.8451     2.9968 C.ar    
  17 C17            4.9768     4.4398     4.2512 C.ar    
  18 C18            4.5996     5.7564     4.4276 C.ar    
  19 C19            4.0939     6.4866     3.3715 C.ar    
  20 C20            3.9557     5.9059     2.1119 C.ar    
  21 O21            3.1612     5.7129    -1.2389 O.2     
  22 C22            2.9974     7.8119     0.7580 C.3     
  23 C23            1.4958     7.8630     1.0472 C.3     
  24 C24            0.9943     9.2996     0.8875 C.3     
  25 C25           -0.5073     9.3507     1.1767 C.3     
  26 C26           -1.0088    10.7873     1.0171 C.3     
  27 C27            5.2471     2.4310     2.7974 C.ar    
  28 C28            6.5961     2.0965     2.6948 C.ar    
  29 C29            6.9663     0.7806     2.5094 C.ar    
  30 C30            5.9990    -0.2081     2.4253 C.ar    
  31 C31            4.6569     0.1200     2.5264 C.ar    
  32 C32            4.2781     1.4330     2.7181 C.ar    
  33 C33            7.6489     3.1709     2.7856 C.3     
  34 F34            6.3658    -1.4956     2.2437 F       
  35 H35           -0.0782    -0.4535     1.3646 H       
  36 H36           -1.0008    -0.4812    -0.1721 H       
  37 H37            3.8592    -0.0309    -0.6969 H       
  38 H38            1.1746     3.8083     0.8404 H       
  39 H39            6.2248     4.1389     0.2837 H       
  40 H40            5.3291     4.1546    -1.2719 H       
  41 H41            5.3723     3.8730     5.0810 H       
  42 H42            4.7015     6.2179     5.3987 H       
  43 H43            3.8023     7.5156     3.5222 H       
  44 H44            3.5244     8.4605     1.4577 H       
  45 H45            3.1828     8.1503    -0.2614 H       
  46 H46            0.9688     7.2143     0.3475 H       
  47 H47            1.3104     7.5246     2.0666 H       
  48 H48            1.5213     9.9483     1.5872 H       
  49 H49            1.1797     9.6380    -0.1319 H       
  50 H50           -1.0343     8.7020     0.4770 H       
  51 H51           -0.6927     9.0123     2.1961 H       
  52 H52           -0.4817    11.4360     1.7168 H       
  53 H53           -0.8234    11.1257    -0.0023 H       
  54 H54           -2.0785    10.8237     1.2231 H       
  55 H55            8.0115     0.5206     2.4294 H       
  56 H56            3.9062    -0.6536     2.4596 H       
  57 H57            3.2318     1.6872     2.8020 H       
  58 H58            7.8800     3.3656     3.8329 H       
  59 H59            8.5506     2.8406     2.2699 H       
  60 H60            7.2777     4.0837     2.3197 H       
@<TRIPOS>BOND
   1    1    2 1
   2    1    5 1
   3    2    3 1
   4    2   35 1
   5    2   36 1
   6    3    4 1
   7    4    5 ar
   8    4    6 ar
   9    5    9 ar
  10    6    7 ar
  11    6   37 1
  12    7    8 ar
  13    7   10 1
  14    8    9 ar
  15    8   11 1
  16    9   38 1
  17   10   12 1
  18   11   12 1
  19   11   14 1
  20   11   15 1
  21   12   39 1
  22   12   40 1
  23   13   14 am
  24   13   20 1
  25   13   22 1
  26   14   21 2
  27   15   16 ar
  28   15   20 ar
  29   16   17 ar
  30   16   27 1
  31   17   18 ar
  32   17   41 1
  33   18   19 ar
  34   18   42 1
  35   19   20 ar
  36   19   43 1
  37   22   23 1
  38   22   44 1
  39   22   45 1
  40   23   24 1
  41   23   46 1
  42   23   47 1
  43   24   25 1
  44   24   48 1
  45   24   49 1
  46   25   26 1
  47   25   50 1
  48   25   51 1
  49   26   52 1
  50   26   53 1
  51   26   54 1
  52   27   28 ar
  53   27   32 ar
  54   28   29 ar
  55   28   33 1
  56   29   30 ar
  57   29   55 1
  58   30   31 ar
  59   30   34 1
  60   31   32 ar
  61   31   56 1
  62   32   57 1
  63   33   58 1
  64   33   59 1
  65   33   60 1

#	End of record

