#	Name: ASD02500792
#	Creating user name:	WinNT
#	Creation time:	15. 06. 2019 20:23

#	Modifying user name:	WinNT
#	Modification time:	15. 06. 2019 20:23

#	Program:	/corina/corina34_cracker 3.40 0067  02.08.2006

@<TRIPOS>MOLECULE
ASD02500792
  24   25    0    0    0
SMALL
NO_CHARGES


@<TRIPOS>ATOM
   1 N1            -0.0168     1.3846     0.0097 N.pl3   
   2 C2             0.0021    -0.0041     0.0020 C.2     
   3 C3             1.3238    -0.4058    -0.0128 C.2     
   4 C4             2.1316     0.7626    -0.0142 C.2     
   5 C5             1.2652     1.8539    -0.0001 C.2     
   6 C6            -0.8940    -1.0797     0.0044 C.2     
   7 C7            -0.3427    -2.2880    -0.0077 C.2     
   8 S8             1.4088    -2.1633    -0.0235 S.3     
   9 C9             1.6630     3.2668     0.0037 C.2     
  10 O10            2.8413     3.5666    -0.0064 O.2     
  11 O11            0.7214     4.2325     0.0184 O.3     
  12 C12            3.5992     0.8112    -0.0272 C.2     
  13 O13            4.1706     1.8810    -0.0270 O.2     
  14 Br14          -1.3081    -3.9140    -0.0068 Br      
  15 C15            1.1875     5.6077     0.0213 C.3     
  16 C16           -0.0148     6.5537     0.0385 C.3     
  17 H17           -0.8156     1.9349     0.0166 H       
  18 H18           -1.9643    -0.9362     0.0157 H       
  19 H19            4.1698    -0.1057    -0.0370 H       
  20 H20            1.7996     5.7820     0.9062 H       
  21 H21            1.7819     5.7917    -0.8736 H       
  22 H22           -0.6269     6.3794    -0.8464 H       
  23 H23           -0.6092     6.3696     0.9334 H       
  24 H24            0.3351     7.5860     0.0407 H       
@<TRIPOS>BOND
   1    1    2 1
   2    1    5 1
   3    1   17 1
   4    2    3 2
   5    2    6 1
   6    3    4 1
   7    3    8 1
   8    4    5 2
   9    4   12 1
  10    5    9 1
  11    6    7 2
  12    6   18 1
  13    7    8 1
  14    7   14 1
  15    9   10 2
  16    9   11 1
  17   11   15 1
  18   12   13 2
  19   12   19 1
  20   15   16 1
  21   15   20 1
  22   15   21 1
  23   16   22 1
  24   16   23 1
  25   16   24 1

#	End of record

