#	Name: ASD01840118
#	Creating user name:	WinNT
#	Creation time:	15. 06. 2019 19:37

#	Modifying user name:	WinNT
#	Modification time:	15. 06. 2019 19:37

#	Program:	/corina/corina34_cracker 3.40 0067  02.08.2006

@<TRIPOS>MOLECULE
ASD01840118
  44   46    0    0    0
SMALL
NO_CHARGES


@<TRIPOS>ATOM
   1 N1            -0.0180     1.4725     0.0101 N.3     
   2 C2             0.0021    -0.0041     0.0020 C.3     
   3 C3             1.0021    -0.5016     1.0475 C.3     
   4 C4             0.6646     0.0871     2.4204 C.3     
   5 C5             0.5874     1.6197     2.2895 C.3     
   6 C6             1.8244     2.0689     1.4707 C.3     
   7 C7             1.3777     1.9721    -0.0005 C.3     
   8 C8            -0.5818     1.9197     1.3126 C.3     
   9 N9             2.1316     5.6670     2.0995 N.pl3   
  10 N10            1.4256     4.5374     1.6663 N.2     
  11 C11            2.1940     3.4888     1.8146 C.2     
  12 C12            3.4201     3.9114     2.3487 C.2     
  13 C13            3.3593     5.2573     2.5161 C.2     
  14 S14            4.7953     2.8791     2.7334 S.3     
  15 C15            6.0205     4.0535     3.3740 C.3     
  16 C16            7.2954     3.3007     3.7598 C.3     
  17 C17            8.3288     4.2912     4.3001 C.3     
  18 C18            9.6037     3.5385     4.6859 C.3     
  19 C19           10.6371     4.5290     5.2262 C.3     
  20 H20           -0.9919    -0.3828     0.2401 H       
  21 H21            0.3004    -0.3585    -0.9846 H       
  22 H22            0.9589    -1.5895     1.1001 H       
  23 H23            2.0080    -0.1952     0.7601 H       
  24 H24           -0.2963    -0.3004     2.7589 H       
  25 H25            1.4429    -0.1806     3.1350 H       
  26 H26            0.5019     2.1261     3.2509 H       
  27 H27            2.6656     1.4011     1.6567 H       
  28 H28            2.0192     1.2753    -0.5401 H       
  29 H29            1.4183     2.9558    -0.4682 H       
  30 H30           -0.8093     2.9855     1.2931 H       
  31 H31           -1.4664     1.3388     1.5740 H       
  32 H32            1.8042     6.5801     2.0986 H       
  33 H33            4.1436     5.8878     2.9081 H       
  34 H34            6.2525     4.7915     2.6062 H       
  35 H35            5.6163     4.5574     4.2520 H       
  36 H36            7.0633     2.5627     4.5276 H       
  37 H37            7.6995     2.7968     2.8818 H       
  38 H38            8.5608     5.0293     3.5323 H       
  39 H39            7.9246     4.7951     5.1781 H       
  40 H40            9.3716     2.8004     5.4537 H       
  41 H41           10.0078     3.0346     3.8079 H       
  42 H42           11.5453     3.9927     5.5010 H       
  43 H43           10.8691     5.2670     4.4584 H       
  44 H44           10.2329     5.0329     6.1042 H       
@<TRIPOS>BOND
   1    1    2 1
   2    1    7 1
   3    1    8 1
   4    2    3 1
   5    2   20 1
   6    2   21 1
   7    3    4 1
   8    3   22 1
   9    3   23 1
  10    4    5 1
  11    4   24 1
  12    4   25 1
  13    5    6 1
  14    5    8 1
  15    5   26 1
  16    6    7 1
  17    6   11 1
  18    6   27 1
  19    7   28 1
  20    7   29 1
  21    8   30 1
  22    8   31 1
  23    9   10 1
  24    9   13 1
  25    9   32 1
  26   10   11 2
  27   11   12 1
  28   12   13 2
  29   12   14 1
  30   13   33 1
  31   14   15 1
  32   15   16 1
  33   15   34 1
  34   15   35 1
  35   16   17 1
  36   16   36 1
  37   16   37 1
  38   17   18 1
  39   17   38 1
  40   17   39 1
  41   18   19 1
  42   18   40 1
  43   18   41 1
  44   19   42 1
  45   19   43 1
  46   19   44 1

#	End of record

